MODEL 1
REMARK VINA RESULT:     -10.1      0.000      0.000
REMARK  9 active torsions:
REMARK  status: ('A' for Active; 'I' for Inactive)
REMARK    1  A    between atoms: C_2  and  C_3 
REMARK    2  A    between atoms: C_6  and  N_7 
REMARK       I    between atoms: N_7  and  C_8 
REMARK    3  A    between atoms: C_8  and  C_9 
REMARK    4  A    between atoms: C_9  and  S_10 
REMARK    5  A    between atoms: S_10  and  C_11 
REMARK    6  A    between atoms: C_15  and  C_16 
REMARK       I    between atoms: C_16  and  N_17 
REMARK    7  A    between atoms: N_17  and  C_18 
REMARK    8  A    between atoms: C_19  and  O_20 
REMARK    9  A    between atoms: C_27  and  C_28 
ROOT
HETATM    1  C   UNL     1      43.421 -12.391   6.721  1.00  0.00     0.087 C 
HETATM    2  N   UNL     1      43.430 -13.466   7.599  1.00  0.00    -0.353 N 
HETATM    3  C   UNL     1      42.916 -14.722   7.304  1.00  0.00     0.019 C 
HETATM    4  C   UNL     1      43.277 -15.825   8.271  1.00  0.00     0.069 C 
HETATM    5  C   UNL     1      42.175 -14.897   6.186  1.00  0.00     0.046 C 
HETATM    6  C   UNL     1      41.730 -13.687   5.367  1.00  0.00     0.104 C 
HETATM    7  C   UNL     1      42.538 -12.417   5.688  1.00  0.00     0.055 C 
HETATM    8  C   UNL     1      42.215 -11.171   4.879  1.00  0.00     0.019 C 
HETATM    9  N   UNL     1      41.945 -10.138   4.208  1.00  0.00    -0.096 N 
HETATM   10  H   UNL     1      44.140 -13.465   8.325  1.00  0.00     0.166 HD
ENDROOT
BRANCH   1  11
HETATM   11  S   UNL     1      44.564 -11.054   6.803  1.00  0.00    -0.102 SA
BRANCH  11  12
HETATM   12  C   UNL     1      43.861  -9.820   7.912  1.00  0.00     0.184 C 
BRANCH  12  13
HETATM   13  C   UNL     1      43.721 -10.162   9.393  1.00  0.00     0.231 C 
HETATM   14  N   UNL     1      42.634  -9.631  10.055  1.00  0.00    -0.327 N 
HETATM   15  H   UNL     1      41.901  -9.237   9.474  1.00  0.00     0.169 HD
HETATM   16  O   UNL     1      44.620 -10.813   9.926  1.00  0.00    -0.272 OA
BRANCH  14  17
HETATM   17  C   UNL     1      42.533  -9.363  11.440  1.00  0.00     0.034 A 
HETATM   18  C   UNL     1      43.318  -8.426  12.113  1.00  0.00     0.030 A 
HETATM   19  C   UNL     1      43.022  -8.062  13.433  1.00  0.00     0.009 A 
HETATM   20  C   UNL     1      41.936  -8.633  14.104  1.00  0.00    -0.058 A 
HETATM   21  C   UNL     1      41.189  -9.619  13.452  1.00  0.00     0.009 A 
HETATM   22  C   UNL     1      41.494  -9.989  12.138  1.00  0.00     0.030 A 
BRANCH  20  23
HETATM   23  C   UNL     1      41.526  -8.130  15.465  1.00  0.00     0.034 C 
HETATM   24  C   UNL     1      42.267  -6.850  15.833  1.00  0.00     0.010 C 
ENDBRANCH  20  23
ENDBRANCH  14  17
ENDBRANCH  12  13
ENDBRANCH  11  12
ENDBRANCH   1  11
BRANCH   6  25
HETATM   25  C   UNL     1      41.683 -13.947   3.863  1.00  0.00    -0.044 A 
HETATM   26  C   UNL     1      42.882 -14.007   3.128  1.00  0.00     0.008 A 
HETATM   27  C   UNL     1      42.862 -14.218   1.750  1.00  0.00     0.001 A 
HETATM   28  C   UNL     1      41.648 -14.375   1.087  1.00  0.00     0.000 A 
HETATM   29  C   UNL     1      40.453 -14.327   1.801  1.00  0.00     0.001 A 
HETATM   30  C   UNL     1      40.467 -14.119   3.181  1.00  0.00     0.008 A 
ENDBRANCH   6  25
BRANCH   5  31
HETATM   31  C   UNL     1      42.097 -16.284   5.632  1.00  0.00     0.255 C 
HETATM   32  N   UNL     1      43.296 -16.876   5.332  1.00  0.00    -0.321 N 
HETATM   33  H   UNL     1      44.147 -16.327   5.356  1.00  0.00     0.169 HD
HETATM   34  O   UNL     1      40.991 -16.808   5.528  1.00  0.00    -0.268 OA
BRANCH  32  35
HETATM   35  C   UNL     1      43.505 -18.251   5.050  1.00  0.00     0.068 A 
HETATM   36  C   UNL     1      43.651 -18.626   3.699  1.00  0.00     0.095 A 
HETATM   37  C   UNL     1      43.910 -19.964   3.373  1.00  0.00     0.039 A 
HETATM   38  C   UNL     1      44.016 -20.928   4.376  1.00  0.00     0.003 A 
HETATM   39  C   UNL     1      43.864 -20.564   5.708  1.00  0.00     0.002 A 
HETATM   40  C   UNL     1      43.612 -19.233   6.042  1.00  0.00     0.032 A 
BRANCH  36  41
HETATM   41  O   UNL     1      43.533 -17.607   2.781  1.00  0.00    -0.354 OA
HETATM   42  C   UNL     1      42.384 -17.647   1.942  1.00  0.00     0.210 C 
ENDBRANCH  36  41
ENDBRANCH  32  35
ENDBRANCH   5  31
TORSDOF 9
ENDMDL
MODEL 2
REMARK VINA RESULT:      -9.0      2.505      3.499
REMARK  9 active torsions:
REMARK  status: ('A' for Active; 'I' for Inactive)
REMARK    1  A    between atoms: C_2  and  C_3 
REMARK    2  A    between atoms: C_6  and  N_7 
REMARK       I    between atoms: N_7  and  C_8 
REMARK    3  A    between atoms: C_8  and  C_9 
REMARK    4  A    between atoms: C_9  and  S_10 
REMARK    5  A    between atoms: S_10  and  C_11 
REMARK    6  A    between atoms: C_15  and  C_16 
REMARK       I    between atoms: C_16  and  N_17 
REMARK    7  A    between atoms: N_17  and  C_18 
REMARK    8  A    between atoms: C_19  and  O_20 
REMARK    9  A    between atoms: C_27  and  C_28 
ROOT
HETATM    1  C   UNL     1      40.351 -10.598   4.461  1.00  0.00     0.087 C 
HETATM    2  N   UNL     1      41.199 -11.155   5.410  1.00  0.00    -0.353 N 
HETATM    3  C   UNL     1      41.801 -12.400   5.286  1.00  0.00     0.019 C 
HETATM    4  C   UNL     1      42.903 -12.700   6.275  1.00  0.00     0.069 C 
HETATM    5  C   UNL     1      41.411 -13.239   4.299  1.00  0.00     0.046 C 
HETATM    6  C   UNL     1      40.178 -12.909   3.460  1.00  0.00     0.104 C 
HETATM    7  C   UNL     1      39.758 -11.432   3.566  1.00  0.00     0.055 C 
HETATM    8  C   UNL     1      38.578 -10.987   2.718  1.00  0.00     0.019 C 
HETATM    9  N   UNL     1      37.599 -10.620   2.013  1.00  0.00    -0.096 N 
HETATM   10  H   UNL     1      41.687 -10.514   6.027  1.00  0.00     0.166 HD
ENDROOT
BRANCH   1  11
HETATM   11  S   UNL     1      40.092  -8.866   4.281  1.00  0.00    -0.102 SA
BRANCH  11  12
HETATM   12  C   UNL     1      41.398  -8.034   5.204  1.00  0.00     0.184 C 
BRANCH  12  13
HETATM   13  C   UNL     1      41.252  -7.902   6.718  1.00  0.00     0.231 C 
HETATM   14  N   UNL     1      42.199  -7.140   7.370  1.00  0.00    -0.327 N 
HETATM   15  H   UNL     1      42.788  -6.555   6.785  1.00  0.00     0.169 HD
HETATM   16  O   UNL     1      40.361  -8.543   7.274  1.00  0.00    -0.272 OA
BRANCH  14  17
HETATM   17  C   UNL     1      42.596  -7.258   8.722  1.00  0.00     0.034 A 
HETATM   18  C   UNL     1      42.108  -6.451   9.752  1.00  0.00     0.030 A 
HETATM   19  C   UNL     1      42.382  -6.758  11.091  1.00  0.00     0.009 A 
HETATM   20  C   UNL     1      43.152  -7.878  11.423  1.00  0.00    -0.058 A 
HETATM   21  C   UNL     1      43.694  -8.648  10.390  1.00  0.00     0.009 A 
HETATM   22  C   UNL     1      43.429  -8.332   9.053  1.00  0.00     0.030 A 
BRANCH  20  23
HETATM   23  C   UNL     1      43.317  -8.294  12.863  1.00  0.00     0.034 C 
HETATM   24  C   UNL     1      43.074  -7.126  13.812  1.00  0.00     0.010 C 
ENDBRANCH  20  23
ENDBRANCH  14  17
ENDBRANCH  12  13
ENDBRANCH  11  12
ENDBRANCH   1  11
BRANCH   6  25
HETATM   25  C   UNL     1      40.293 -13.347   2.001  1.00  0.00    -0.044 A 
HETATM   26  C   UNL     1      40.827 -12.461   1.047  1.00  0.00     0.008 A 
HETATM   27  C   UNL     1      40.918 -12.830  -0.294  1.00  0.00     0.001 A 
HETATM   28  C   UNL     1      40.482 -14.087  -0.701  1.00  0.00     0.000 A 
HETATM   29  C   UNL     1      39.960 -14.979   0.232  1.00  0.00     0.001 A 
HETATM   30  C   UNL     1      39.869 -14.616   1.576  1.00  0.00     0.008 A 
ENDBRANCH   6  25
BRANCH   5  31
HETATM   31  C   UNL     1      42.389 -14.285   3.870  1.00  0.00     0.255 C 
HETATM   32  N   UNL     1      42.116 -15.563   4.282  1.00  0.00    -0.321 N 
HETATM   33  H   UNL     1      41.375 -15.728   4.953  1.00  0.00     0.169 HD
HETATM   34  O   UNL     1      43.328 -13.946   3.155  1.00  0.00    -0.268 OA
BRANCH  32  35
HETATM   35  C   UNL     1      42.728 -16.750   3.798  1.00  0.00     0.068 A 
HETATM   36  C   UNL     1      43.688 -17.371   4.622  1.00  0.00     0.095 A 
HETATM   37  C   UNL     1      44.283 -18.572   4.212  1.00  0.00     0.039 A 
HETATM   38  C   UNL     1      43.939 -19.150   2.990  1.00  0.00     0.003 A 
HETATM   39  C   UNL     1      42.999 -18.536   2.171  1.00  0.00     0.002 A 
HETATM   40  C   UNL     1      42.396 -17.343   2.574  1.00  0.00     0.032 A 
BRANCH  36  41
HETATM   41  O   UNL     1      43.962 -16.729   5.809  1.00  0.00    -0.354 OA
HETATM   42  C   UNL     1      43.508 -17.379   6.992  1.00  0.00     0.210 C 
ENDBRANCH  36  41
ENDBRANCH  32  35
ENDBRANCH   5  31
TORSDOF 9
ENDMDL
MODEL 3
REMARK VINA RESULT:      -9.0      1.190      2.052
REMARK  9 active torsions:
REMARK  status: ('A' for Active; 'I' for Inactive)
REMARK    1  A    between atoms: C_2  and  C_3 
REMARK    2  A    between atoms: C_6  and  N_7 
REMARK       I    between atoms: N_7  and  C_8 
REMARK    3  A    between atoms: C_8  and  C_9 
REMARK    4  A    between atoms: C_9  and  S_10 
REMARK    5  A    between atoms: S_10  and  C_11 
REMARK    6  A    between atoms: C_15  and  C_16 
REMARK       I    between atoms: C_16  and  N_17 
REMARK    7  A    between atoms: N_17  and  C_18 
REMARK    8  A    between atoms: C_19  and  O_20 
REMARK    9  A    between atoms: C_27  and  C_28 
ROOT
HETATM    1  C   UNL     1      42.981 -11.802   6.858  1.00  0.00     0.087 C 
HETATM    2  N   UNL     1      43.221 -13.017   7.487  1.00  0.00    -0.353 N 
HETATM    3  C   UNL     1      42.776 -14.244   7.015  1.00  0.00     0.019 C 
HETATM    4  C   UNL     1      43.379 -15.462   7.676  1.00  0.00     0.069 C 
HETATM    5  C   UNL     1      41.884 -14.288   6.000  1.00  0.00     0.046 C 
HETATM    6  C   UNL     1      41.213 -13.004   5.517  1.00  0.00     0.104 C 
HETATM    7  C   UNL     1      41.951 -11.733   5.975  1.00  0.00     0.055 C 
HETATM    8  C   UNL     1      41.398 -10.402   5.492  1.00  0.00     0.019 C 
HETATM    9  N   UNL     1      40.938  -9.299   5.091  1.00  0.00    -0.096 N 
HETATM   10  H   UNL     1      44.035 -13.072   8.092  1.00  0.00     0.166 HD
ENDROOT
BRANCH   1  11
HETATM   11  S   UNL     1      44.005 -10.383   7.053  1.00  0.00    -0.102 SA
BRANCH  11  12
HETATM   12  C   UNL     1      45.148 -10.733   8.402  1.00  0.00     0.184 C 
BRANCH  12  13
HETATM   13  C   UNL     1      44.628 -10.670   9.835  1.00  0.00     0.231 C 
HETATM   14  N   UNL     1      43.346 -10.194  10.012  1.00  0.00    -0.327 N 
HETATM   15  H   UNL     1      42.772 -10.125   9.178  1.00  0.00     0.169 HD
HETATM   16  O   UNL     1      45.402 -10.962  10.748  1.00  0.00    -0.272 OA
BRANCH  14  17
HETATM   17  C   UNL     1      42.824  -9.576  11.173  1.00  0.00     0.034 A 
HETATM   18  C   UNL     1      41.801 -10.119  11.952  1.00  0.00     0.030 A 
HETATM   19  C   UNL     1      41.481  -9.562  13.197  1.00  0.00     0.009 A 
HETATM   20  C   UNL     1      42.177  -8.450  13.683  1.00  0.00    -0.058 A 
HETATM   21  C   UNL     1      43.157  -7.868  12.873  1.00  0.00     0.009 A 
HETATM   22  C   UNL     1      43.467  -8.418  11.625  1.00  0.00     0.030 A 
BRANCH  20  23
HETATM   23  C   UNL     1      41.937  -7.947  15.084  1.00  0.00     0.034 C 
HETATM   24  C   UNL     1      41.379  -6.528  15.079  1.00  0.00     0.010 C 
ENDBRANCH  20  23
ENDBRANCH  14  17
ENDBRANCH  12  13
ENDBRANCH  11  12
ENDBRANCH   1  11
BRANCH   6  25
HETATM   25  C   UNL     1      40.949 -12.977   4.012  1.00  0.00    -0.044 A 
HETATM   26  C   UNL     1      39.633 -13.106   3.532  1.00  0.00     0.008 A 
HETATM   27  C   UNL     1      39.373 -13.111   2.163  1.00  0.00     0.001 A 
HETATM   28  C   UNL     1      40.419 -12.982   1.254  1.00  0.00     0.000 A 
HETATM   29  C   UNL     1      41.727 -12.844   1.713  1.00  0.00     0.001 A 
HETATM   30  C   UNL     1      41.993 -12.837   3.083  1.00  0.00     0.008 A 
ENDBRANCH   6  25
BRANCH   5  31
HETATM   31  C   UNL     1      41.837 -15.544   5.190  1.00  0.00     0.255 C 
HETATM   32  N   UNL     1      42.975 -15.846   4.489  1.00  0.00    -0.321 N 
HETATM   33  H   UNL     1      43.724 -15.167   4.430  1.00  0.00     0.169 HD
HETATM   34  O   UNL     1      40.820 -16.232   5.241  1.00  0.00    -0.268 OA
BRANCH  32  35
HETATM   35  C   UNL     1      43.275 -17.089   3.870  1.00  0.00     0.068 A 
HETATM   36  C   UNL     1      43.735 -18.135   4.695  1.00  0.00     0.095 A 
HETATM   37  C   UNL     1      43.995 -19.395   4.140  1.00  0.00     0.039 A 
HETATM   38  C   UNL     1      43.811 -19.617   2.775  1.00  0.00     0.003 A 
HETATM   39  C   UNL     1      43.366 -18.586   1.957  1.00  0.00     0.002 A 
HETATM   40  C   UNL     1      43.097 -17.330   2.503  1.00  0.00     0.032 A 
BRANCH  36  41
HETATM   41  O   UNL     1      43.884 -17.822   6.028  1.00  0.00    -0.354 OA
HETATM   42  C   UNL     1      43.456 -18.814   6.956  1.00  0.00     0.210 C 
ENDBRANCH  36  41
ENDBRANCH  32  35
ENDBRANCH   5  31
TORSDOF 9
ENDMDL
MODEL 4
REMARK VINA RESULT:      -8.9      2.448     11.050
REMARK  9 active torsions:
REMARK  status: ('A' for Active; 'I' for Inactive)
REMARK    1  A    between atoms: C_2  and  C_3 
REMARK    2  A    between atoms: C_6  and  N_7 
REMARK       I    between atoms: N_7  and  C_8 
REMARK    3  A    between atoms: C_8  and  C_9 
REMARK    4  A    between atoms: C_9  and  S_10 
REMARK    5  A    between atoms: S_10  and  C_11 
REMARK    6  A    between atoms: C_15  and  C_16 
REMARK       I    between atoms: C_16  and  N_17 
REMARK    7  A    between atoms: N_17  and  C_18 
REMARK    8  A    between atoms: C_19  and  O_20 
REMARK    9  A    between atoms: C_27  and  C_28 
ROOT
HETATM    1  C   UNL     1      42.325 -10.427   5.000  1.00  0.00     0.087 C 
HETATM    2  N   UNL     1      41.467  -9.339   4.913  1.00  0.00    -0.353 N 
HETATM    3  C   UNL     1      41.298  -8.393   5.915  1.00  0.00     0.019 C 
HETATM    4  C   UNL     1      40.547  -7.142   5.520  1.00  0.00     0.069 C 
HETATM    5  C   UNL     1      41.826  -8.612   7.140  1.00  0.00     0.046 C 
HETATM    6  C   UNL     1      42.420  -9.978   7.482  1.00  0.00     0.104 C 
HETATM    7  C   UNL     1      42.725 -10.827   6.236  1.00  0.00     0.055 C 
HETATM    8  C   UNL     1      43.378 -12.180   6.466  1.00  0.00     0.019 C 
HETATM    9  N   UNL     1      43.920 -13.303   6.659  1.00  0.00    -0.096 N 
HETATM   10  H   UNL     1      41.232  -9.008   3.982  1.00  0.00     0.166 HD
ENDROOT
BRANCH   1  11
HETATM   11  S   UNL     1      43.015 -11.240   3.599  1.00  0.00    -0.102 SA
BRANCH  11  12
HETATM   12  C   UNL     1      41.814 -12.468   3.052  1.00  0.00     0.184 C 
BRANCH  12  13
HETATM   13  C   UNL     1      41.865 -13.864   3.667  1.00  0.00     0.231 C 
HETATM   14  N   UNL     1      42.953 -14.647   3.345  1.00  0.00    -0.327 N 
HETATM   15  H   UNL     1      43.736 -14.172   2.907  1.00  0.00     0.169 HD
HETATM   16  O   UNL     1      40.901 -14.239   4.336  1.00  0.00    -0.272 OA
BRANCH  14  17
HETATM   17  C   UNL     1      43.009 -16.060   3.341  1.00  0.00     0.034 A 
HETATM   18  C   UNL     1      42.656 -16.852   2.247  1.00  0.00     0.030 A 
HETATM   19  C   UNL     1      42.936 -18.225   2.240  1.00  0.00     0.009 A 
HETATM   20  C   UNL     1      43.571 -18.831   3.329  1.00  0.00    -0.058 A 
HETATM   21  C   UNL     1      43.865 -18.050   4.451  1.00  0.00     0.009 A 
HETATM   22  C   UNL     1      43.574 -16.681   4.461  1.00  0.00     0.030 A 
BRANCH  20  23
HETATM   23  C   UNL     1      44.009 -20.271   3.258  1.00  0.00     0.034 C 
HETATM   24  C   UNL     1      43.961 -20.937   4.629  1.00  0.00     0.010 C 
ENDBRANCH  20  23
ENDBRANCH  14  17
ENDBRANCH  12  13
ENDBRANCH  11  12
ENDBRANCH   1  11
BRANCH   6  25
HETATM   25  C   UNL     1      43.631  -9.905   8.411  1.00  0.00    -0.044 A 
HETATM   26  C   UNL     1      43.492 -10.258   9.766  1.00  0.00     0.008 A 
HETATM   27  C   UNL     1      44.578 -10.175  10.637  1.00  0.00     0.001 A 
HETATM   28  C   UNL     1      45.815  -9.744  10.168  1.00  0.00     0.000 A 
HETATM   29  C   UNL     1      45.971  -9.400   8.828  1.00  0.00     0.001 A 
HETATM   30  C   UNL     1      44.889  -9.484   7.951  1.00  0.00     0.008 A 
ENDBRANCH   6  25
BRANCH   5  31
HETATM   31  C   UNL     1      42.090  -7.412   7.992  1.00  0.00     0.255 C 
HETATM   32  N   UNL     1      41.360  -7.328   9.149  1.00  0.00    -0.321 N 
HETATM   33  H   UNL     1      40.598  -7.976   9.311  1.00  0.00     0.169 HD
HETATM   34  O   UNL     1      42.956  -6.620   7.630  1.00  0.00    -0.268 OA
BRANCH  32  35
HETATM   35  C   UNL     1      41.606  -6.446  10.234  1.00  0.00     0.068 A 
HETATM   36  C   UNL     1      41.557  -6.984  11.536  1.00  0.00     0.095 A 
HETATM   37  C   UNL     1      41.844  -6.166  12.637  1.00  0.00     0.039 A 
HETATM   38  C   UNL     1      42.166  -4.821  12.453  1.00  0.00     0.003 A 
HETATM   39  C   UNL     1      42.207  -4.285  11.172  1.00  0.00     0.002 A 
HETATM   40  C   UNL     1      41.930  -5.094  10.069  1.00  0.00     0.032 A 
BRANCH  36  41
HETATM   41  O   UNL     1      41.233  -8.320  11.618  1.00  0.00    -0.354 OA
HETATM   42  C   UNL     1      41.637  -8.991  12.807  1.00  0.00     0.210 C 
ENDBRANCH  36  41
ENDBRANCH  32  35
ENDBRANCH   5  31
TORSDOF 9
ENDMDL
MODEL 5
REMARK VINA RESULT:      -8.8      2.812     10.861
REMARK  9 active torsions:
REMARK  status: ('A' for Active; 'I' for Inactive)
REMARK    1  A    between atoms: C_2  and  C_3 
REMARK    2  A    between atoms: C_6  and  N_7 
REMARK       I    between atoms: N_7  and  C_8 
REMARK    3  A    between atoms: C_8  and  C_9 
REMARK    4  A    between atoms: C_9  and  S_10 
REMARK    5  A    between atoms: S_10  and  C_11 
REMARK    6  A    between atoms: C_15  and  C_16 
REMARK       I    between atoms: C_16  and  N_17 
REMARK    7  A    between atoms: N_17  and  C_18 
REMARK    8  A    between atoms: C_19  and  O_20 
REMARK    9  A    between atoms: C_27  and  C_28 
ROOT
HETATM    1  C   UNL     1      41.104  -9.272   5.855  1.00  0.00     0.087 C 
HETATM    2  N   UNL     1      40.042  -8.602   6.447  1.00  0.00    -0.353 N 
HETATM    3  C   UNL     1      40.007  -8.216   7.780  1.00  0.00     0.019 C 
HETATM    4  C   UNL     1      38.904  -7.255   8.158  1.00  0.00     0.069 C 
HETATM    5  C   UNL     1      40.948  -8.674   8.637  1.00  0.00     0.046 C 
HETATM    6  C   UNL     1      41.916  -9.770   8.193  1.00  0.00     0.104 C 
HETATM    7  C   UNL     1      41.973  -9.935   6.664  1.00  0.00     0.055 C 
HETATM    8  C   UNL     1      42.955 -10.957   6.117  1.00  0.00     0.019 C 
HETATM    9  N   UNL     1      43.770 -11.807   5.664  1.00  0.00    -0.096 N 
HETATM   10  H   UNL     1      39.442  -8.056   5.838  1.00  0.00     0.166 HD
ENDROOT
BRANCH   1  11
HETATM   11  S   UNL     1      41.454  -9.215   4.130  1.00  0.00    -0.102 SA
BRANCH  11  12
HETATM   12  C   UNL     1      40.722 -10.686   3.389  1.00  0.00     0.184 C 
BRANCH  12  13
HETATM   13  C   UNL     1      41.649 -11.753   2.813  1.00  0.00     0.231 C 
HETATM   14  N   UNL     1      41.207 -13.058   2.870  1.00  0.00    -0.327 N 
HETATM   15  H   UNL     1      40.225 -13.192   3.088  1.00  0.00     0.169 HD
HETATM   16  O   UNL     1      42.760 -11.403   2.414  1.00  0.00    -0.272 OA
BRANCH  14  17
HETATM   17  C   UNL     1      42.008 -14.223   2.891  1.00  0.00     0.034 A 
HETATM   18  C   UNL     1      42.400 -14.880   4.059  1.00  0.00     0.030 A 
HETATM   19  C   UNL     1      43.010 -16.139   4.000  1.00  0.00     0.009 A 
HETATM   20  C   UNL     1      43.242 -16.763   2.770  1.00  0.00    -0.058 A 
HETATM   21  C   UNL     1      42.908 -16.078   1.598  1.00  0.00     0.009 A 
HETATM   22  C   UNL     1      42.310 -14.814   1.659  1.00  0.00     0.030 A 
BRANCH  20  23
HETATM   23  C   UNL     1      43.756 -18.180   2.713  1.00  0.00     0.034 C 
HETATM   24  C   UNL     1      44.302 -18.628   4.064  1.00  0.00     0.010 C 
ENDBRANCH  20  23
ENDBRANCH  14  17
ENDBRANCH  12  13
ENDBRANCH  11  12
ENDBRANCH   1  11
BRANCH   6  25
HETATM   25  C   UNL     1      43.316  -9.629   8.786  1.00  0.00    -0.044 A 
HETATM   26  C   UNL     1      43.699 -10.437   9.872  1.00  0.00     0.008 A 
HETATM   27  C   UNL     1      44.963 -10.307  10.445  1.00  0.00     0.001 A 
HETATM   28  C   UNL     1      45.863  -9.374   9.941  1.00  0.00     0.000 A 
HETATM   29  C   UNL     1      45.504  -8.572   8.860  1.00  0.00     0.001 A 
HETATM   30  C   UNL     1      44.241  -8.699   8.281  1.00  0.00     0.008 A 
ENDBRANCH   6  25
BRANCH   5  31
HETATM   31  C   UNL     1      41.200  -7.863   9.868  1.00  0.00     0.255 C 
HETATM   32  N   UNL     1      41.052  -8.524  11.059  1.00  0.00    -0.321 N 
HETATM   33  H   UNL     1      40.656  -9.456  11.072  1.00  0.00     0.169 HD
HETATM   34  O   UNL     1      41.558  -6.697   9.732  1.00  0.00    -0.268 OA
BRANCH  32  35
HETATM   35  C   UNL     1      41.481  -8.064  12.332  1.00  0.00     0.068 A 
HETATM   36  C   UNL     1      40.499  -7.888  13.327  1.00  0.00     0.095 A 
HETATM   37  C   UNL     1      40.878  -7.486  14.615  1.00  0.00     0.039 A 
HETATM   38  C   UNL     1      42.220  -7.248  14.914  1.00  0.00     0.003 A 
HETATM   39  C   UNL     1      43.190  -7.411  13.933  1.00  0.00     0.002 A 
HETATM   40  C   UNL     1      42.822  -7.819  12.650  1.00  0.00     0.032 A 
BRANCH  36  41
HETATM   41  O   UNL     1      39.203  -8.149  12.940  1.00  0.00    -0.354 OA
HETATM   42  C   UNL     1      38.297  -7.054  13.008  1.00  0.00     0.210 C 
ENDBRANCH  36  41
ENDBRANCH  32  35
ENDBRANCH   5  31
TORSDOF 9
ENDMDL
MODEL 6
REMARK VINA RESULT:      -8.7      5.725     10.988
REMARK  9 active torsions:
REMARK  status: ('A' for Active; 'I' for Inactive)
REMARK    1  A    between atoms: C_2  and  C_3 
REMARK    2  A    between atoms: C_6  and  N_7 
REMARK       I    between atoms: N_7  and  C_8 
REMARK    3  A    between atoms: C_8  and  C_9 
REMARK    4  A    between atoms: C_9  and  S_10 
REMARK    5  A    between atoms: S_10  and  C_11 
REMARK    6  A    between atoms: C_15  and  C_16 
REMARK       I    between atoms: C_16  and  N_17 
REMARK    7  A    between atoms: N_17  and  C_18 
REMARK    8  A    between atoms: C_19  and  O_20 
REMARK    9  A    between atoms: C_27  and  C_28 
ROOT
HETATM    1  C   UNL     1      40.963 -11.205   1.324  1.00  0.00     0.087 C 
HETATM    2  N   UNL     1      41.664 -10.171   0.716  1.00  0.00    -0.353 N 
HETATM    3  C   UNL     1      41.716  -9.962  -0.655  1.00  0.00     0.019 C 
HETATM    4  C   UNL     1      42.283  -8.633  -1.097  1.00  0.00     0.069 C 
HETATM    5  C   UNL     1      41.240 -10.908  -1.496  1.00  0.00     0.046 C 
HETATM    6  C   UNL     1      40.843 -12.280  -0.956  1.00  0.00     0.104 C 
HETATM    7  C   UNL     1      40.639 -12.287   0.569  1.00  0.00     0.055 C 
HETATM    8  C   UNL     1      40.180 -13.593   1.197  1.00  0.00     0.019 C 
HETATM    9  N   UNL     1      39.800 -14.678   1.717  1.00  0.00    -0.096 N 
HETATM   10  H   UNL     1      41.838  -9.341   1.274  1.00  0.00     0.166 HD
ENDROOT
BRANCH   1  11
HETATM   11  S   UNL     1      40.371 -11.140   2.981  1.00  0.00    -0.102 SA
BRANCH  11  12
HETATM   12  C   UNL     1      41.714 -11.693   4.048  1.00  0.00     0.184 C 
BRANCH  12  13
HETATM   13  C   UNL     1      41.824 -13.179   4.376  1.00  0.00     0.231 C 
HETATM   14  N   UNL     1      42.907 -13.854   3.853  1.00  0.00    -0.327 N 
HETATM   15  H   UNL     1      43.655 -13.282   3.476  1.00  0.00     0.169 HD
HETATM   16  O   UNL     1      40.906 -13.704   5.007  1.00  0.00    -0.272 OA
BRANCH  14  17
HETATM   17  C   UNL     1      42.988 -15.238   3.571  1.00  0.00     0.034 A 
HETATM   18  C   UNL     1      43.016 -15.771   2.281  1.00  0.00     0.030 A 
HETATM   19  C   UNL     1      43.309 -17.126   2.075  1.00  0.00     0.009 A 
HETATM   20  C   UNL     1      43.576 -17.971   3.157  1.00  0.00    -0.058 A 
HETATM   21  C   UNL     1      43.484 -17.452   4.451  1.00  0.00     0.009 A 
HETATM   22  C   UNL     1      43.179 -16.101   4.656  1.00  0.00     0.030 A 
BRANCH  20  23
HETATM   23  C   UNL     1      44.041 -19.387   2.927  1.00  0.00     0.034 C 
HETATM   24  C   UNL     1      43.134 -20.118   1.942  1.00  0.00     0.010 C 
ENDBRANCH  20  23
ENDBRANCH  14  17
ENDBRANCH  12  13
ENDBRANCH  11  12
ENDBRANCH   1  11
BRANCH   6  25
HETATM   25  C   UNL     1      39.647 -12.901  -1.676  1.00  0.00    -0.044 A 
HETATM   26  C   UNL     1      39.837 -14.022  -2.505  1.00  0.00     0.008 A 
HETATM   27  C   UNL     1      38.764 -14.588  -3.192  1.00  0.00     0.001 A 
HETATM   28  C   UNL     1      37.488 -14.048  -3.058  1.00  0.00     0.000 A 
HETATM   29  C   UNL     1      37.282 -12.945  -2.234  1.00  0.00     0.001 A 
HETATM   30  C   UNL     1      38.352 -12.375  -1.543  1.00  0.00     0.008 A 
ENDBRANCH   6  25
BRANCH   5  31
HETATM   31  C   UNL     1      40.827 -10.457  -2.861  1.00  0.00     0.255 C 
HETATM   32  N   UNL     1      39.884  -9.464  -2.903  1.00  0.00    -0.321 N 
HETATM   33  H   UNL     1      39.413  -9.181  -2.052  1.00  0.00     0.169 HD
HETATM   34  O   UNL     1      41.380 -10.964  -3.834  1.00  0.00    -0.268 OA
BRANCH  32  35
HETATM   35  C   UNL     1      39.526  -8.695  -4.041  1.00  0.00     0.068 A 
HETATM   36  C   UNL     1      38.245  -8.902  -4.593  1.00  0.00     0.095 A 
HETATM   37  C   UNL     1      37.826  -8.130  -5.685  1.00  0.00     0.039 A 
HETATM   38  C   UNL     1      38.671  -7.167  -6.236  1.00  0.00     0.003 A 
HETATM   39  C   UNL     1      39.937  -6.965  -5.701  1.00  0.00     0.002 A 
HETATM   40  C   UNL     1      40.361  -7.724  -4.608  1.00  0.00     0.032 A 
BRANCH  36  41
HETATM   41  O   UNL     1      37.482  -9.871  -3.982  1.00  0.00    -0.354 OA
HETATM   42  C   UNL     1      36.192  -9.466  -3.539  1.00  0.00     0.210 C 
ENDBRANCH  36  41
ENDBRANCH  32  35
ENDBRANCH   5  31
TORSDOF 9
ENDMDL
MODEL 7
REMARK VINA RESULT:      -8.7      3.071     11.013
REMARK  9 active torsions:
REMARK  status: ('A' for Active; 'I' for Inactive)
REMARK    1  A    between atoms: C_2  and  C_3 
REMARK    2  A    between atoms: C_6  and  N_7 
REMARK       I    between atoms: N_7  and  C_8 
REMARK    3  A    between atoms: C_8  and  C_9 
REMARK    4  A    between atoms: C_9  and  S_10 
REMARK    5  A    between atoms: S_10  and  C_11 
REMARK    6  A    between atoms: C_15  and  C_16 
REMARK       I    between atoms: C_16  and  N_17 
REMARK    7  A    between atoms: N_17  and  C_18 
REMARK    8  A    between atoms: C_19  and  O_20 
REMARK    9  A    between atoms: C_27  and  C_28 
ROOT
HETATM    1  C   UNL     1      41.407 -10.846   6.341  1.00  0.00     0.087 C 
HETATM    2  N   UNL     1      42.556 -11.049   7.093  1.00  0.00    -0.353 N 
HETATM    3  C   UNL     1      43.167 -10.073   7.869  1.00  0.00     0.019 C 
HETATM    4  C   UNL     1      44.227 -10.563   8.829  1.00  0.00     0.069 C 
HETATM    5  C   UNL     1      42.772  -8.785   7.759  1.00  0.00     0.046 C 
HETATM    6  C   UNL     1      41.813  -8.373   6.643  1.00  0.00     0.104 C 
HETATM    7  C   UNL     1      41.073  -9.568   6.018  1.00  0.00     0.055 C 
HETATM    8  C   UNL     1      40.048  -9.257   4.940  1.00  0.00     0.019 C 
HETATM    9  N   UNL     1      39.197  -8.998   4.045  1.00  0.00    -0.096 N 
HETATM   10  H   UNL     1      42.756 -12.001   7.385  1.00  0.00     0.166 HD
ENDROOT
BRANCH   1  11
HETATM   11  S   UNL     1      40.298 -12.135   5.884  1.00  0.00    -0.102 SA
BRANCH  11  12
HETATM   12  C   UNL     1      41.024 -12.984   4.469  1.00  0.00     0.184 C 
BRANCH  12  13
HETATM   13  C   UNL     1      41.430 -14.447   4.624  1.00  0.00     0.231 C 
HETATM   14  N   UNL     1      42.711 -14.782   4.238  1.00  0.00    -0.327 N 
HETATM   15  H   UNL     1      43.352 -14.010   4.086  1.00  0.00     0.169 HD
HETATM   16  O   UNL     1      40.575 -15.251   4.997  1.00  0.00    -0.272 OA
BRANCH  14  17
HETATM   17  C   UNL     1      43.161 -16.051   3.807  1.00  0.00     0.034 A 
HETATM   18  C   UNL     1      43.782 -16.984   4.640  1.00  0.00     0.030 A 
HETATM   19  C   UNL     1      44.009 -18.294   4.200  1.00  0.00     0.009 A 
HETATM   20  C   UNL     1      43.623 -18.694   2.916  1.00  0.00    -0.058 A 
HETATM   21  C   UNL     1      43.061 -17.742   2.059  1.00  0.00     0.009 A 
HETATM   22  C   UNL     1      42.846 -16.430   2.497  1.00  0.00     0.030 A 
BRANCH  20  23
HETATM   23  C   UNL     1      43.728 -20.139   2.499  1.00  0.00     0.034 C 
HETATM   24  C   UNL     1      43.893 -21.056   3.705  1.00  0.00     0.010 C 
ENDBRANCH  20  23
ENDBRANCH  14  17
ENDBRANCH  12  13
ENDBRANCH  11  12
ENDBRANCH   1  11
BRANCH   6  25
HETATM   25  C   UNL     1      40.837  -7.270   7.049  1.00  0.00    -0.044 A 
HETATM   26  C   UNL     1      39.675  -7.599   7.771  1.00  0.00     0.008 A 
HETATM   27  C   UNL     1      38.757  -6.612   8.130  1.00  0.00     0.001 A 
HETATM   28  C   UNL     1      38.988  -5.286   7.777  1.00  0.00     0.000 A 
HETATM   29  C   UNL     1      40.137  -4.943   7.070  1.00  0.00     0.001 A 
HETATM   30  C   UNL     1      41.061  -5.926   6.711  1.00  0.00     0.008 A 
ENDBRANCH   6  25
BRANCH   5  31
HETATM   31  C   UNL     1      43.042  -7.888   8.925  1.00  0.00     0.255 C 
HETATM   32  N   UNL     1      42.258  -8.093  10.030  1.00  0.00    -0.321 N 
HETATM   33  H   UNL     1      41.462  -8.716   9.974  1.00  0.00     0.169 HD
HETATM   34  O   UNL     1      43.959  -7.076   8.835  1.00  0.00    -0.268 OA
BRANCH  32  35
HETATM   35  C   UNL     1      42.485  -7.567  11.329  1.00  0.00     0.068 A 
HETATM   36  C   UNL     1      41.928  -6.308  11.631  1.00  0.00     0.095 A 
HETATM   37  C   UNL     1      42.081  -5.770  12.915  1.00  0.00     0.039 A 
HETATM   38  C   UNL     1      42.790  -6.467  13.894  1.00  0.00     0.003 A 
HETATM   39  C   UNL     1      43.349  -7.704  13.598  1.00  0.00     0.002 A 
HETATM   40  C   UNL     1      43.196  -8.251  12.323  1.00  0.00     0.032 A 
BRANCH  36  41
HETATM   41  O   UNL     1      41.244  -5.697  10.604  1.00  0.00    -0.354 OA
HETATM   42  C   UNL     1      40.516  -4.523  10.947  1.00  0.00     0.210 C 
ENDBRANCH  36  41
ENDBRANCH  32  35
ENDBRANCH   5  31
TORSDOF 9
ENDMDL
MODEL 8
REMARK VINA RESULT:      -8.6      4.608      8.692
REMARK  9 active torsions:
REMARK  status: ('A' for Active; 'I' for Inactive)
REMARK    1  A    between atoms: C_2  and  C_3 
REMARK    2  A    between atoms: C_6  and  N_7 
REMARK       I    between atoms: N_7  and  C_8 
REMARK    3  A    between atoms: C_8  and  C_9 
REMARK    4  A    between atoms: C_9  and  S_10 
REMARK    5  A    between atoms: S_10  and  C_11 
REMARK    6  A    between atoms: C_15  and  C_16 
REMARK       I    between atoms: C_16  and  N_17 
REMARK    7  A    between atoms: N_17  and  C_18 
REMARK    8  A    between atoms: C_19  and  O_20 
REMARK    9  A    between atoms: C_27  and  C_28 
ROOT
HETATM    1  C   UNL     1      39.809 -10.501   4.164  1.00  0.00     0.087 C 
HETATM    2  N   UNL     1      40.619 -11.006   5.172  1.00  0.00    -0.353 N 
HETATM    3  C   UNL     1      41.292 -12.219   5.101  1.00  0.00     0.019 C 
HETATM    4  C   UNL     1      42.340 -12.453   6.164  1.00  0.00     0.069 C 
HETATM    5  C   UNL     1      41.012 -13.084   4.100  1.00  0.00     0.046 C 
HETATM    6  C   UNL     1      39.822 -12.825   3.178  1.00  0.00     0.104 C 
HETATM    7  C   UNL     1      39.321 -11.371   3.240  1.00  0.00     0.055 C 
HETATM    8  C   UNL     1      38.178 -10.995   2.311  1.00  0.00     0.019 C 
HETATM    9  N   UNL     1      37.230 -10.685   1.540  1.00  0.00    -0.096 N 
HETATM   10  H   UNL     1      41.031 -10.336   5.814  1.00  0.00     0.166 HD
ENDROOT
BRANCH   1  11
HETATM   11  S   UNL     1      39.473  -8.786   3.948  1.00  0.00    -0.102 SA
BRANCH  11  12
HETATM   12  C   UNL     1      40.745  -8.129   2.853  1.00  0.00     0.184 C 
BRANCH  12  13
HETATM   13  C   UNL     1      40.545  -8.251   1.345  1.00  0.00     0.231 C 
HETATM   14  N   UNL     1      41.599  -8.760   0.617  1.00  0.00    -0.327 N 
HETATM   15  H   UNL     1      42.337  -9.212   1.147  1.00  0.00     0.169 HD
HETATM   16  O   UNL     1      39.501  -7.813   0.860  1.00  0.00    -0.272 OA
BRANCH  14  17
HETATM   17  C   UNL     1      41.880  -8.520  -0.749  1.00  0.00     0.034 A 
HETATM   18  C   UNL     1      41.153  -9.073  -1.804  1.00  0.00     0.030 A 
HETATM   19  C   UNL     1      41.352  -8.627  -3.118  1.00  0.00     0.009 A 
HETATM   20  C   UNL     1      42.284  -7.623  -3.399  1.00  0.00    -0.058 A 
HETATM   21  C   UNL     1      43.058  -7.116  -2.350  1.00  0.00     0.009 A 
HETATM   22  C   UNL     1      42.866  -7.571  -1.041  1.00  0.00     0.030 A 
BRANCH  20  23
HETATM   23  C   UNL     1      42.387  -7.038  -4.784  1.00  0.00     0.034 C 
HETATM   24  C   UNL     1      41.136  -7.330  -5.606  1.00  0.00     0.010 C 
ENDBRANCH  20  23
ENDBRANCH  14  17
ENDBRANCH  12  13
ENDBRANCH  11  12
ENDBRANCH   1  11
BRANCH   6  25
HETATM   25  C   UNL     1      40.057 -13.266   1.734  1.00  0.00    -0.044 A 
HETATM   26  C   UNL     1      40.599 -12.358   0.807  1.00  0.00     0.008 A 
HETATM   27  C   UNL     1      40.798 -12.731  -0.522  1.00  0.00     0.001 A 
HETATM   28  C   UNL     1      40.463 -14.015  -0.942  1.00  0.00     0.000 A 
HETATM   29  C   UNL     1      39.934 -14.929  -0.034  1.00  0.00     0.001 A 
HETATM   30  C   UNL     1      39.735 -14.562   1.298  1.00  0.00     0.008 A 
ENDBRANCH   6  25
BRANCH   5  31
HETATM   31  C   UNL     1      42.070 -14.080   3.747  1.00  0.00     0.255 C 
HETATM   32  N   UNL     1      41.849 -15.363   4.176  1.00  0.00    -0.321 N 
HETATM   33  H   UNL     1      41.085 -15.556   4.812  1.00  0.00     0.169 HD
HETATM   34  O   UNL     1      43.024 -13.702   3.072  1.00  0.00    -0.268 OA
BRANCH  32  35
HETATM   35  C   UNL     1      42.552 -16.522   3.754  1.00  0.00     0.068 A 
HETATM   36  C   UNL     1      43.524 -17.050   4.628  1.00  0.00     0.095 A 
HETATM   37  C   UNL     1      44.208 -18.222   4.279  1.00  0.00     0.039 A 
HETATM   38  C   UNL     1      43.942 -18.862   3.069  1.00  0.00     0.003 A 
HETATM   39  C   UNL     1      42.992 -18.340   2.200  1.00  0.00     0.002 A 
HETATM   40  C   UNL     1      42.300 -17.177   2.542  1.00  0.00     0.032 A 
BRANCH  36  41
HETATM   41  O   UNL     1      43.716 -16.352   5.799  1.00  0.00    -0.354 OA
HETATM   42  C   UNL     1      43.480 -17.072   7.004  1.00  0.00     0.210 C 
ENDBRANCH  36  41
ENDBRANCH  32  35
ENDBRANCH   5  31
TORSDOF 9
ENDMDL
MODEL 9
REMARK VINA RESULT:      -8.5      5.078      9.144
REMARK  9 active torsions:
REMARK  status: ('A' for Active; 'I' for Inactive)
REMARK    1  A    between atoms: C_2  and  C_3 
REMARK    2  A    between atoms: C_6  and  N_7 
REMARK       I    between atoms: N_7  and  C_8 
REMARK    3  A    between atoms: C_8  and  C_9 
REMARK    4  A    between atoms: C_9  and  S_10 
REMARK    5  A    between atoms: S_10  and  C_11 
REMARK    6  A    between atoms: C_15  and  C_16 
REMARK       I    between atoms: C_16  and  N_17 
REMARK    7  A    between atoms: N_17  and  C_18 
REMARK    8  A    between atoms: C_19  and  O_20 
REMARK    9  A    between atoms: C_27  and  C_28 
ROOT
HETATM    1  C   UNL     1      39.411 -11.749   0.009  1.00  0.00     0.087 C 
HETATM    2  N   UNL     1      39.105 -10.925   1.084  1.00  0.00    -0.353 N 
HETATM    3  C   UNL     1      39.364 -11.241   2.410  1.00  0.00     0.019 C 
HETATM    4  C   UNL     1      39.224 -10.105   3.397  1.00  0.00     0.069 C 
HETATM    5  C   UNL     1      39.750 -12.495   2.738  1.00  0.00     0.046 C 
HETATM    6  C   UNL     1      39.698 -13.608   1.692  1.00  0.00     0.104 C 
HETATM    7  C   UNL     1      39.603 -13.072   0.253  1.00  0.00     0.055 C 
HETATM    8  C   UNL     1      39.610 -14.100  -0.867  1.00  0.00     0.019 C 
HETATM    9  N   UNL     1      39.615 -14.954  -1.795  1.00  0.00    -0.096 N 
HETATM   10  H   UNL     1      39.032  -9.929   0.898  1.00  0.00     0.166 HD
ENDROOT
BRANCH   1  11
HETATM   11  S   UNL     1      39.678 -11.159  -1.628  1.00  0.00    -0.102 SA
BRANCH  11  12
HETATM   12  C   UNL     1      41.353 -10.497  -1.689  1.00  0.00     0.184 C 
BRANCH  12  13
HETATM   13  C   UNL     1      41.691  -9.282  -0.828  1.00  0.00     0.231 C 
HETATM   14  N   UNL     1      41.599  -8.046  -1.431  1.00  0.00    -0.327 N 
HETATM   15  H   UNL     1      41.114  -8.015  -2.323  1.00  0.00     0.169 HD
HETATM   16  O   UNL     1      42.104  -9.478   0.316  1.00  0.00    -0.272 OA
BRANCH  14  17
HETATM   17  C   UNL     1      42.300  -6.872  -1.070  1.00  0.00     0.034 A 
HETATM   18  C   UNL     1      41.928  -6.034  -0.017  1.00  0.00     0.030 A 
HETATM   19  C   UNL     1      42.782  -5.012   0.417  1.00  0.00     0.009 A 
HETATM   20  C   UNL     1      44.022  -4.808  -0.196  1.00  0.00    -0.058 A 
HETATM   21  C   UNL     1      44.367  -5.606  -1.291  1.00  0.00     0.009 A 
HETATM   22  C   UNL     1      43.507  -6.619  -1.732  1.00  0.00     0.030 A 
BRANCH  20  23
HETATM   23  C   UNL     1      45.003  -3.812   0.369  1.00  0.00     0.034 C 
HETATM   24  C   UNL     1      45.573  -2.912  -0.721  1.00  0.00     0.010 C 
ENDBRANCH  20  23
ENDBRANCH  14  17
ENDBRANCH  12  13
ENDBRANCH  11  12
ENDBRANCH   1  11
BRANCH   6  25
HETATM   25  C   UNL     1      40.825 -14.630   1.828  1.00  0.00    -0.044 A 
HETATM   26  C   UNL     1      40.550 -15.903   2.360  1.00  0.00     0.008 A 
HETATM   27  C   UNL     1      41.568 -16.843   2.517  1.00  0.00     0.001 A 
HETATM   28  C   UNL     1      42.871 -16.528   2.141  1.00  0.00     0.000 A 
HETATM   29  C   UNL     1      43.157 -15.276   1.604  1.00  0.00     0.001 A 
HETATM   30  C   UNL     1      42.142 -14.332   1.443  1.00  0.00     0.008 A 
ENDBRANCH   6  25
BRANCH   5  31
HETATM   31  C   UNL     1      40.508 -12.661   4.016  1.00  0.00     0.255 C 
HETATM   32  N   UNL     1      41.780 -12.152   4.027  1.00  0.00    -0.321 N 
HETATM   33  H   UNL     1      42.198 -11.825   3.164  1.00  0.00     0.169 HD
HETATM   34  O   UNL     1      39.938 -13.191   4.966  1.00  0.00    -0.268 OA
BRANCH  32  35
HETATM   35  C   UNL     1      42.593 -11.950   5.173  1.00  0.00     0.068 A 
HETATM   36  C   UNL     1      43.351 -13.043   5.637  1.00  0.00     0.095 A 
HETATM   37  C   UNL     1      44.208 -12.879   6.734  1.00  0.00     0.039 A 
HETATM   38  C   UNL     1      44.307 -11.644   7.375  1.00  0.00     0.003 A 
HETATM   39  C   UNL     1      43.555 -10.566   6.926  1.00  0.00     0.002 A 
HETATM   40  C   UNL     1      42.704 -10.718   5.830  1.00  0.00     0.032 A 
BRANCH  36  41
HETATM   41  O   UNL     1      43.190 -14.220   4.941  1.00  0.00    -0.354 OA
HETATM   42  C   UNL     1      43.020 -15.395   5.726  1.00  0.00     0.210 C 
ENDBRANCH  36  41
ENDBRANCH  32  35
ENDBRANCH   5  31
TORSDOF 9
ENDMDL
MODEL 10
REMARK VINA RESULT:      -8.5      4.271      9.333
REMARK  9 active torsions:
REMARK  status: ('A' for Active; 'I' for Inactive)
REMARK    1  A    between atoms: C_2  and  C_3 
REMARK    2  A    between atoms: C_6  and  N_7 
REMARK       I    between atoms: N_7  and  C_8 
REMARK    3  A    between atoms: C_8  and  C_9 
REMARK    4  A    between atoms: C_9  and  S_10 
REMARK    5  A    between atoms: S_10  and  C_11 
REMARK    6  A    between atoms: C_15  and  C_16 
REMARK       I    between atoms: C_16  and  N_17 
REMARK    7  A    between atoms: N_17  and  C_18 
REMARK    8  A    between atoms: C_19  and  O_20 
REMARK    9  A    between atoms: C_27  and  C_28 
ROOT
HETATM    1  C   UNL     1      42.235 -12.488   4.556  1.00  0.00     0.087 C 
HETATM    2  N   UNL     1      42.207 -13.411   3.519  1.00  0.00    -0.353 N 
HETATM    3  C   UNL     1      41.408 -13.295   2.389  1.00  0.00     0.019 C 
HETATM    4  C   UNL     1      41.731 -14.241   1.256  1.00  0.00     0.069 C 
HETATM    5  C   UNL     1      40.441 -12.351   2.346  1.00  0.00     0.046 C 
HETATM    6  C   UNL     1      40.089 -11.560   3.604  1.00  0.00     0.104 C 
HETATM    7  C   UNL     1      41.177 -11.644   4.689  1.00  0.00     0.055 C 
HETATM    8  C   UNL     1      40.950 -10.839   5.958  1.00  0.00     0.019 C 
HETATM    9  N   UNL     1      40.761 -10.170   7.010  1.00  0.00    -0.096 N 
HETATM   10  H   UNL     1      43.033 -13.988   3.391  1.00  0.00     0.166 HD
ENDROOT
BRANCH   1  11
HETATM   11  S   UNL     1      43.611 -12.270   5.632  1.00  0.00    -0.102 SA
BRANCH  11  12
HETATM   12  C   UNL     1      43.420 -13.447   6.984  1.00  0.00     0.184 C 
BRANCH  12  13
HETATM   13  C   UNL     1      43.120 -14.905   6.647  1.00  0.00     0.231 C 
HETATM   14  N   UNL     1      43.929 -15.506   5.706  1.00  0.00    -0.327 N 
HETATM   15  H   UNL     1      44.785 -15.015   5.468  1.00  0.00     0.169 HD
HETATM   16  O   UNL     1      42.132 -15.429   7.163  1.00  0.00    -0.272 OA
BRANCH  14  17
HETATM   17  C   UNL     1      43.592 -16.598   4.872  1.00  0.00     0.034 A 
HETATM   18  C   UNL     1      42.671 -16.525   3.826  1.00  0.00     0.030 A 
HETATM   19  C   UNL     1      42.544 -17.580   2.912  1.00  0.00     0.009 A 
HETATM   20  C   UNL     1      43.335 -18.727   3.031  1.00  0.00    -0.058 A 
HETATM   21  C   UNL     1      44.212 -18.826   4.116  1.00  0.00     0.009 A 
HETATM   22  C   UNL     1      44.328 -17.777   5.035  1.00  0.00     0.030 A 
BRANCH  20  23
HETATM   23  C   UNL     1      43.308 -19.791   1.963  1.00  0.00     0.034 C 
HETATM   24  C   UNL     1      44.134 -21.007   2.368  1.00  0.00     0.010 C 
ENDBRANCH  20  23
ENDBRANCH  14  17
ENDBRANCH  12  13
ENDBRANCH  11  12
ENDBRANCH   1  11
BRANCH   6  25
HETATM   25  C   UNL     1      39.695 -10.111   3.328  1.00  0.00    -0.044 A 
HETATM   26  C   UNL     1      38.336  -9.746   3.322  1.00  0.00     0.008 A 
HETATM   27  C   UNL     1      37.952  -8.434   3.047  1.00  0.00     0.001 A 
HETATM   28  C   UNL     1      38.918  -7.468   2.779  1.00  0.00     0.000 A 
HETATM   29  C   UNL     1      40.267  -7.811   2.790  1.00  0.00     0.001 A 
HETATM   30  C   UNL     1      40.657  -9.122   3.067  1.00  0.00     0.008 A 
ENDBRANCH   6  25
BRANCH   5  31
HETATM   31  C   UNL     1      39.985 -11.907   0.993  1.00  0.00     0.255 C 
HETATM   32  N   UNL     1      38.715 -12.282   0.637  1.00  0.00    -0.321 N 
HETATM   33  H   UNL     1      38.205 -12.940   1.215  1.00  0.00     0.169 HD
HETATM   34  O   UNL     1      40.743 -11.212   0.322  1.00  0.00    -0.268 OA
BRANCH  32  35
HETATM   35  C   UNL     1      37.967 -11.776  -0.458  1.00  0.00     0.068 A 
HETATM   36  C   UNL     1      37.897 -12.566  -1.623  1.00  0.00     0.095 A 
HETATM   37  C   UNL     1      37.128 -12.134  -2.711  1.00  0.00     0.039 A 
HETATM   38  C   UNL     1      36.440 -10.922  -2.653  1.00  0.00     0.003 A 
HETATM   39  C   UNL     1      36.513 -10.135  -1.510  1.00  0.00     0.002 A 
HETATM   40  C   UNL     1      37.270 -10.562  -0.418  1.00  0.00     0.032 A 
BRANCH  36  41
HETATM   41  O   UNL     1      38.607 -13.746  -1.587  1.00  0.00    -0.354 OA
HETATM   42  C   UNL     1      39.681 -13.859  -2.513  1.00  0.00     0.210 C 
ENDBRANCH  36  41
ENDBRANCH  32  35
ENDBRANCH   5  31
TORSDOF 9
ENDMDL
