MODEL 1
REMARK VINA RESULT:      -8.9      0.000      0.000
REMARK  4 active torsions:
REMARK  status: ('A' for Active; 'I' for Inactive)
REMARK    1  A    between atoms: C_6  and  C_7 
REMARK    2  A    between atoms: C_7  and  C_8 
REMARK    3  A    between atoms: N_10  and  C_11 
REMARK    4  A    between atoms: C_19  and  C_20 
ROOT
HETATM    1  C   UNL     1      42.840 -14.140   4.948  1.00  0.00     0.149 A 
HETATM    2  N   UNL     1      43.193 -15.415   5.093  1.00  0.00    -0.150 NA
HETATM    3  N   UNL     1      42.807 -15.985   3.921  1.00  0.00    -0.218 N 
HETATM    4  C   UNL     1      42.097 -15.034   3.183  1.00  0.00     0.136 A 
HETATM    5  N   UNL     1      42.170 -13.860   3.792  1.00  0.00    -0.216 NA
ENDROOT
BRANCH   1   6
HETATM    6  C   UNL     1      43.097 -13.130   6.012  1.00  0.00     0.087 C 
BRANCH   6   7
HETATM    7  C   UNL     1      43.566 -11.755   5.484  1.00  0.00    -0.004 C 
HETATM    8  C   UNL     1      45.072 -11.486   5.656  1.00  0.00     0.032 C 
HETATM    9  C   UNL     1      45.479 -11.272   7.109  1.00  0.00     0.234 C 
HETATM   10  N   UNL     1      44.672 -10.131   7.683  1.00  0.00    -0.075 N 
HETATM   11  C   UNL     1      45.108  -9.800   9.089  1.00  0.00     0.269 C 
HETATM   12  H   UNL     1      44.885  -9.292   7.123  1.00  0.00     0.279 HD
HETATM   13  C   UNL     1      43.185 -10.360   7.604  1.00  0.00     0.234 C 
HETATM   14  C   UNL     1      42.778 -10.612   6.152  1.00  0.00     0.032 C 
ENDBRANCH   6   7
ENDBRANCH   1   6
BRANCH   3  15
HETATM   15  C   UNL     1      43.157 -17.336   3.645  1.00  0.00     0.062 A 
HETATM   16  C   UNL     1      43.575 -18.216   4.650  1.00  0.00     0.058 A 
HETATM   17  C   UNL     1      43.908 -19.540   4.330  1.00  0.00     0.074 A 
HETATM   18 CL   UNL     1      44.422 -20.594   5.590  1.00  0.00    -0.081 Cl
HETATM   19  C   UNL     1      43.815 -19.989   3.017  1.00  0.00     0.138 A 
HETATM   20  F   UNL     1      44.133 -21.251   2.698  1.00  0.00    -0.204 F 
HETATM   21  C   UNL     1      43.378 -19.133   2.014  1.00  0.00     0.046 A 
HETATM   22  C   UNL     1      43.040 -17.812   2.326  1.00  0.00     0.035 A 
ENDBRANCH   3  15
BRANCH   4  23
HETATM   23  C   UNL     1      41.252 -15.288   1.966  1.00  0.00     0.084 C 
HETATM   24  C   UNL     1      39.802 -15.587   2.355  1.00  0.00     0.244 C 
HETATM   25  N   UNL     1      39.228 -14.231   2.631  1.00  0.00    -0.074 N 
HETATM   26  H   UNL     1      38.204 -14.196   2.525  1.00  0.00     0.277 HD
HETATM   27  H   UNL     1      39.444 -14.004   3.617  1.00  0.00     0.277 HD
HETATM   28  C   UNL     1      39.946 -13.242   1.764  1.00  0.00     0.233 C 
HETATM   29  C   UNL     1      41.084 -14.028   1.120  1.00  0.00     0.041 C 
ENDBRANCH   4  23
TORSDOF 4
ENDMDL
MODEL 2
REMARK VINA RESULT:      -8.5      2.362      5.843
REMARK  4 active torsions:
REMARK  status: ('A' for Active; 'I' for Inactive)
REMARK    1  A    between atoms: C_6  and  C_7 
REMARK    2  A    between atoms: C_7  and  C_8 
REMARK    3  A    between atoms: N_10  and  C_11 
REMARK    4  A    between atoms: C_19  and  C_20 
ROOT
HETATM    1  C   UNL     1      41.764 -14.202   2.000  1.00  0.00     0.149 A 
HETATM    2  N   UNL     1      42.388 -15.372   1.884  1.00  0.00    -0.150 NA
HETATM    3  N   UNL     1      42.561 -15.767   3.173  1.00  0.00    -0.218 N 
HETATM    4  C   UNL     1      42.156 -14.724   4.009  1.00  0.00     0.136 A 
HETATM    5  N   UNL     1      41.596 -13.768   3.283  1.00  0.00    -0.216 NA
ENDROOT
BRANCH   1   6
HETATM    6  C   UNL     1      41.358 -13.409   0.806  1.00  0.00     0.087 C 
BRANCH   6   7
HETATM    7  C   UNL     1      39.898 -13.643   0.354  1.00  0.00    -0.004 C 
HETATM    8  C   UNL     1      39.755 -14.214  -1.068  1.00  0.00     0.032 C 
HETATM    9  C   UNL     1      40.124 -13.212  -2.155  1.00  0.00     0.234 C 
HETATM   10  N   UNL     1      39.270 -11.977  -1.997  1.00  0.00    -0.075 N 
HETATM   11  C   UNL     1      39.514 -10.990  -3.111  1.00  0.00     0.269 C 
HETATM   12  H   UNL     1      38.287 -12.268  -2.096  1.00  0.00     0.279 HD
HETATM   13  C   UNL     1      39.412 -11.329  -0.643  1.00  0.00     0.234 C 
HETATM   14  C   UNL     1      39.078 -12.342   0.451  1.00  0.00     0.032 C 
ENDBRANCH   6   7
ENDBRANCH   1   6
BRANCH   3  15
HETATM   15  C   UNL     1      43.075 -17.065   3.450  1.00  0.00     0.062 A 
HETATM   16  C   UNL     1      43.081 -18.083   2.489  1.00  0.00     0.058 A 
HETATM   17  C   UNL     1      43.599 -19.345   2.807  1.00  0.00     0.074 A 
HETATM   18 CL   UNL     1      43.588 -20.575   1.603  1.00  0.00    -0.081 Cl
HETATM   19  C   UNL     1      44.120 -19.591   4.074  1.00  0.00     0.138 A 
HETATM   20  F   UNL     1      44.616 -20.794   4.391  1.00  0.00    -0.204 F 
HETATM   21  C   UNL     1      44.143 -18.582   5.029  1.00  0.00     0.046 A 
HETATM   22  C   UNL     1      43.631 -17.319   4.717  1.00  0.00     0.035 A 
ENDBRANCH   3  15
BRANCH   4  23
HETATM   23  C   UNL     1      42.421 -14.600   5.485  1.00  0.00     0.084 C 
HETATM   24  C   UNL     1      42.362 -13.138   5.933  1.00  0.00     0.244 C 
HETATM   25  N   UNL     1      40.892 -12.865   6.041  1.00  0.00    -0.074 N 
HETATM   26  H   UNL     1      40.671 -12.091   6.685  1.00  0.00     0.277 HD
HETATM   27  H   UNL     1      40.564 -12.588   5.100  1.00  0.00     0.277 HD
HETATM   28  C   UNL     1      40.212 -14.149   6.406  1.00  0.00     0.233 C 
HETATM   29  C   UNL     1      41.298 -15.217   6.316  1.00  0.00     0.041 C 
ENDBRANCH   4  23
TORSDOF 4
ENDMDL
MODEL 3
REMARK VINA RESULT:      -8.4      2.687      6.347
REMARK  4 active torsions:
REMARK  status: ('A' for Active; 'I' for Inactive)
REMARK    1  A    between atoms: C_6  and  C_7 
REMARK    2  A    between atoms: C_7  and  C_8 
REMARK    3  A    between atoms: N_10  and  C_11 
REMARK    4  A    between atoms: C_19  and  C_20 
ROOT
HETATM    1  C   UNL     1      40.745 -14.256   1.450  1.00  0.00     0.149 A 
HETATM    2  N   UNL     1      41.272 -15.472   1.563  1.00  0.00    -0.150 NA
HETATM    3  N   UNL     1      42.167 -15.335   2.576  1.00  0.00    -0.218 N 
HETATM    4  C   UNL     1      42.234 -13.984   2.922  1.00  0.00     0.136 A 
HETATM    5  N   UNL     1      41.300 -13.313   2.265  1.00  0.00    -0.216 NA
ENDROOT
BRANCH   1   6
HETATM    6  C   UNL     1      39.685 -13.952   0.448  1.00  0.00     0.087 C 
BRANCH   6   7
HETATM    7  C   UNL     1      40.190 -13.885  -1.012  1.00  0.00    -0.004 C 
HETATM    8  C   UNL     1      40.694 -12.498  -1.448  1.00  0.00     0.032 C 
HETATM    9  C   UNL     1      39.575 -11.474  -1.596  1.00  0.00     0.234 C 
HETATM   10  N   UNL     1      38.556 -11.997  -2.581  1.00  0.00    -0.075 N 
HETATM   11  C   UNL     1      37.476 -10.979  -2.851  1.00  0.00     0.269 C 
HETATM   12  H   UNL     1      39.040 -12.132  -3.480  1.00  0.00     0.279 HD
HETATM   13  C   UNL     1      37.974 -13.327  -2.178  1.00  0.00     0.234 C 
HETATM   14  C   UNL     1      39.097 -14.347  -1.994  1.00  0.00     0.032 C 
ENDBRANCH   6   7
ENDBRANCH   1   6
BRANCH   3  15
HETATM   15  C   UNL     1      42.834 -16.483   3.089  1.00  0.00     0.062 A 
HETATM   16  C   UNL     1      42.950 -17.667   2.351  1.00  0.00     0.058 A 
HETATM   17  C   UNL     1      43.618 -18.772   2.897  1.00  0.00     0.074 A 
HETATM   18 CL   UNL     1      43.740 -20.212   1.963  1.00  0.00    -0.081 Cl
HETATM   19  C   UNL     1      44.177 -18.696   4.168  1.00  0.00     0.138 A 
HETATM   20  F   UNL     1      44.815 -19.746   4.702  1.00  0.00    -0.204 F 
HETATM   21  C   UNL     1      44.090 -17.519   4.902  1.00  0.00     0.046 A 
HETATM   22  C   UNL     1      43.428 -16.412   4.362  1.00  0.00     0.035 A 
ENDBRANCH   3  15
BRANCH   4  23
HETATM   23  C   UNL     1      43.275 -13.327   3.787  1.00  0.00     0.084 C 
HETATM   24  C   UNL     1      43.576 -11.907   3.305  1.00  0.00     0.244 C 
HETATM   25  N   UNL     1      42.431 -11.104   3.847  1.00  0.00    -0.074 N 
HETATM   26  H   UNL     1      42.655 -10.105   3.959  1.00  0.00     0.277 HD
HETATM   27  H   UNL     1      41.660 -11.173   3.161  1.00  0.00     0.277 HD
HETATM   28  C   UNL     1      41.976 -11.755   5.117  1.00  0.00     0.233 C 
HETATM   29  C   UNL     1      42.755 -13.064   5.198  1.00  0.00     0.041 C 
ENDBRANCH   4  23
TORSDOF 4
ENDMDL
MODEL 4
REMARK VINA RESULT:      -8.4      4.024      7.711
REMARK  4 active torsions:
REMARK  status: ('A' for Active; 'I' for Inactive)
REMARK    1  A    between atoms: C_6  and  C_7 
REMARK    2  A    between atoms: C_7  and  C_8 
REMARK    3  A    between atoms: N_10  and  C_11 
REMARK    4  A    between atoms: C_19  and  C_20 
ROOT
HETATM    1  C   UNL     1      42.563 -13.575   3.934  1.00  0.00     0.149 A 
HETATM    2  N   UNL     1      42.920 -12.474   4.590  1.00  0.00    -0.150 NA
HETATM    3  N   UNL     1      43.511 -12.955   5.716  1.00  0.00    -0.218 N 
HETATM    4  C   UNL     1      43.341 -14.341   5.742  1.00  0.00     0.136 A 
HETATM    5  N   UNL     1      42.806 -14.742   4.598  1.00  0.00    -0.216 NA
ENDROOT
BRANCH   1   6
HETATM    6  C   UNL     1      41.882 -13.510   2.610  1.00  0.00     0.087 C 
BRANCH   6   7
HETATM    7  C   UNL     1      40.469 -14.138   2.592  1.00  0.00    -0.004 C 
HETATM    8  C   UNL     1      40.253 -15.189   1.488  1.00  0.00     0.032 C 
HETATM    9  C   UNL     1      40.202 -14.585   0.090  1.00  0.00     0.234 C 
HETATM   10  N   UNL     1      39.112 -13.542   0.042  1.00  0.00    -0.075 N 
HETATM   11  C   UNL     1      38.941 -12.984  -1.349  1.00  0.00     0.269 C 
HETATM   12  H   UNL     1      38.223 -14.016   0.261  1.00  0.00     0.279 HD
HETATM   13  C   UNL     1      39.299 -12.445   1.059  1.00  0.00     0.234 C 
HETATM   14  C   UNL     1      39.386 -13.050   2.460  1.00  0.00     0.032 C 
ENDBRANCH   6   7
ENDBRANCH   1   6
BRANCH   3  15
HETATM   15  C   UNL     1      44.160 -12.058   6.611  1.00  0.00     0.062 A 
HETATM   16  C   UNL     1      43.541 -11.596   7.778  1.00  0.00     0.058 A 
HETATM   17  C   UNL     1      44.220 -10.714   8.630  1.00  0.00     0.074 A 
HETATM   18 CL   UNL     1      43.429 -10.163  10.056  1.00  0.00    -0.081 Cl
HETATM   19  C   UNL     1      45.514 -10.304   8.328  1.00  0.00     0.138 A 
HETATM   20  F   UNL     1      46.173  -9.460   9.133  1.00  0.00    -0.204 F 
HETATM   21  C   UNL     1      46.149 -10.774   7.185  1.00  0.00     0.046 A 
HETATM   22  C   UNL     1      45.479 -11.656   6.332  1.00  0.00     0.035 A 
ENDBRANCH   3  15
BRANCH   4  23
HETATM   23  C   UNL     1      43.580 -15.255   6.913  1.00  0.00     0.084 C 
HETATM   24  C   UNL     1      42.371 -16.159   7.161  1.00  0.00     0.244 C 
HETATM   25  N   UNL     1      42.519 -17.233   6.126  1.00  0.00    -0.074 N 
HETATM   26  H   UNL     1      42.042 -18.109   6.381  1.00  0.00     0.277 HD
HETATM   27  H   UNL     1      42.077 -16.882   5.259  1.00  0.00     0.277 HD
HETATM   28  C   UNL     1      43.981 -17.412   5.856  1.00  0.00     0.233 C 
HETATM   29  C   UNL     1      44.670 -16.282   6.616  1.00  0.00     0.041 C 
ENDBRANCH   4  23
TORSDOF 4
ENDMDL
MODEL 5
REMARK VINA RESULT:      -8.2      4.322      7.161
REMARK  4 active torsions:
REMARK  status: ('A' for Active; 'I' for Inactive)
REMARK    1  A    between atoms: C_6  and  C_7 
REMARK    2  A    between atoms: C_7  and  C_8 
REMARK    3  A    between atoms: N_10  and  C_11 
REMARK    4  A    between atoms: C_19  and  C_20 
ROOT
HETATM    1  C   UNL     1      41.334 -15.655   3.018  1.00  0.00     0.149 A 
HETATM    2  N   UNL     1      41.100 -15.571   1.711  1.00  0.00    -0.150 NA
HETATM    3  N   UNL     1      40.622 -14.307   1.557  1.00  0.00    -0.218 N 
HETATM    4  C   UNL     1      40.455 -13.744   2.824  1.00  0.00     0.136 A 
HETATM    5  N   UNL     1      40.959 -14.559   3.739  1.00  0.00    -0.216 NA
ENDROOT
BRANCH   1   6
HETATM    6  C   UNL     1      41.891 -16.891   3.635  1.00  0.00     0.087 C 
BRANCH   6   7
HETATM    7  C   UNL     1      43.432 -16.993   3.573  1.00  0.00    -0.004 C 
HETATM    8  C   UNL     1      43.960 -18.156   2.712  1.00  0.00     0.032 C 
HETATM    9  C   UNL     1      43.712 -19.523   3.338  1.00  0.00     0.234 C 
HETATM   10  N   UNL     1      44.340 -19.559   4.710  1.00  0.00    -0.075 N 
HETATM   11  C   UNL     1      44.221 -20.926   5.337  1.00  0.00     0.269 C 
HETATM   12  H   UNL     1      45.351 -19.397   4.589  1.00  0.00     0.279 HD
HETATM   13  C   UNL     1      43.819 -18.482   5.627  1.00  0.00     0.234 C 
HETATM   14  C   UNL     1      44.033 -17.111   4.987  1.00  0.00     0.032 C 
ENDBRANCH   6   7
ENDBRANCH   1   6
BRANCH   3  15
HETATM   15  C   UNL     1      40.393 -13.795   0.249  1.00  0.00     0.062 A 
HETATM   16  C   UNL     1      40.934 -12.575  -0.177  1.00  0.00     0.058 A 
HETATM   17  C   UNL     1      40.682 -12.112  -1.475  1.00  0.00     0.074 A 
HETATM   18 CL   UNL     1      41.359 -10.607  -1.965  1.00  0.00    -0.081 Cl
HETATM   19  C   UNL     1      39.904 -12.863  -2.350  1.00  0.00     0.138 A 
HETATM   20  F   UNL     1      39.654 -12.429  -3.593  1.00  0.00    -0.204 F 
HETATM   21  C   UNL     1      39.382 -14.086  -1.948  1.00  0.00     0.046 A 
HETATM   22  C   UNL     1      39.632 -14.557  -0.656  1.00  0.00     0.035 A 
ENDBRANCH   3  15
BRANCH   4  23
HETATM   23  C   UNL     1      39.702 -12.485   3.156  1.00  0.00     0.084 C 
HETATM   24  C   UNL     1      39.380 -12.415   4.651  1.00  0.00     0.244 C 
HETATM   25  N   UNL     1      40.670 -11.961   5.265  1.00  0.00    -0.074 N 
HETATM   26  H   UNL     1      40.542 -11.494   6.174  1.00  0.00     0.277 HD
HETATM   27  H   UNL     1      41.242 -12.806   5.430  1.00  0.00     0.277 HD
HETATM   28  C   UNL     1      41.384 -11.111   4.259  1.00  0.00     0.233 C 
HETATM   29  C   UNL     1      40.569 -11.242   2.975  1.00  0.00     0.041 C 
ENDBRANCH   4  23
TORSDOF 4
ENDMDL
MODEL 6
REMARK VINA RESULT:      -8.1      4.282      7.107
REMARK  4 active torsions:
REMARK  status: ('A' for Active; 'I' for Inactive)
REMARK    1  A    between atoms: C_6  and  C_7 
REMARK    2  A    between atoms: C_7  and  C_8 
REMARK    3  A    between atoms: N_10  and  C_11 
REMARK    4  A    between atoms: C_19  and  C_20 
ROOT
HETATM    1  C   UNL     1      42.404 -14.918   1.628  1.00  0.00     0.149 A 
HETATM    2  N   UNL     1      41.382 -15.029   0.783  1.00  0.00    -0.150 NA
HETATM    3  N   UNL     1      40.873 -13.770   0.735  1.00  0.00    -0.218 N 
HETATM    4  C   UNL     1      41.539 -12.991   1.684  1.00  0.00     0.136 A 
HETATM    5  N   UNL     1      42.542 -13.687   2.200  1.00  0.00    -0.216 NA
ENDROOT
BRANCH   1   6
HETATM    6  C   UNL     1      43.270 -16.081   1.966  1.00  0.00     0.087 C 
BRANCH   6   7
HETATM    7  C   UNL     1      42.527 -17.247   2.657  1.00  0.00    -0.004 C 
HETATM    8  C   UNL     1      41.563 -16.814   3.777  1.00  0.00     0.032 C 
HETATM    9  C   UNL     1      42.282 -16.296   5.016  1.00  0.00     0.234 C 
HETATM   10  N   UNL     1      43.227 -17.361   5.519  1.00  0.00    -0.075 N 
HETATM   11  C   UNL     1      43.889 -16.948   6.810  1.00  0.00     0.269 C 
HETATM   12  H   UNL     1      42.660 -18.189   5.753  1.00  0.00     0.279 HD
HETATM   13  C   UNL     1      44.241 -17.786   4.489  1.00  0.00     0.234 C 
HETATM   14  C   UNL     1      43.524 -18.273   3.230  1.00  0.00     0.032 C 
ENDBRANCH   6   7
ENDBRANCH   1   6
BRANCH   3  15
HETATM   15  C   UNL     1      39.839 -13.461  -0.193  1.00  0.00     0.062 A 
HETATM   16  C   UNL     1      39.577 -14.266  -1.309  1.00  0.00     0.058 A 
HETATM   17  C   UNL     1      38.547 -13.922  -2.195  1.00  0.00     0.074 A 
HETATM   18 CL   UNL     1      38.255 -14.932  -3.558  1.00  0.00    -0.081 Cl
HETATM   19  C   UNL     1      37.774 -12.789  -1.966  1.00  0.00     0.138 A 
HETATM   20  F   UNL     1      36.788 -12.449  -2.808  1.00  0.00    -0.204 F 
HETATM   21  C   UNL     1      38.007 -11.996  -0.850  1.00  0.00     0.046 A 
HETATM   22  C   UNL     1      39.030 -12.334   0.040  1.00  0.00     0.035 A 
ENDBRANCH   3  15
BRANCH   4  23
HETATM   23  C   UNL     1      41.132 -11.630   2.177  1.00  0.00     0.084 C 
HETATM   24  C   UNL     1      40.304 -11.734   3.460  1.00  0.00     0.244 C 
HETATM   25  N   UNL     1      41.336 -11.954   4.524  1.00  0.00    -0.074 N 
HETATM   26  H   UNL     1      41.020 -11.663   5.460  1.00  0.00     0.277 HD
HETATM   27  H   UNL     1      41.522 -12.971   4.563  1.00  0.00     0.277 HD
HETATM   28  C   UNL     1      42.598 -11.274   4.088  1.00  0.00     0.233 C 
HETATM   29  C   UNL     1      42.333 -10.818   2.656  1.00  0.00     0.041 C 
ENDBRANCH   4  23
TORSDOF 4
ENDMDL
MODEL 7
REMARK VINA RESULT:      -7.9      1.867      2.483
REMARK  4 active torsions:
REMARK  status: ('A' for Active; 'I' for Inactive)
REMARK    1  A    between atoms: C_6  and  C_7 
REMARK    2  A    between atoms: C_7  and  C_8 
REMARK    3  A    between atoms: N_10  and  C_11 
REMARK    4  A    between atoms: C_19  and  C_20 
ROOT
HETATM    1  C   UNL     1      42.438 -13.693   4.799  1.00  0.00     0.149 A 
HETATM    2  N   UNL     1      42.830 -14.876   5.263  1.00  0.00    -0.150 NA
HETATM    3  N   UNL     1      42.651 -15.707   4.202  1.00  0.00    -0.218 N 
HETATM    4  C   UNL     1      42.011 -14.991   3.188  1.00  0.00     0.136 A 
HETATM    5  N   UNL     1      41.933 -13.713   3.531  1.00  0.00    -0.216 NA
ENDROOT
BRANCH   1   6
HETATM    6  C   UNL     1      42.483 -12.466   5.644  1.00  0.00     0.087 C 
BRANCH   6   7
HETATM    7  C   UNL     1      41.730 -11.255   5.047  1.00  0.00    -0.004 C 
HETATM    8  C   UNL     1      42.110  -9.899   5.669  1.00  0.00     0.032 C 
HETATM    9  C   UNL     1      41.611  -9.737   7.099  1.00  0.00     0.234 C 
HETATM   10  N   UNL     1      40.112  -9.924   7.122  1.00  0.00    -0.075 N 
HETATM   11  C   UNL     1      39.545  -9.667   8.496  1.00  0.00     0.269 C 
HETATM   12  H   UNL     1      39.703  -9.199   6.514  1.00  0.00     0.279 HD
HETATM   13  C   UNL     1      39.676 -11.262   6.584  1.00  0.00     0.234 C 
HETATM   14  C   UNL     1      40.205 -11.444   5.162  1.00  0.00     0.032 C 
ENDBRANCH   6   7
ENDBRANCH   1   6
BRANCH   3  15
HETATM   15  C   UNL     1      43.107 -17.053   4.275  1.00  0.00     0.062 A 
HETATM   16  C   UNL     1      43.274 -17.844   3.132  1.00  0.00     0.058 A 
HETATM   17  C   UNL     1      43.727 -19.165   3.254  1.00  0.00     0.074 A 
HETATM   18 CL   UNL     1      43.918 -20.111   1.829  1.00  0.00    -0.081 Cl
HETATM   19  C   UNL     1      44.024 -19.693   4.506  1.00  0.00     0.138 A 
HETATM   20  F   UNL     1      44.456 -20.954   4.635  1.00  0.00    -0.204 F 
HETATM   21  C   UNL     1      43.886 -18.911   5.646  1.00  0.00     0.046 A 
HETATM   22  C   UNL     1      43.438 -17.591   5.532  1.00  0.00     0.035 A 
ENDBRANCH   3  15
BRANCH   4  23
HETATM   23  C   UNL     1      41.370 -15.560   1.952  1.00  0.00     0.084 C 
HETATM   24  C   UNL     1      39.915 -15.951   2.218  1.00  0.00     0.244 C 
HETATM   25  N   UNL     1      39.184 -14.644   2.154  1.00  0.00    -0.074 N 
HETATM   26  H   UNL     1      38.186 -14.750   1.923  1.00  0.00     0.277 HD
HETATM   27  H   UNL     1      39.240 -14.218   3.095  1.00  0.00     0.277 HD
HETATM   28  C   UNL     1      39.920 -13.753   1.202  1.00  0.00     0.233 C 
HETATM   29  C   UNL     1      41.204 -14.503   0.862  1.00  0.00     0.041 C 
ENDBRANCH   4  23
TORSDOF 4
ENDMDL
MODEL 8
REMARK VINA RESULT:      -7.9      5.436      8.278
REMARK  4 active torsions:
REMARK  status: ('A' for Active; 'I' for Inactive)
REMARK    1  A    between atoms: C_6  and  C_7 
REMARK    2  A    between atoms: C_7  and  C_8 
REMARK    3  A    between atoms: N_10  and  C_11 
REMARK    4  A    between atoms: C_19  and  C_20 
ROOT
HETATM    1  C   UNL     1      40.844 -14.013   0.552  1.00  0.00     0.149 A 
HETATM    2  N   UNL     1      41.234 -12.752   0.720  1.00  0.00    -0.150 NA
HETATM    3  N   UNL     1      40.679 -12.105  -0.339  1.00  0.00    -0.218 N 
HETATM    4  C   UNL     1      40.099 -13.058  -1.179  1.00  0.00     0.136 A 
HETATM    5  N   UNL     1      40.142 -14.247  -0.595  1.00  0.00    -0.216 NA
ENDROOT
BRANCH   1   6
HETATM    6  C   UNL     1      41.222 -15.084   1.516  1.00  0.00     0.087 C 
BRANCH   6   7
HETATM    7  C   UNL     1      42.742 -15.207   1.765  1.00  0.00    -0.004 C 
HETATM    8  C   UNL     1      43.257 -16.655   1.863  1.00  0.00     0.032 C 
HETATM    9  C   UNL     1      42.806 -17.364   3.134  1.00  0.00     0.234 C 
HETATM   10  N   UNL     1      43.258 -16.564   4.332  1.00  0.00    -0.075 N 
HETATM   11  C   UNL     1      42.935 -17.273   5.623  1.00  0.00     0.269 C 
HETATM   12  H   UNL     1      44.286 -16.511   4.296  1.00  0.00     0.279 HD
HETATM   13  C   UNL     1      42.734 -15.151   4.330  1.00  0.00     0.234 C 
HETATM   14  C   UNL     1      43.154 -14.447   3.041  1.00  0.00     0.032 C 
ENDBRANCH   6   7
ENDBRANCH   1   6
BRANCH   3  15
HETATM   15  C   UNL     1      40.759 -10.687  -0.421  1.00  0.00     0.062 A 
HETATM   16  C   UNL     1      41.852 -10.036  -1.007  1.00  0.00     0.058 A 
HETATM   17  C   UNL     1      41.886  -8.637  -1.066  1.00  0.00     0.074 A 
HETATM   18 CL   UNL     1      43.246  -7.870  -1.790  1.00  0.00    -0.081 Cl
HETATM   19  C   UNL     1      40.831  -7.887  -0.555  1.00  0.00     0.138 A 
HETATM   20  F   UNL     1      40.853  -6.548  -0.604  1.00  0.00    -0.204 F 
HETATM   21  C   UNL     1      39.730  -8.520   0.007  1.00  0.00     0.046 A 
HETATM   22  C   UNL     1      39.687  -9.917   0.066  1.00  0.00     0.035 A 
ENDBRANCH   3  15
BRANCH   4  23
HETATM   23  C   UNL     1      39.619 -12.842  -2.588  1.00  0.00     0.084 C 
HETATM   24  C   UNL     1      39.137 -14.153  -3.213  1.00  0.00     0.244 C 
HETATM   25  N   UNL     1      37.765 -14.332  -2.634  1.00  0.00    -0.074 N 
HETATM   26  H   UNL     1      37.154 -14.922  -3.217  1.00  0.00     0.277 HD
HETATM   27  H   UNL     1      37.879 -14.809  -1.723  1.00  0.00     0.277 HD
HETATM   28  C   UNL     1      37.197 -12.971  -2.372  1.00  0.00     0.233 C 
HETATM   29  C   UNL     1      38.346 -12.001  -2.631  1.00  0.00     0.041 C 
ENDBRANCH   4  23
TORSDOF 4
ENDMDL
MODEL 9
REMARK VINA RESULT:      -7.6      7.020      9.624
REMARK  4 active torsions:
REMARK  status: ('A' for Active; 'I' for Inactive)
REMARK    1  A    between atoms: C_6  and  C_7 
REMARK    2  A    between atoms: C_7  and  C_8 
REMARK    3  A    between atoms: N_10  and  C_11 
REMARK    4  A    between atoms: C_19  and  C_20 
ROOT
HETATM    1  C   UNL     1      41.646  -8.792  11.617  1.00  0.00     0.149 A 
HETATM    2  N   UNL     1      42.609  -9.580  11.145  1.00  0.00    -0.150 NA
HETATM    3  N   UNL     1      42.761  -9.157   9.861  1.00  0.00    -0.218 N 
HETATM    4  C   UNL     1      41.761  -8.221   9.586  1.00  0.00     0.136 A 
HETATM    5  N   UNL     1      41.101  -7.941  10.700  1.00  0.00    -0.216 NA
ENDROOT
BRANCH   1   6
HETATM    6  C   UNL     1      41.164  -8.902  13.023  1.00  0.00     0.087 C 
BRANCH   6   7
HETATM    7  C   UNL     1      42.227  -8.548  14.088  1.00  0.00    -0.004 C 
HETATM    8  C   UNL     1      41.654  -8.242  15.484  1.00  0.00     0.032 C 
HETATM    9  C   UNL     1      40.892  -6.924  15.541  1.00  0.00     0.234 C 
HETATM   10  N   UNL     1      41.805  -5.808  15.093  1.00  0.00    -0.075 N 
HETATM   11  C   UNL     1      41.140  -4.461  15.231  1.00  0.00     0.269 C 
HETATM   12  H   UNL     1      42.607  -5.788  15.740  1.00  0.00     0.279 HD
HETATM   13  C   UNL     1      42.352  -6.014  13.704  1.00  0.00     0.234 C 
HETATM   14  C   UNL     1      43.086  -7.352  13.632  1.00  0.00     0.032 C 
ENDBRANCH   6   7
ENDBRANCH   1   6
BRANCH   3  15
HETATM   15  C   UNL     1      43.821  -9.679   9.068  1.00  0.00     0.062 A 
HETATM   16  C   UNL     1      43.681 -10.853   8.318  1.00  0.00     0.058 A 
HETATM   17  C   UNL     1      44.753 -11.327   7.550  1.00  0.00     0.074 A 
HETATM   18 CL   UNL     1      44.548 -12.774   6.643  1.00  0.00    -0.081 Cl
HETATM   19  C   UNL     1      45.957 -10.630   7.520  1.00  0.00     0.138 A 
HETATM   20  F   UNL     1      46.990 -11.074   6.792  1.00  0.00    -0.204 F 
HETATM   21  C   UNL     1      46.101  -9.451   8.240  1.00  0.00     0.046 A 
HETATM   22  C   UNL     1      45.035  -8.970   9.006  1.00  0.00     0.035 A 
ENDBRANCH   3  15
BRANCH   4  23
HETATM   23  C   UNL     1      41.368  -7.697   8.232  1.00  0.00     0.084 C 
HETATM   24  C   UNL     1      39.971  -7.074   8.268  1.00  0.00     0.244 C 
HETATM   25  N   UNL     1      40.208  -5.720   8.868  1.00  0.00    -0.074 N 
HETATM   26  H   UNL     1      39.483  -5.034   8.616  1.00  0.00     0.277 HD
HETATM   27  H   UNL     1      40.182  -5.834   9.896  1.00  0.00     0.277 HD
HETATM   28  C   UNL     1      41.590  -5.286   8.489  1.00  0.00     0.233 C 
HETATM   29  C   UNL     1      42.222  -6.502   7.818  1.00  0.00     0.041 C 
ENDBRANCH   4  23
TORSDOF 4
ENDMDL
MODEL 10
REMARK VINA RESULT:      -7.5      4.311      7.594
REMARK  4 active torsions:
REMARK  status: ('A' for Active; 'I' for Inactive)
REMARK    1  A    between atoms: C_6  and  C_7 
REMARK    2  A    between atoms: C_7  and  C_8 
REMARK    3  A    between atoms: N_10  and  C_11 
REMARK    4  A    between atoms: C_19  and  C_20 
ROOT
HETATM    1  C   UNL     1      42.841 -14.360   1.887  1.00  0.00     0.149 A 
HETATM    2  N   UNL     1      41.783 -13.898   1.226  1.00  0.00    -0.150 NA
HETATM    3  N   UNL     1      41.684 -12.610   1.650  1.00  0.00    -0.218 N 
HETATM    4  C   UNL     1      42.617 -12.411   2.670  1.00  0.00     0.136 A 
HETATM    5  N   UNL     1      43.388 -13.484   2.778  1.00  0.00    -0.216 NA
ENDROOT
BRANCH   1   6
HETATM    6  C   UNL     1      43.326 -15.757   1.706  1.00  0.00     0.087 C 
BRANCH   6   7
HETATM    7  C   UNL     1      42.344 -16.841   2.207  1.00  0.00    -0.004 C 
HETATM    8  C   UNL     1      41.530 -16.437   3.450  1.00  0.00     0.032 C 
HETATM    9  C   UNL     1      42.373 -16.356   4.717  1.00  0.00     0.234 C 
HETATM   10  N   UNL     1      43.052 -17.686   4.943  1.00  0.00    -0.075 N 
HETATM   11  C   UNL     1      43.817 -17.701   6.243  1.00  0.00     0.269 C 
HETATM   12  H   UNL     1      42.312 -18.394   5.049  1.00  0.00     0.279 HD
HETATM   13  C   UNL     1      43.919 -18.111   3.786  1.00  0.00     0.234 C 
HETATM   14  C   UNL     1      43.085 -18.158   2.507  1.00  0.00     0.032 C 
ENDBRANCH   6   7
ENDBRANCH   1   6
BRANCH   3  15
HETATM   15  C   UNL     1      40.739 -11.737   1.042  1.00  0.00     0.062 A 
HETATM   16  C   UNL     1      39.367 -11.824   1.309  1.00  0.00     0.058 A 
HETATM   17  C   UNL     1      38.474 -10.942   0.687  1.00  0.00     0.074 A 
HETATM   18 CL   UNL     1      36.794 -11.079   1.035  1.00  0.00    -0.081 Cl
HETATM   19  C   UNL     1      38.945  -9.968  -0.189  1.00  0.00     0.138 A 
HETATM   20  F   UNL     1      38.100  -9.120  -0.791  1.00  0.00    -0.204 F 
HETATM   21  C   UNL     1      40.305  -9.855  -0.444  1.00  0.00     0.046 A 
HETATM   22  C   UNL     1      41.203 -10.730   0.176  1.00  0.00     0.035 A 
ENDBRANCH   3  15
BRANCH   4  23
HETATM   23  C   UNL     1      42.681 -11.243   3.616  1.00  0.00     0.084 C 
HETATM   24  C   UNL     1      41.466 -11.220   4.545  1.00  0.00     0.244 C 
HETATM   25  N   UNL     1      41.800 -12.247   5.584  1.00  0.00    -0.074 N 
HETATM   26  H   UNL     1      41.306 -12.097   6.475  1.00  0.00     0.277 HD
HETATM   27  H   UNL     1      41.498 -13.164   5.214  1.00  0.00     0.277 HD
HETATM   28  C   UNL     1      43.290 -12.281   5.733  1.00  0.00     0.233 C 
HETATM   29  C   UNL     1      43.825 -11.388   4.617  1.00  0.00     0.041 C 
ENDBRANCH   4  23
TORSDOF 4
ENDMDL
