MODEL 1
REMARK VINA RESULT:      -9.0      0.000      0.000
REMARK  5 active torsions:
REMARK  status: ('A' for Active; 'I' for Inactive)
REMARK    1  A    between atoms: C_7  and  C_8 
REMARK    2  A    between atoms: C_16  and  C_17 
REMARK    3  A    between atoms: C_19  and  O_20 
REMARK    4  A    between atoms: C_24  and  C_25 
REMARK       I    between atoms: C_25  and  N_26 
REMARK    5  A    between atoms: N_26  and  C_27 
ROOT
HETATM    1  C   UNL     1      39.099 -10.626   3.931  1.00  0.00     0.070 C 
HETATM    2  C   UNL     1      40.119 -11.639   4.393  1.00  0.00     0.037 C 
HETATM    3  N   UNL     1      40.496 -12.592   3.447  1.00  0.00    -0.192 N 
HETATM    4  C   UNL     1      41.203 -13.694   3.767  1.00  0.00     0.726 A 
HETATM    5  N   UNL     1      41.749 -13.792   5.013  1.00  0.00    -0.083 N 
HETATM    6  N   UNL     1      42.365 -14.973   5.197  1.00  0.00    -0.135 NA
HETATM    7  C   UNL     1      42.203 -15.545   3.990  1.00  0.00     0.199 A 
HETATM    8  N   UNL     1      41.477 -14.778   3.091  1.00  0.00    -0.041 NA
HETATM    9  C   UNL     1      41.684 -12.733   6.021  1.00  0.00     0.202 C 
HETATM   10  C   UNL     1      40.655 -11.672   5.640  1.00  0.00     0.062 C 
HETATM   11  H   UNL     1      39.983 -12.593   2.567  1.00  0.00     0.184 HD
ENDROOT
BRANCH  10  12
HETATM   12  C   UNL     1      40.088 -10.827   6.732  1.00  0.00     0.256 C 
HETATM   13  N   UNL     1      40.807  -9.685   7.003  1.00  0.00    -0.323 N 
HETATM   14  H   UNL     1      41.621  -9.480   6.438  1.00  0.00     0.169 HD
HETATM   15  O   UNL     1      39.081 -11.210   7.317  1.00  0.00    -0.267 OA
BRANCH  13  16
HETATM   16  C   UNL     1      40.550  -8.730   8.011  1.00  0.00     0.035 A 
HETATM   17  C   UNL     1      39.642  -7.677   7.883  1.00  0.00     0.029 A 
HETATM   18  C   UNL     1      39.449  -6.776   8.934  1.00  0.00     0.002 A 
HETATM   19  C   UNL     1      40.155  -6.924  10.126  1.00  0.00     0.000 A 
HETATM   20  C   UNL     1      41.061  -7.971  10.266  1.00  0.00     0.002 A 
HETATM   21  C   UNL     1      41.263  -8.865   9.211  1.00  0.00     0.029 A 
ENDBRANCH  13  16
ENDBRANCH  10  12
BRANCH   9  22
HETATM   22  C   UNL     1      43.092 -12.168   6.223  1.00  0.00    -0.025 A 
HETATM   23  C   UNL     1      43.957 -11.932   5.137  1.00  0.00     0.046 A 
HETATM   24  C   UNL     1      45.224 -11.401   5.359  1.00  0.00     0.066 A 
HETATM   25  C   UNL     1      45.659 -11.108   6.645  1.00  0.00     0.036 A 
HETATM   26  C   UNL     1      44.822 -11.358   7.730  1.00  0.00     0.003 A 
HETATM   27  C   UNL     1      43.547 -11.885   7.523  1.00  0.00     0.010 A 
BRANCH  24  28
HETATM   28  O   UNL     1      46.078 -11.147   4.329  1.00  0.00    -0.361 OA
HETATM   29  H   UNL     1      45.658 -11.408   3.493  1.00  0.00     0.217 HD
ENDBRANCH  24  28
ENDBRANCH   9  22
BRANCH   7  30
HETATM   30  C   UNL     1      42.743 -16.857   3.641  1.00  0.00     0.014 A 
HETATM   31  C   UNL     1      42.385 -17.484   2.438  1.00  0.00     0.017 A 
HETATM   32  C   UNL     1      42.894 -18.744   2.110  1.00  0.00     0.025 A 
HETATM   33  C   UNL     1      43.770 -19.383   2.984  1.00  0.00     0.034 A 
HETATM   34 CL   UNL     1      44.396 -20.935   2.583  1.00  0.00    -0.084 Cl
HETATM   35  C   UNL     1      44.138 -18.776   4.182  1.00  0.00     0.025 A 
HETATM   36  C   UNL     1      43.625 -17.516   4.511  1.00  0.00     0.017 A 
ENDBRANCH   7  30
TORSDOF 5
ENDMDL
MODEL 2
REMARK VINA RESULT:      -8.8      4.667      9.819
REMARK  5 active torsions:
REMARK  status: ('A' for Active; 'I' for Inactive)
REMARK    1  A    between atoms: C_7  and  C_8 
REMARK    2  A    between atoms: C_16  and  C_17 
REMARK    3  A    between atoms: C_19  and  O_20 
REMARK    4  A    between atoms: C_24  and  C_25 
REMARK       I    between atoms: C_25  and  N_26 
REMARK    5  A    between atoms: N_26  and  C_27 
ROOT
HETATM    1  C   UNL     1      46.347 -10.816   7.438  1.00  0.00     0.070 C 
HETATM    2  C   UNL     1      45.105 -10.379   8.176  1.00  0.00     0.037 C 
HETATM    3  N   UNL     1      45.322  -9.631   9.334  1.00  0.00    -0.192 N 
HETATM    4  C   UNL     1      44.345  -9.371  10.225  1.00  0.00     0.726 A 
HETATM    5  N   UNL     1      43.054  -9.670   9.899  1.00  0.00    -0.083 N 
HETATM    6  N   UNL     1      42.210  -9.414  10.914  1.00  0.00    -0.135 NA
HETATM    7  C   UNL     1      43.051  -8.905  11.833  1.00  0.00     0.199 A 
HETATM    8  N   UNL     1      44.380  -8.879  11.435  1.00  0.00    -0.041 NA
HETATM    9  C   UNL     1      42.638 -10.191   8.596  1.00  0.00     0.202 C 
HETATM   10  C   UNL     1      43.838 -10.678   7.789  1.00  0.00     0.062 C 
HETATM   11  H   UNL     1      46.287  -9.530   9.641  1.00  0.00     0.184 HD
ENDROOT
BRANCH  10  12
HETATM   12  C   UNL     1      43.592 -11.677   6.707  1.00  0.00     0.256 C 
HETATM   13  N   UNL     1      43.253 -12.933   7.155  1.00  0.00    -0.323 N 
HETATM   14  H   UNL     1      43.158 -13.083   8.151  1.00  0.00     0.169 HD
HETATM   15  O   UNL     1      43.739 -11.334   5.539  1.00  0.00    -0.267 OA
BRANCH  13  16
HETATM   16  C   UNL     1      43.020 -14.087   6.374  1.00  0.00     0.035 A 
HETATM   17  C   UNL     1      41.891 -14.281   5.577  1.00  0.00     0.029 A 
HETATM   18  C   UNL     1      41.742 -15.457   4.835  1.00  0.00     0.002 A 
HETATM   19  C   UNL     1      42.724 -16.443   4.875  1.00  0.00     0.000 A 
HETATM   20  C   UNL     1      43.855 -16.259   5.664  1.00  0.00     0.002 A 
HETATM   21  C   UNL     1      43.999 -15.090   6.416  1.00  0.00     0.029 A 
ENDBRANCH  13  16
ENDBRANCH  10  12
BRANCH   9  22
HETATM   22  C   UNL     1      41.822  -9.113   7.880  1.00  0.00    -0.025 A 
HETATM   23  C   UNL     1      40.464  -9.303   7.559  1.00  0.00     0.046 A 
HETATM   24  C   UNL     1      39.750  -8.292   6.923  1.00  0.00     0.066 A 
HETATM   25  C   UNL     1      40.362  -7.092   6.585  1.00  0.00     0.036 A 
HETATM   26  C   UNL     1      41.710  -6.899   6.875  1.00  0.00     0.003 A 
HETATM   27  C   UNL     1      42.438  -7.902   7.518  1.00  0.00     0.010 A 
BRANCH  24  28
HETATM   28  O   UNL     1      38.432  -8.439   6.613  1.00  0.00    -0.361 OA
HETATM   29  H   UNL     1      37.891  -8.093   7.342  1.00  0.00     0.217 HD
ENDBRANCH  24  28
ENDBRANCH   9  22
BRANCH   7  30
HETATM   30  C   UNL     1      42.616  -8.414  13.138  1.00  0.00     0.014 A 
HETATM   31  C   UNL     1      43.276  -7.341  13.758  1.00  0.00     0.017 A 
HETATM   32  C   UNL     1      42.866  -6.878  15.012  1.00  0.00     0.025 A 
HETATM   33  C   UNL     1      41.789  -7.486  15.653  1.00  0.00     0.034 A 
HETATM   34 CL   UNL     1      41.284  -6.919  17.197  1.00  0.00    -0.084 Cl
HETATM   35  C   UNL     1      41.121  -8.551  15.053  1.00  0.00     0.025 A 
HETATM   36  C   UNL     1      41.534  -9.015  13.799  1.00  0.00     0.017 A 
ENDBRANCH   7  30
TORSDOF 5
ENDMDL
MODEL 3
REMARK VINA RESULT:      -8.8      4.799      6.993
REMARK  5 active torsions:
REMARK  status: ('A' for Active; 'I' for Inactive)
REMARK    1  A    between atoms: C_7  and  C_8 
REMARK    2  A    between atoms: C_16  and  C_17 
REMARK    3  A    between atoms: C_19  and  O_20 
REMARK    4  A    between atoms: C_24  and  C_25 
REMARK       I    between atoms: C_25  and  N_26 
REMARK    5  A    between atoms: N_26  and  C_27 
ROOT
HETATM    1  C   UNL     1      38.746 -10.057   2.671  1.00  0.00     0.070 C 
HETATM    2  C   UNL     1      39.580 -11.201   2.147  1.00  0.00     0.037 C 
HETATM    3  N   UNL     1      39.662 -12.320   2.978  1.00  0.00    -0.192 N 
HETATM    4  C   UNL     1      40.547 -13.315   2.772  1.00  0.00     0.726 A 
HETATM    5  N   UNL     1      41.253 -13.343   1.605  1.00  0.00    -0.083 N 
HETATM    6  N   UNL     1      42.137 -14.355   1.580  1.00  0.00    -0.135 NA
HETATM    7  C   UNL     1      41.886 -14.952   2.760  1.00  0.00     0.199 A 
HETATM    8  N   UNL     1      40.914 -14.320   3.521  1.00  0.00    -0.041 NA
HETATM    9  C   UNL     1      41.059 -12.394   0.507  1.00  0.00     0.202 C 
HETATM   10  C   UNL     1      40.239 -11.189   0.960  1.00  0.00     0.062 C 
HETATM   11  H   UNL     1      39.246 -12.235   3.903  1.00  0.00     0.184 HD
ENDROOT
BRANCH  10  12
HETATM   12  C   UNL     1      40.369  -9.924   0.178  1.00  0.00     0.256 C 
HETATM   13  N   UNL     1      41.593  -9.304   0.294  1.00  0.00    -0.323 N 
HETATM   14  H   UNL     1      42.311  -9.751   0.849  1.00  0.00     0.169 HD
HETATM   15  O   UNL     1      39.404  -9.518  -0.459  1.00  0.00    -0.267 OA
BRANCH  13  16
HETATM   16  C   UNL     1      41.988  -8.074  -0.277  1.00  0.00     0.035 A 
HETATM   17  C   UNL     1      41.490  -6.831   0.116  1.00  0.00     0.029 A 
HETATM   18  C   UNL     1      41.937  -5.661  -0.506  1.00  0.00     0.002 A 
HETATM   19  C   UNL     1      42.892  -5.723  -1.518  1.00  0.00     0.000 A 
HETATM   20  C   UNL     1      43.396  -6.956  -1.916  1.00  0.00     0.002 A 
HETATM   21  C   UNL     1      42.941  -8.128  -1.304  1.00  0.00     0.029 A 
ENDBRANCH  13  16
ENDBRANCH  10  12
BRANCH   9  22
HETATM   22  C   UNL     1      40.439 -13.141  -0.676  1.00  0.00    -0.025 A 
HETATM   23  C   UNL     1      39.798 -14.384  -0.512  1.00  0.00     0.046 A 
HETATM   24  C   UNL     1      39.230 -15.024  -1.610  1.00  0.00     0.066 A 
HETATM   25  C   UNL     1      39.296 -14.460  -2.877  1.00  0.00     0.036 A 
HETATM   26  C   UNL     1      39.948 -13.242  -3.057  1.00  0.00     0.003 A 
HETATM   27  C   UNL     1      40.517 -12.585  -1.965  1.00  0.00     0.010 A 
BRANCH  24  28
HETATM   28  O   UNL     1      38.590 -16.220  -1.482  1.00  0.00    -0.361 OA
HETATM   29  H   UNL     1      38.536 -16.649  -2.352  1.00  0.00     0.217 HD
ENDBRANCH  24  28
ENDBRANCH   9  22
BRANCH   7  30
HETATM   30  C   UNL     1      42.567 -16.164   3.210  1.00  0.00     0.014 A 
HETATM   31  C   UNL     1      42.824 -17.217   2.319  1.00  0.00     0.017 A 
HETATM   32  C   UNL     1      43.466 -18.380   2.753  1.00  0.00     0.025 A 
HETATM   33  C   UNL     1      43.860 -18.495   4.084  1.00  0.00     0.034 A 
HETATM   34 CL   UNL     1      44.649 -19.926   4.621  1.00  0.00    -0.084 Cl
HETATM   35  C   UNL     1      43.616 -17.459   4.983  1.00  0.00     0.025 A 
HETATM   36  C   UNL     1      42.970 -16.297   4.548  1.00  0.00     0.017 A 
ENDBRANCH   7  30
TORSDOF 5
ENDMDL
MODEL 4
REMARK VINA RESULT:      -8.7      4.850      8.981
REMARK  5 active torsions:
REMARK  status: ('A' for Active; 'I' for Inactive)
REMARK    1  A    between atoms: C_7  and  C_8 
REMARK    2  A    between atoms: C_16  and  C_17 
REMARK    3  A    between atoms: C_19  and  O_20 
REMARK    4  A    between atoms: C_24  and  C_25 
REMARK       I    between atoms: C_25  and  N_26 
REMARK    5  A    between atoms: N_26  and  C_27 
ROOT
HETATM    1  C   UNL     1      39.687 -15.317  -0.063  1.00  0.00     0.070 C 
HETATM    2  C   UNL     1      40.187 -14.001   0.484  1.00  0.00     0.037 C 
HETATM    3  N   UNL     1      40.060 -12.904  -0.369  1.00  0.00    -0.192 N 
HETATM    4  C   UNL     1      40.666 -11.724  -0.131  1.00  0.00     0.726 A 
HETATM    5  N   UNL     1      41.261 -11.517   1.079  1.00  0.00    -0.083 N 
HETATM    6  N   UNL     1      41.876 -10.323   1.136  1.00  0.00    -0.135 NA
HETATM    7  C   UNL     1      41.575  -9.815  -0.073  1.00  0.00     0.199 A 
HETATM    8  N   UNL     1      40.837 -10.668  -0.881  1.00  0.00    -0.041 NA
HETATM    9  C   UNL     1      41.221 -12.474   2.186  1.00  0.00     0.202 C 
HETATM   10  C   UNL     1      40.744 -13.844   1.713  1.00  0.00     0.062 C 
HETATM   11  H   UNL     1      39.742 -13.095  -1.317  1.00  0.00     0.184 HD
ENDROOT
BRANCH  10  12
HETATM   12  C   UNL     1      41.115 -15.034   2.534  1.00  0.00     0.256 C 
HETATM   13  N   UNL     1      42.441 -15.395   2.451  1.00  0.00    -0.323 N 
HETATM   14  H   UNL     1      43.063 -14.827   1.890  1.00  0.00     0.169 HD
HETATM   15  O   UNL     1      40.242 -15.609   3.173  1.00  0.00    -0.267 OA
BRANCH  13  16
HETATM   16  C   UNL     1      43.068 -16.502   3.064  1.00  0.00     0.035 A 
HETATM   17  C   UNL     1      43.566 -16.499   4.368  1.00  0.00     0.029 A 
HETATM   18  C   UNL     1      44.173 -17.643   4.897  1.00  0.00     0.002 A 
HETATM   19  C   UNL     1      44.277 -18.801   4.131  1.00  0.00     0.000 A 
HETATM   20  C   UNL     1      43.782 -18.816   2.831  1.00  0.00     0.002 A 
HETATM   21  C   UNL     1      43.186 -17.669   2.297  1.00  0.00     0.029 A 
ENDBRANCH  13  16
ENDBRANCH  10  12
BRANCH   9  22
HETATM   22  C   UNL     1      40.360 -11.885   3.305  1.00  0.00    -0.025 A 
HETATM   23  C   UNL     1      40.430 -12.370   4.626  1.00  0.00     0.046 A 
HETATM   24  C   UNL     1      39.643 -11.796   5.621  1.00  0.00     0.066 A 
HETATM   25  C   UNL     1      38.774 -10.754   5.330  1.00  0.00     0.036 A 
HETATM   26  C   UNL     1      38.677 -10.280   4.023  1.00  0.00     0.003 A 
HETATM   27  C   UNL     1      39.463 -10.841   3.016  1.00  0.00     0.010 A 
BRANCH  24  28
HETATM   28  O   UNL     1      39.699 -12.233   6.910  1.00  0.00    -0.361 OA
HETATM   29  H   UNL     1      39.944 -13.172   6.920  1.00  0.00     0.217 HD
ENDBRANCH  24  28
ENDBRANCH   9  22
BRANCH   7  30
HETATM   30  C   UNL     1      41.979  -8.481  -0.510  1.00  0.00     0.014 A 
HETATM   31  C   UNL     1      43.004  -8.314  -1.454  1.00  0.00     0.017 A 
HETATM   32  C   UNL     1      43.398  -7.036  -1.863  1.00  0.00     0.025 A 
HETATM   33  C   UNL     1      42.764  -5.916  -1.332  1.00  0.00     0.034 A 
HETATM   34 CL   UNL     1      43.248  -4.343  -1.833  1.00  0.00    -0.084 Cl
HETATM   35  C   UNL     1      41.743  -6.061  -0.395  1.00  0.00     0.025 A 
HETATM   36  C   UNL     1      41.352  -7.341   0.016  1.00  0.00     0.017 A 
ENDBRANCH   7  30
TORSDOF 5
ENDMDL
MODEL 5
REMARK VINA RESULT:      -8.6      1.760      2.151
REMARK  5 active torsions:
REMARK  status: ('A' for Active; 'I' for Inactive)
REMARK    1  A    between atoms: C_7  and  C_8 
REMARK    2  A    between atoms: C_16  and  C_17 
REMARK    3  A    between atoms: C_19  and  O_20 
REMARK    4  A    between atoms: C_24  and  C_25 
REMARK       I    between atoms: C_25  and  N_26 
REMARK    5  A    between atoms: N_26  and  C_27 
ROOT
HETATM    1  C   UNL     1      40.942  -8.934   3.371  1.00  0.00     0.070 C 
HETATM    2  C   UNL     1      41.548 -10.146   4.036  1.00  0.00     0.037 C 
HETATM    3  N   UNL     1      41.926 -11.181   3.178  1.00  0.00    -0.192 N 
HETATM    4  C   UNL     1      42.256 -12.409   3.623  1.00  0.00     0.726 A 
HETATM    5  N   UNL     1      42.425 -12.606   4.962  1.00  0.00    -0.083 N 
HETATM    6  N   UNL     1      42.685 -13.894   5.249  1.00  0.00    -0.135 NA
HETATM    7  C   UNL     1      42.711 -14.437   4.018  1.00  0.00     0.199 A 
HETATM    8  N   UNL     1      42.437 -13.541   2.995  1.00  0.00    -0.041 NA
HETATM    9  C   UNL     1      42.349 -11.541   5.963  1.00  0.00     0.202 C 
HETATM   10  C   UNL     1      41.724 -10.278   5.376  1.00  0.00     0.062 C 
HETATM   11  H   UNL     1      41.670 -11.080   2.198  1.00  0.00     0.184 HD
ENDROOT
BRANCH  10  12
HETATM   12  C   UNL     1      41.105  -9.302   6.321  1.00  0.00     0.256 C 
HETATM   13  N   UNL     1      41.944  -8.287   6.724  1.00  0.00    -0.323 N 
HETATM   14  H   UNL     1      42.877  -8.248   6.337  1.00  0.00     0.169 HD
HETATM   15  O   UNL     1      39.951  -9.484   6.689  1.00  0.00    -0.267 OA
BRANCH  13  16
HETATM   16  C   UNL     1      41.660  -7.259   7.650  1.00  0.00     0.035 A 
HETATM   17  C   UNL     1      40.921  -6.114   7.350  1.00  0.00     0.029 A 
HETATM   18  C   UNL     1      40.688  -5.144   8.330  1.00  0.00     0.002 A 
HETATM   19  C   UNL     1      41.181  -5.316   9.621  1.00  0.00     0.000 A 
HETATM   20  C   UNL     1      41.917  -6.455   9.932  1.00  0.00     0.002 A 
HETATM   21  C   UNL     1      42.162  -7.419   8.950  1.00  0.00     0.029 A 
ENDBRANCH  13  16
ENDBRANCH  10  12
BRANCH   9  22
HETATM   22  C   UNL     1      43.748 -11.314   6.538  1.00  0.00    -0.025 A 
HETATM   23  C   UNL     1      43.949 -11.012   7.899  1.00  0.00     0.046 A 
HETATM   24  C   UNL     1      45.239 -10.830   8.389  1.00  0.00     0.066 A 
HETATM   25  C   UNL     1      46.341 -10.930   7.551  1.00  0.00     0.036 A 
HETATM   26  C   UNL     1      46.156 -11.205   6.198  1.00  0.00     0.003 A 
HETATM   27  C   UNL     1      44.869 -11.396   5.693  1.00  0.00     0.010 A 
BRANCH  24  28
HETATM   28  O   UNL     1      45.467 -10.552   9.704  1.00  0.00    -0.361 OA
HETATM   29  H   UNL     1      44.624 -10.579  10.187  1.00  0.00     0.217 HD
ENDBRANCH  24  28
ENDBRANCH   9  22
BRANCH   7  30
HETATM   30  C   UNL     1      43.007 -15.845   3.765  1.00  0.00     0.014 A 
HETATM   31  C   UNL     1      43.590 -16.646   4.759  1.00  0.00     0.017 A 
HETATM   32  C   UNL     1      43.883 -17.991   4.514  1.00  0.00     0.025 A 
HETATM   33  C   UNL     1      43.588 -18.545   3.270  1.00  0.00     0.034 A 
HETATM   34 CL   UNL     1      43.949 -20.199   2.964  1.00  0.00    -0.084 Cl
HETATM   35  C   UNL     1      43.008 -17.766   2.271  1.00  0.00     0.025 A 
HETATM   36  C   UNL     1      42.719 -16.419   2.518  1.00  0.00     0.017 A 
ENDBRANCH   7  30
TORSDOF 5
ENDMDL
MODEL 6
REMARK VINA RESULT:      -8.3      4.478      8.994
REMARK  5 active torsions:
REMARK  status: ('A' for Active; 'I' for Inactive)
REMARK    1  A    between atoms: C_7  and  C_8 
REMARK    2  A    between atoms: C_16  and  C_17 
REMARK    3  A    between atoms: C_19  and  O_20 
REMARK    4  A    between atoms: C_24  and  C_25 
REMARK       I    between atoms: C_25  and  N_26 
REMARK    5  A    between atoms: N_26  and  C_27 
ROOT
HETATM    1  C   UNL     1      39.827 -15.745   0.929  1.00  0.00     0.070 C 
HETATM    2  C   UNL     1      40.521 -14.441   1.241  1.00  0.00     0.037 C 
HETATM    3  N   UNL     1      39.808 -13.285   0.925  1.00  0.00    -0.192 N 
HETATM    4  C   UNL     1      40.372 -12.061   0.918  1.00  0.00     0.726 A 
HETATM    5  N   UNL     1      41.627 -11.908   1.430  1.00  0.00    -0.083 N 
HETATM    6  N   UNL     1      42.074 -10.647   1.290  1.00  0.00    -0.135 NA
HETATM    7  C   UNL     1      41.009 -10.053   0.720  1.00  0.00     0.199 A 
HETATM    8  N   UNL     1      39.947 -10.910   0.468  1.00  0.00    -0.041 NA
HETATM    9  C   UNL     1      42.389 -12.982   2.068  1.00  0.00     0.202 C 
HETATM   10  C   UNL     1      41.763 -14.345   1.783  1.00  0.00     0.062 C 
HETATM   11  H   UNL     1      38.933 -13.410   0.419  1.00  0.00     0.184 HD
ENDROOT
BRANCH  10  12
HETATM   12  C   UNL     1      42.636 -15.551   1.896  1.00  0.00     0.256 C 
HETATM   13  N   UNL     1      42.275 -16.425   2.897  1.00  0.00    -0.323 N 
HETATM   14  H   UNL     1      41.450 -16.221   3.444  1.00  0.00     0.169 HD
HETATM   15  O   UNL     1      43.599 -15.658   1.146  1.00  0.00    -0.267 OA
BRANCH  13  16
HETATM   16  C   UNL     1      42.940 -17.611   3.278  1.00  0.00     0.035 A 
HETATM   17  C   UNL     1      43.580 -17.793   4.506  1.00  0.00     0.029 A 
HETATM   18  C   UNL     1      44.215 -19.003   4.800  1.00  0.00     0.002 A 
HETATM   19  C   UNL     1      44.209 -20.044   3.876  1.00  0.00     0.000 A 
HETATM   20  C   UNL     1      43.573 -19.875   2.650  1.00  0.00     0.002 A 
HETATM   21  C   UNL     1      42.948 -18.661   2.349  1.00  0.00     0.029 A 
ENDBRANCH  13  16
ENDBRANCH  10  12
BRANCH   9  22
HETATM   22  C   UNL     1      42.509 -12.671   3.562  1.00  0.00    -0.025 A 
HETATM   23  C   UNL     1      41.497 -13.025   4.475  1.00  0.00     0.046 A 
HETATM   24  C   UNL     1      41.651 -12.741   5.829  1.00  0.00     0.066 A 
HETATM   25  C   UNL     1      42.788 -12.097   6.298  1.00  0.00     0.036 A 
HETATM   26  C   UNL     1      43.786 -11.720   5.402  1.00  0.00     0.003 A 
HETATM   27  C   UNL     1      43.649 -12.003   4.043  1.00  0.00     0.010 A 
BRANCH  24  28
HETATM   28  O   UNL     1      40.698 -13.085   6.740  1.00  0.00    -0.361 OA
HETATM   29  H   UNL     1      40.131 -13.777   6.363  1.00  0.00     0.217 HD
ENDBRANCH  24  28
ENDBRANCH   9  22
BRANCH   7  30
HETATM   30  C   UNL     1      40.959  -8.630   0.393  1.00  0.00     0.014 A 
HETATM   31  C   UNL     1      40.126  -7.758   1.109  1.00  0.00     0.017 A 
HETATM   32  C   UNL     1      40.071  -6.398   0.789  1.00  0.00     0.025 A 
HETATM   33  C   UNL     1      40.855  -5.902  -0.249  1.00  0.00     0.034 A 
HETATM   34 CL   UNL     1      40.788  -4.229  -0.646  1.00  0.00    -0.084 Cl
HETATM   35  C   UNL     1      41.690  -6.752  -0.971  1.00  0.00     0.025 A 
HETATM   36  C   UNL     1      41.742  -8.113  -0.651  1.00  0.00     0.017 A 
ENDBRANCH   7  30
TORSDOF 5
ENDMDL
MODEL 7
REMARK VINA RESULT:      -8.1      2.727      4.090
REMARK  5 active torsions:
REMARK  status: ('A' for Active; 'I' for Inactive)
REMARK    1  A    between atoms: C_7  and  C_8 
REMARK    2  A    between atoms: C_16  and  C_17 
REMARK    3  A    between atoms: C_19  and  O_20 
REMARK    4  A    between atoms: C_24  and  C_25 
REMARK       I    between atoms: C_25  and  N_26 
REMARK    5  A    between atoms: N_26  and  C_27 
ROOT
HETATM    1  C   UNL     1      40.417 -11.933  -0.623  1.00  0.00     0.070 C 
HETATM    2  C   UNL     1      40.741 -12.629   0.677  1.00  0.00     0.037 C 
HETATM    3  N   UNL     1      41.675 -13.662   0.593  1.00  0.00    -0.192 N 
HETATM    4  C   UNL     1      41.893 -14.529   1.602  1.00  0.00     0.726 A 
HETATM    5  N   UNL     1      41.336 -14.279   2.822  1.00  0.00    -0.083 N 
HETATM    6  N   UNL     1      41.591 -15.265   3.700  1.00  0.00    -0.135 NA
HETATM    7  C   UNL     1      42.363 -16.083   2.959  1.00  0.00     0.199 A 
HETATM    8  N   UNL     1      42.555 -15.655   1.654  1.00  0.00    -0.041 NA
HETATM    9  C   UNL     1      40.569 -13.074   3.141  1.00  0.00     0.202 C 
HETATM   10  C   UNL     1      40.180 -12.318   1.874  1.00  0.00     0.062 C 
HETATM   11  H   UNL     1      41.980 -13.931  -0.340  1.00  0.00     0.184 HD
ENDROOT
BRANCH  10  12
HETATM   12  C   UNL     1      39.008 -11.396   1.944  1.00  0.00     0.256 C 
HETATM   13  N   UNL     1      39.320 -10.101   2.291  1.00  0.00    -0.323 N 
HETATM   14  H   UNL     1      40.291  -9.858   2.432  1.00  0.00     0.169 HD
HETATM   15  O   UNL     1      37.887 -11.844   1.733  1.00  0.00    -0.267 OA
BRANCH  13  16
HETATM   16  C   UNL     1      38.423  -9.028   2.492  1.00  0.00     0.035 A 
HETATM   17  C   UNL     1      37.768  -8.350   1.463  1.00  0.00     0.029 A 
HETATM   18  C   UNL     1      36.894  -7.297   1.753  1.00  0.00     0.002 A 
HETATM   19  C   UNL     1      36.661  -6.920   3.073  1.00  0.00     0.000 A 
HETATM   20  C   UNL     1      37.307  -7.591   4.107  1.00  0.00     0.002 A 
HETATM   21  C   UNL     1      38.190  -8.635   3.818  1.00  0.00     0.029 A 
ENDBRANCH  13  16
ENDBRANCH  10  12
BRANCH   9  22
HETATM   22  C   UNL     1      41.379 -12.229   4.127  1.00  0.00    -0.025 A 
HETATM   23  C   UNL     1      42.774 -12.084   4.004  1.00  0.00     0.046 A 
HETATM   24  C   UNL     1      43.474 -11.292   4.911  1.00  0.00     0.066 A 
HETATM   25  C   UNL     1      42.817 -10.648   5.950  1.00  0.00     0.036 A 
HETATM   26  C   UNL     1      41.440 -10.802   6.097  1.00  0.00     0.003 A 
HETATM   27  C   UNL     1      40.724 -11.587   5.193  1.00  0.00     0.010 A 
BRANCH  24  28
HETATM   28  O   UNL     1      44.822 -11.119   4.810  1.00  0.00    -0.361 OA
HETATM   29  H   UNL     1      45.266 -11.969   4.961  1.00  0.00     0.217 HD
ENDBRANCH  24  28
ENDBRANCH   9  22
BRANCH   7  30
HETATM   30  C   UNL     1      42.957 -17.313   3.474  1.00  0.00     0.014 A 
HETATM   31  C   UNL     1      43.239 -17.458   4.842  1.00  0.00     0.017 A 
HETATM   32  C   UNL     1      43.818 -18.632   5.332  1.00  0.00     0.025 A 
HETATM   33  C   UNL     1      44.115 -19.673   4.456  1.00  0.00     0.034 A 
HETATM   34 CL   UNL     1      44.830 -21.118   5.057  1.00  0.00    -0.084 Cl
HETATM   35  C   UNL     1      43.842 -19.549   3.095  1.00  0.00     0.025 A 
HETATM   36  C   UNL     1      43.265 -18.372   2.605  1.00  0.00     0.017 A 
ENDBRANCH   7  30
TORSDOF 5
ENDMDL
MODEL 8
REMARK VINA RESULT:      -8.1     18.061     20.729
REMARK  5 active torsions:
REMARK  status: ('A' for Active; 'I' for Inactive)
REMARK    1  A    between atoms: C_7  and  C_8 
REMARK    2  A    between atoms: C_16  and  C_17 
REMARK    3  A    between atoms: C_19  and  O_20 
REMARK    4  A    between atoms: C_24  and  C_25 
REMARK       I    between atoms: C_25  and  N_26 
REMARK    5  A    between atoms: N_26  and  C_27 
ROOT
HETATM    1  C   UNL     1      45.429 -27.374  -3.540  1.00  0.00     0.070 C 
HETATM    2  C   UNL     1      45.610 -28.327  -2.383  1.00  0.00     0.037 C 
HETATM    3  N   UNL     1      46.488 -27.906  -1.384  1.00  0.00    -0.192 N 
HETATM    4  C   UNL     1      46.938 -28.730  -0.417  1.00  0.00     0.726 A 
HETATM    5  N   UNL     1      46.370 -29.963  -0.279  1.00  0.00    -0.083 N 
HETATM    6  N   UNL     1      46.971 -30.686   0.682  1.00  0.00    -0.135 NA
HETATM    7  C   UNL     1      47.885 -29.809   1.138  1.00  0.00     0.199 A 
HETATM    8  N   UNL     1      47.892 -28.595   0.466  1.00  0.00    -0.041 NA
HETATM    9  C   UNL     1      45.233 -30.434  -1.071  1.00  0.00     0.202 C 
HETATM   10  C   UNL     1      44.993 -29.533  -2.280  1.00  0.00     0.062 C 
HETATM   11  H   UNL     1      47.010 -27.051  -1.562  1.00  0.00     0.184 HD
ENDROOT
BRANCH  10  12
HETATM   12  C   UNL     1      44.252 -30.108  -3.442  1.00  0.00     0.256 C 
HETATM   13  N   UNL     1      44.935 -31.088  -4.126  1.00  0.00    -0.323 N 
HETATM   14  H   UNL     1      45.844 -31.372  -3.785  1.00  0.00     0.169 HD
HETATM   15  O   UNL     1      43.146 -29.660  -3.720  1.00  0.00    -0.267 OA
BRANCH  13  16
HETATM   16  C   UNL     1      44.517 -31.768  -5.291  1.00  0.00     0.035 A 
HETATM   17  C   UNL     1      44.319 -31.155  -6.529  1.00  0.00     0.029 A 
HETATM   18  C   UNL     1      43.903 -31.906  -7.633  1.00  0.00     0.002 A 
HETATM   19  C   UNL     1      43.692 -33.277  -7.511  1.00  0.00     0.000 A 
HETATM   20  C   UNL     1      43.889 -33.899  -6.282  1.00  0.00     0.002 A 
HETATM   21  C   UNL     1      44.292 -33.147  -5.175  1.00  0.00     0.029 A 
ENDBRANCH  13  16
ENDBRANCH  10  12
BRANCH   9  22
HETATM   22  C   UNL     1      44.016 -30.551  -0.151  1.00  0.00    -0.025 A 
HETATM   23  C   UNL     1      43.422 -31.796   0.135  1.00  0.00     0.046 A 
HETATM   24  C   UNL     1      42.326 -31.864   0.991  1.00  0.00     0.066 A 
HETATM   25  C   UNL     1      41.796 -30.716   1.564  1.00  0.00     0.036 A 
HETATM   26  C   UNL     1      42.359 -29.476   1.271  1.00  0.00     0.003 A 
HETATM   27  C   UNL     1      43.461 -29.392   0.419  1.00  0.00     0.010 A 
BRANCH  24  28
HETATM   28  O   UNL     1      41.740 -33.055   1.300  1.00  0.00    -0.361 OA
HETATM   29  H   UNL     1      41.931 -33.697   0.597  1.00  0.00     0.217 HD
ENDBRANCH  24  28
ENDBRANCH   9  22
BRANCH   7  30
HETATM   30  C   UNL     1      48.792 -30.094   2.246  1.00  0.00     0.014 A 
HETATM   31  C   UNL     1      50.183 -30.033   2.069  1.00  0.00     0.017 A 
HETATM   32  C   UNL     1      51.052 -30.317   3.128  1.00  0.00     0.025 A 
HETATM   33  C   UNL     1      50.531 -30.660   4.374  1.00  0.00     0.034 A 
HETATM   34 CL   UNL     1      51.598 -31.011   5.677  1.00  0.00    -0.084 Cl
HETATM   35  C   UNL     1      49.154 -30.724   4.569  1.00  0.00     0.025 A 
HETATM   36  C   UNL     1      48.286 -30.443   3.508  1.00  0.00     0.017 A 
ENDBRANCH   7  30
TORSDOF 5
ENDMDL
MODEL 9
REMARK VINA RESULT:      -8.1     18.050     21.336
REMARK  5 active torsions:
REMARK  status: ('A' for Active; 'I' for Inactive)
REMARK    1  A    between atoms: C_7  and  C_8 
REMARK    2  A    between atoms: C_16  and  C_17 
REMARK    3  A    between atoms: C_19  and  O_20 
REMARK    4  A    between atoms: C_24  and  C_25 
REMARK       I    between atoms: C_25  and  N_26 
REMARK    5  A    between atoms: N_26  and  C_27 
ROOT
HETATM    1  C   UNL     1      47.421 -28.127   1.049  1.00  0.00     0.070 C 
HETATM    2  C   UNL     1      47.521 -29.165  -0.042  1.00  0.00     0.037 C 
HETATM    3  N   UNL     1      47.009 -28.788  -1.284  1.00  0.00    -0.192 N 
HETATM    4  C   UNL     1      46.805 -29.668  -2.284  1.00  0.00     0.726 A 
HETATM    5  N   UNL     1      47.298 -30.934  -2.163  1.00  0.00    -0.083 N 
HETATM    6  N   UNL     1      46.955 -31.706  -3.209  1.00  0.00    -0.135 NA
HETATM    7  C   UNL     1      46.283 -30.827  -3.975  1.00  0.00     0.199 A 
HETATM    8  N   UNL     1      46.166 -29.562  -3.419  1.00  0.00    -0.041 NA
HETATM    9  C   UNL     1      48.114 -31.391  -1.037  1.00  0.00     0.202 C 
HETATM   10  C   UNL     1      48.052 -30.404   0.125  1.00  0.00     0.062 C 
HETATM   11  H   UNL     1      46.521 -27.895  -1.328  1.00  0.00     0.184 HD
ENDROOT
BRANCH  10  12
HETATM   12  C   UNL     1      48.373 -30.913   1.491  1.00  0.00     0.256 C 
HETATM   13  N   UNL     1      49.714 -30.896   1.806  1.00  0.00    -0.323 N 
HETATM   14  H   UNL     1      50.364 -30.516   1.131  1.00  0.00     0.169 HD
HETATM   15  O   UNL     1      47.464 -31.330   2.197  1.00  0.00    -0.267 OA
BRANCH  13  16
HETATM   16  C   UNL     1      50.320 -31.365   2.992  1.00  0.00     0.035 A 
HETATM   17  C   UNL     1      50.627 -32.704   3.239  1.00  0.00     0.029 A 
HETATM   18  C   UNL     1      51.229 -33.082   4.444  1.00  0.00     0.002 A 
HETATM   19  C   UNL     1      51.537 -32.124   5.406  1.00  0.00     0.000 A 
HETATM   20  C   UNL     1      51.237 -30.786   5.169  1.00  0.00     0.002 A 
HETATM   21  C   UNL     1      50.625 -30.409   3.971  1.00  0.00     0.029 A 
ENDBRANCH  13  16
ENDBRANCH  10  12
BRANCH   9  22
HETATM   22  C   UNL     1      49.536 -31.647  -1.541  1.00  0.00    -0.025 A 
HETATM   23  C   UNL     1      50.366 -30.596  -1.979  1.00  0.00     0.046 A 
HETATM   24  C   UNL     1      51.660 -30.867  -2.414  1.00  0.00     0.066 A 
HETATM   25  C   UNL     1      52.148 -32.166  -2.436  1.00  0.00     0.036 A 
HETATM   26  C   UNL     1      51.330 -33.218  -2.027  1.00  0.00     0.003 A 
HETATM   27  C   UNL     1      50.032 -32.962  -1.583  1.00  0.00     0.010 A 
BRANCH  24  28
HETATM   28  O   UNL     1      52.493 -29.871  -2.829  1.00  0.00    -0.361 OA
HETATM   29  H   UNL     1      52.451 -29.802  -3.797  1.00  0.00     0.217 HD
ENDBRANCH  24  28
ENDBRANCH   9  22
BRANCH   7  30
HETATM   30  C   UNL     1      45.724 -31.161  -5.283  1.00  0.00     0.014 A 
HETATM   31  C   UNL     1      44.433 -30.742  -5.640  1.00  0.00     0.017 A 
HETATM   32  C   UNL     1      43.894 -31.071  -6.888  1.00  0.00     0.025 A 
HETATM   33  C   UNL     1      44.648 -31.820  -7.789  1.00  0.00     0.034 A 
HETATM   34 CL   UNL     1      43.987 -32.227  -9.324  1.00  0.00    -0.084 Cl
HETATM   35  C   UNL     1      45.932 -32.244  -7.453  1.00  0.00     0.025 A 
HETATM   36  C   UNL     1      46.468 -31.916  -6.202  1.00  0.00     0.017 A 
ENDBRANCH   7  30
TORSDOF 5
ENDMDL
MODEL 10
REMARK VINA RESULT:      -7.8      5.412      8.351
REMARK  5 active torsions:
REMARK  status: ('A' for Active; 'I' for Inactive)
REMARK    1  A    between atoms: C_7  and  C_8 
REMARK    2  A    between atoms: C_16  and  C_17 
REMARK    3  A    between atoms: C_19  and  O_20 
REMARK    4  A    between atoms: C_24  and  C_25 
REMARK       I    between atoms: C_25  and  N_26 
REMARK    5  A    between atoms: N_26  and  C_27 
ROOT
HETATM    1  C   UNL     1      39.830 -16.055   1.253  1.00  0.00     0.070 C 
HETATM    2  C   UNL     1      40.141 -14.612   0.935  1.00  0.00     0.037 C 
HETATM    3  N   UNL     1      39.464 -14.075  -0.160  1.00  0.00    -0.192 N 
HETATM    4  C   UNL     1      39.800 -12.894  -0.715  1.00  0.00     0.726 A 
HETATM    5  N   UNL     1      40.698 -12.092  -0.073  1.00  0.00    -0.083 N 
HETATM    6  N   UNL     1      40.978 -10.985  -0.784  1.00  0.00    -0.135 NA
HETATM    7  C   UNL     1      40.169 -11.145  -1.847  1.00  0.00     0.199 A 
HETATM    8  N   UNL     1      39.438 -12.324  -1.834  1.00  0.00    -0.041 NA
HETATM    9  C   UNL     1      41.275 -12.394   1.238  1.00  0.00     0.202 C 
HETATM   10  C   UNL     1      41.023 -13.848   1.629  1.00  0.00     0.062 C 
HETATM   11  H   UNL     1      38.902 -14.719  -0.713  1.00  0.00     0.184 HD
ENDROOT
BRANCH  10  12
HETATM   12  C   UNL     1      41.935 -14.467   2.636  1.00  0.00     0.256 C 
HETATM   13  N   UNL     1      41.405 -14.563   3.903  1.00  0.00    -0.323 N 
HETATM   14  H   UNL     1      40.454 -14.255   4.055  1.00  0.00     0.169 HD
HETATM   15  O   UNL     1      43.062 -14.800   2.290  1.00  0.00    -0.267 OA
BRANCH  13  16
HETATM   16  C   UNL     1      42.047 -15.046   5.065  1.00  0.00     0.035 A 
HETATM   17  C   UNL     1      42.182 -16.398   5.382  1.00  0.00     0.029 A 
HETATM   18  C   UNL     1      42.834 -16.788   6.556  1.00  0.00     0.002 A 
HETATM   19  C   UNL     1      43.363 -15.831   7.418  1.00  0.00     0.000 A 
HETATM   20  C   UNL     1      43.236 -14.480   7.111  1.00  0.00     0.002 A 
HETATM   21  C   UNL     1      42.574 -14.089   5.944  1.00  0.00     0.029 A 
ENDBRANCH  13  16
ENDBRANCH  10  12
BRANCH   9  22
HETATM   22  C   UNL     1      40.726 -11.389   2.253  1.00  0.00    -0.025 A 
HETATM   23  C   UNL     1      41.488 -10.289   2.692  1.00  0.00     0.046 A 
HETATM   24  C   UNL     1      40.947  -9.387   3.604  1.00  0.00     0.066 A 
HETATM   25  C   UNL     1      39.663  -9.559   4.100  1.00  0.00     0.036 A 
HETATM   26  C   UNL     1      38.906 -10.655   3.692  1.00  0.00     0.003 A 
HETATM   27  C   UNL     1      39.432 -11.565   2.775  1.00  0.00     0.010 A 
BRANCH  24  28
HETATM   28  O   UNL     1      41.654  -8.305   4.036  1.00  0.00    -0.361 OA
HETATM   29  H   UNL     1      41.510  -7.564   3.424  1.00  0.00     0.217 HD
ENDBRANCH  24  28
ENDBRANCH   9  22
BRANCH   7  30
HETATM   30  C   UNL     1      40.056 -10.168  -2.927  1.00  0.00     0.014 A 
HETATM   31  C   UNL     1      41.133  -9.328  -3.251  1.00  0.00     0.017 A 
HETATM   32  C   UNL     1      41.020  -8.385  -4.278  1.00  0.00     0.025 A 
HETATM   33  C   UNL     1      39.828  -8.280  -4.990  1.00  0.00     0.034 A 
HETATM   34 CL   UNL     1      39.686  -7.119  -6.252  1.00  0.00    -0.084 Cl
HETATM   35  C   UNL     1      38.748  -9.106  -4.683  1.00  0.00     0.025 A 
HETATM   36  C   UNL     1      38.861 -10.047  -3.654  1.00  0.00     0.017 A 
ENDBRANCH   7  30
TORSDOF 5
ENDMDL
