MODEL 1
REMARK VINA RESULT:      -9.1      0.000      0.000
REMARK  11 active torsions:
REMARK  status: ('A' for Active; 'I' for Inactive)
REMARK    1  A    between atoms: C_6  and  C_7 
REMARK    2  A    between atoms: C_7  and  C_8 
REMARK       I    between atoms: C_8  and  N_9 
REMARK    3  A    between atoms: N_9  and  C_10 
REMARK    4  A    between atoms: C_10  and  C_11 
REMARK    5  A    between atoms: C_11  and  N_12 
REMARK    6  A    between atoms: C_17  and  C_18 
REMARK    7  A    between atoms: C_21  and  C_22 
REMARK    8  A    between atoms: C_29  and  C_30 
REMARK    9  A    between atoms: C_30  and  O_31 
REMARK   10  A    between atoms: O_31  and  C_32 
REMARK   11  A    between atoms: C_32  and  C_33 
ROOT
HETATM    1  C   UNL     1      40.193 -15.444   6.820  1.00  0.00     0.071 C 
HETATM    2  C   UNL     1      40.874 -14.593   5.781  1.00  0.00     0.048 C 
HETATM    3  N   UNL     1      40.154 -13.452   5.416  1.00  0.00    -0.229 NA
HETATM    4  C   UNL     1      40.854 -12.457   4.983  1.00  0.00     0.170 C 
HETATM    5  N   UNL     1      42.386 -12.559   4.761  1.00  0.00    -0.319 N 
HETATM    6  C   UNL     1      42.962 -11.484   5.168  1.00  0.00     0.011 C 
HETATM    7  C   UNL     1      42.756 -13.911   4.304  1.00  0.00     0.166 C 
HETATM    8  S   UNL     1      40.335 -10.813   4.902  1.00  0.00    -0.086 SA
HETATM    9  C   UNL     1      42.057 -10.263   5.221  1.00  0.00     0.135 C 
HETATM   10  C   UNL     1      42.120 -14.823   5.306  1.00  0.00     0.069 C 
ENDROOT
BRANCH   6  11
HETATM   11  C   UNL     1      44.366 -11.515   5.696  1.00  0.00     0.156 C 
BRANCH  11  12
HETATM   12  C   UNL     1      44.333 -11.272   7.194  1.00  0.00     0.223 C 
HETATM   13  N   UNL     1      44.892 -10.102   7.637  1.00  0.00    -0.359 N 
HETATM   14  H   UNL     1      45.119  -9.356   6.974  1.00  0.00     0.162 HD
HETATM   15  O   UNL     1      43.972 -12.151   7.972  1.00  0.00    -0.273 OA
BRANCH  13  16
HETATM   16  C   UNL     1      45.360  -9.907   9.018  1.00  0.00     0.150 C 
BRANCH  16  17
HETATM   17  C   UNL     1      44.362  -9.291  10.028  1.00  0.00     0.253 C 
BRANCH  17  18
HETATM   18  N   UNL     1      43.285 -10.257  10.481  1.00  0.00    -0.077 N 
HETATM   19  H   UNL     1      43.178 -10.963   9.726  1.00  0.00     0.279 HD
HETATM   20  C   UNL     1      43.626 -11.037  11.721  1.00  0.00     0.269 C 
HETATM   21  C   UNL     1      41.947  -9.586  10.623  1.00  0.00     0.269 C 
ENDBRANCH  17  18
ENDBRANCH  16  17
ENDBRANCH  13  16
ENDBRANCH  11  12
ENDBRANCH   6  11
BRANCH   7  22
HETATM   22  C   UNL     1      42.236 -14.057   2.862  1.00  0.00    -0.030 C 
HETATM   23  C   UNL     1      42.259 -12.945   1.997  1.00  0.00     0.010 C 
HETATM   24  C   UNL     1      41.446 -12.910   0.861  1.00  0.00     0.008 C 
HETATM   25  C   UNL     1      40.627 -13.998   0.536  1.00  0.00    -0.055 C 
HETATM   26  C   UNL     1      40.752 -15.171   1.287  1.00  0.00     0.008 C 
HETATM   27  C   UNL     1      41.557 -15.208   2.427  1.00  0.00     0.010 C 
BRANCH  25  28
HETATM   28  C   UNL     1      39.568 -13.858  -0.547  1.00  0.00     0.010 C 
HETATM   29  C   UNL     1      38.824 -12.526  -0.482  1.00  0.00     0.015 C 
HETATM   30  C   UNL     1      40.196 -14.064  -1.932  1.00  0.00     0.015 C 
ENDBRANCH  25  28
ENDBRANCH   7  22
BRANCH  10  31
HETATM   31  C   UNL     1      43.091 -15.669   6.002  1.00  0.00     0.294 C 
HETATM   32  O   UNL     1      43.944 -15.136   6.701  1.00  0.00    -0.259 OA
BRANCH  31  33
HETATM   33  O   UNL     1      42.987 -16.942   5.596  1.00  0.00    -0.313 OA
BRANCH  33  34
HETATM   34  C   UNL     1      44.221 -17.577   5.222  1.00  0.00     0.217 C 
BRANCH  34  35
HETATM   35  C   UNL     1      43.953 -18.633   4.188  1.00  0.00    -0.034 A 
HETATM   36  C   UNL     1      44.145 -19.986   4.498  1.00  0.00     0.009 A 
HETATM   37  C   UNL     1      43.890 -20.972   3.544  1.00  0.00     0.001 A 
HETATM   38  C   UNL     1      43.451 -20.615   2.271  1.00  0.00     0.000 A 
HETATM   39  C   UNL     1      43.267 -19.271   1.949  1.00  0.00     0.001 A 
HETATM   40  C   UNL     1      43.520 -18.283   2.900  1.00  0.00     0.009 A 
ENDBRANCH  34  35
ENDBRANCH  33  34
ENDBRANCH  31  33
ENDBRANCH  10  31
TORSDOF 11
ENDMDL
MODEL 2
REMARK VINA RESULT:      -8.9      1.070      1.402
REMARK  11 active torsions:
REMARK  status: ('A' for Active; 'I' for Inactive)
REMARK    1  A    between atoms: C_6  and  C_7 
REMARK    2  A    between atoms: C_7  and  C_8 
REMARK       I    between atoms: C_8  and  N_9 
REMARK    3  A    between atoms: N_9  and  C_10 
REMARK    4  A    between atoms: C_10  and  C_11 
REMARK    5  A    between atoms: C_11  and  N_12 
REMARK    6  A    between atoms: C_17  and  C_18 
REMARK    7  A    between atoms: C_21  and  C_22 
REMARK    8  A    between atoms: C_29  and  C_30 
REMARK    9  A    between atoms: C_30  and  O_31 
REMARK   10  A    between atoms: O_31  and  C_32 
REMARK   11  A    between atoms: C_32  and  C_33 
ROOT
HETATM    1  C   UNL     1      39.898 -15.795   6.853  1.00  0.00     0.071 C 
HETATM    2  C   UNL     1      40.777 -14.815   6.120  1.00  0.00     0.048 C 
HETATM    3  N   UNL     1      40.157 -13.597   5.831  1.00  0.00    -0.229 NA
HETATM    4  C   UNL     1      40.942 -12.578   5.713  1.00  0.00     0.170 C 
HETATM    5  N   UNL     1      42.487 -12.715   5.762  1.00  0.00    -0.319 N 
HETATM    6  C   UNL     1      42.992 -11.751   6.448  1.00  0.00     0.011 C 
HETATM    7  C   UNL     1      42.915 -13.988   5.155  1.00  0.00     0.166 C 
HETATM    8  S   UNL     1      40.473 -10.921   5.823  1.00  0.00    -0.086 SA
HETATM    9  C   UNL     1      42.112 -10.514   6.544  1.00  0.00     0.135 C 
HETATM   10  C   UNL     1      42.087 -15.022   5.850  1.00  0.00     0.069 C 
ENDROOT
BRANCH   6  11
HETATM   11  C   UNL     1      44.269 -11.937   7.212  1.00  0.00     0.156 C 
BRANCH  11  12
HETATM   12  C   UNL     1      44.446 -10.770   8.167  1.00  0.00     0.223 C 
HETATM   13  N   UNL     1      43.705 -10.803   9.318  1.00  0.00    -0.359 N 
HETATM   14  H   UNL     1      43.231 -11.665   9.602  1.00  0.00     0.162 HD
HETATM   15  O   UNL     1      45.094  -9.777   7.842  1.00  0.00    -0.273 OA
BRANCH  13  16
HETATM   16  C   UNL     1      43.393  -9.602  10.108  1.00  0.00     0.150 C 
BRANCH  16  17
HETATM   17  C   UNL     1      41.898  -9.255  10.318  1.00  0.00     0.253 C 
BRANCH  17  18
HETATM   18  N   UNL     1      41.213 -10.131  11.348  1.00  0.00    -0.077 N 
HETATM   19  H   UNL     1      41.419 -11.117  11.090  1.00  0.00     0.279 HD
HETATM   20  C   UNL     1      41.726  -9.963  12.752  1.00  0.00     0.269 C 
HETATM   21  C   UNL     1      39.716  -9.989  11.305  1.00  0.00     0.269 C 
ENDBRANCH  17  18
ENDBRANCH  16  17
ENDBRANCH  13  16
ENDBRANCH  11  12
ENDBRANCH   6  11
BRANCH   7  22
HETATM   22  C   UNL     1      42.676 -13.866   3.639  1.00  0.00    -0.030 C 
HETATM   23  C   UNL     1      42.675 -12.594   3.033  1.00  0.00     0.010 C 
HETATM   24  C   UNL     1      42.071 -12.398   1.789  1.00  0.00     0.008 C 
HETATM   25  C   UNL     1      41.495 -13.470   1.099  1.00  0.00    -0.055 C 
HETATM   26  C   UNL     1      41.668 -14.760   1.612  1.00  0.00     0.008 C 
HETATM   27  C   UNL     1      42.263 -14.960   2.859  1.00  0.00     0.010 C 
BRANCH  25  28
HETATM   28  C   UNL     1      40.626 -13.213  -0.123  1.00  0.00     0.010 C 
HETATM   29  C   UNL     1      39.869 -14.456  -0.586  1.00  0.00     0.015 C 
HETATM   30  C   UNL     1      39.656 -12.056   0.151  1.00  0.00     0.015 C 
ENDBRANCH  25  28
ENDBRANCH   7  22
BRANCH  10  31
HETATM   31  C   UNL     1      42.895 -16.018   6.555  1.00  0.00     0.294 C 
HETATM   32  O   UNL     1      43.584 -15.656   7.501  1.00  0.00    -0.259 OA
BRANCH  31  33
HETATM   33  O   UNL     1      42.881 -17.189   5.903  1.00  0.00    -0.313 OA
BRANCH  33  34
HETATM   34  C   UNL     1      44.147 -17.624   5.380  1.00  0.00     0.217 C 
BRANCH  34  35
HETATM   35  C   UNL     1      43.925 -18.640   4.297  1.00  0.00    -0.034 A 
HETATM   36  C   UNL     1      44.155 -20.000   4.549  1.00  0.00     0.009 A 
HETATM   37  C   UNL     1      43.942 -20.949   3.549  1.00  0.00     0.001 A 
HETATM   38  C   UNL     1      43.507 -20.549   2.287  1.00  0.00     0.000 A 
HETATM   39  C   UNL     1      43.286 -19.198   2.023  1.00  0.00     0.001 A 
HETATM   40  C   UNL     1      43.497 -18.247   3.021  1.00  0.00     0.009 A 
ENDBRANCH  34  35
ENDBRANCH  33  34
ENDBRANCH  31  33
ENDBRANCH  10  31
TORSDOF 11
ENDMDL
MODEL 3
REMARK VINA RESULT:      -8.4      3.051      6.862
REMARK  11 active torsions:
REMARK  status: ('A' for Active; 'I' for Inactive)
REMARK    1  A    between atoms: C_6  and  C_7 
REMARK    2  A    between atoms: C_7  and  C_8 
REMARK       I    between atoms: C_8  and  N_9 
REMARK    3  A    between atoms: N_9  and  C_10 
REMARK    4  A    between atoms: C_10  and  C_11 
REMARK    5  A    between atoms: C_11  and  N_12 
REMARK    6  A    between atoms: C_17  and  C_18 
REMARK    7  A    between atoms: C_21  and  C_22 
REMARK    8  A    between atoms: C_29  and  C_30 
REMARK    9  A    between atoms: C_30  and  O_31 
REMARK   10  A    between atoms: O_31  and  C_32 
REMARK   11  A    between atoms: C_32  and  C_33 
ROOT
HETATM    1  C   UNL     1      41.719 -11.222   0.956  1.00  0.00     0.071 C 
HETATM    2  C   UNL     1      41.882 -12.167   2.119  1.00  0.00     0.048 C 
HETATM    3  N   UNL     1      42.962 -11.865   2.952  1.00  0.00    -0.229 NA
HETATM    4  C   UNL     1      42.853 -12.252   4.180  1.00  0.00     0.170 C 
HETATM    5  N   UNL     1      41.657 -13.109   4.673  1.00  0.00    -0.319 N 
HETATM    6  C   UNL     1      41.265 -12.695   5.826  1.00  0.00     0.011 C 
HETATM    7  C   UNL     1      41.211 -14.036   3.617  1.00  0.00     0.166 C 
HETATM    8  S   UNL     1      43.762 -11.648   5.516  1.00  0.00    -0.086 SA
HETATM    9  C   UNL     1      42.319 -11.932   6.615  1.00  0.00     0.135 C 
HETATM   10  C   UNL     1      41.013 -13.159   2.420  1.00  0.00     0.069 C 
ENDROOT
BRANCH   6  11
HETATM   11  C   UNL     1      39.832 -12.828   6.245  1.00  0.00     0.156 C 
BRANCH  11  12
HETATM   12  C   UNL     1      39.147 -11.482   6.091  1.00  0.00     0.223 C 
HETATM   13  N   UNL     1      39.281 -10.862   4.877  1.00  0.00    -0.359 N 
HETATM   14  H   UNL     1      39.641 -11.380   4.070  1.00  0.00     0.162 HD
HETATM   15  O   UNL     1      38.641 -10.914   7.056  1.00  0.00    -0.273 OA
BRANCH  13  16
HETATM   16  C   UNL     1      39.102  -9.414   4.690  1.00  0.00     0.150 C 
BRANCH  16  17
HETATM   17  C   UNL     1      38.274  -8.951   3.466  1.00  0.00     0.253 C 
BRANCH  17  18
HETATM   18  N   UNL     1      38.965  -9.199   2.140  1.00  0.00    -0.077 N 
HETATM   19  H   UNL     1      39.503 -10.083   2.241  1.00  0.00     0.279 HD
HETATM   20  C   UNL     1      38.032  -9.424   0.981  1.00  0.00     0.269 C 
HETATM   21  C   UNL     1      39.969  -8.128   1.816  1.00  0.00     0.269 C 
ENDBRANCH  17  18
ENDBRANCH  16  17
ENDBRANCH  13  16
ENDBRANCH  11  12
ENDBRANCH   6  11
BRANCH   7  22
HETATM   22  C   UNL     1      42.305 -15.109   3.469  1.00  0.00    -0.030 C 
HETATM   23  C   UNL     1      42.576 -15.658   2.199  1.00  0.00     0.010 C 
HETATM   24  C   UNL     1      43.236 -16.883   2.079  1.00  0.00     0.008 C 
HETATM   25  C   UNL     1      43.680 -17.569   3.215  1.00  0.00    -0.055 C 
HETATM   26  C   UNL     1      43.582 -16.931   4.457  1.00  0.00     0.008 C 
HETATM   27  C   UNL     1      42.916 -15.710   4.582  1.00  0.00     0.010 C 
BRANCH  25  28
HETATM   28  C   UNL     1      44.167 -19.005   3.098  1.00  0.00     0.010 C 
HETATM   29  C   UNL     1      44.236 -19.720   4.446  1.00  0.00     0.015 C 
HETATM   30  C   UNL     1      43.285 -19.785   2.113  1.00  0.00     0.015 C 
ENDBRANCH  25  28
ENDBRANCH   7  22
BRANCH  10  31
HETATM   31  C   UNL     1      39.642 -13.196   1.909  1.00  0.00     0.294 C 
HETATM   32  O   UNL     1      38.807 -12.447   2.402  1.00  0.00    -0.259 OA
BRANCH  31  33
HETATM   33  O   UNL     1      39.479 -14.222   1.062  1.00  0.00    -0.313 OA
BRANCH  33  34
HETATM   34  C   UNL     1      40.189 -14.120  -0.183  1.00  0.00     0.217 C 
BRANCH  34  35
HETATM   35  C   UNL     1      39.211 -13.963  -1.312  1.00  0.00    -0.034 A 
HETATM   36  C   UNL     1      39.099 -14.961  -2.289  1.00  0.00     0.009 A 
HETATM   37  C   UNL     1      38.187 -14.825  -3.336  1.00  0.00     0.001 A 
HETATM   38  C   UNL     1      37.386 -13.689  -3.421  1.00  0.00     0.000 A 
HETATM   39  C   UNL     1      37.497 -12.685  -2.460  1.00  0.00     0.001 A 
HETATM   40  C   UNL     1      38.407 -12.818  -1.412  1.00  0.00     0.009 A 
ENDBRANCH  34  35
ENDBRANCH  33  34
ENDBRANCH  31  33
ENDBRANCH  10  31
TORSDOF 11
ENDMDL
MODEL 4
REMARK VINA RESULT:      -8.2      2.422      6.726
REMARK  11 active torsions:
REMARK  status: ('A' for Active; 'I' for Inactive)
REMARK    1  A    between atoms: C_6  and  C_7 
REMARK    2  A    between atoms: C_7  and  C_8 
REMARK       I    between atoms: C_8  and  N_9 
REMARK    3  A    between atoms: N_9  and  C_10 
REMARK    4  A    between atoms: C_10  and  C_11 
REMARK    5  A    between atoms: C_11  and  N_12 
REMARK    6  A    between atoms: C_17  and  C_18 
REMARK    7  A    between atoms: C_21  and  C_22 
REMARK    8  A    between atoms: C_29  and  C_30 
REMARK    9  A    between atoms: C_30  and  O_31 
REMARK   10  A    between atoms: O_31  and  C_32 
REMARK   11  A    between atoms: C_32  and  C_33 
ROOT
HETATM    1  C   UNL     1      40.085 -14.951   6.744  1.00  0.00     0.071 C 
HETATM    2  C   UNL     1      40.955 -15.012   5.516  1.00  0.00     0.048 C 
HETATM    3  N   UNL     1      40.277 -15.391   4.355  1.00  0.00    -0.229 NA
HETATM    4  C   UNL     1      40.777 -14.963   3.243  1.00  0.00     0.170 C 
HETATM    5  N   UNL     1      42.117 -14.183   3.187  1.00  0.00    -0.319 N 
HETATM    6  C   UNL     1      42.024 -13.209   2.352  1.00  0.00     0.011 C 
HETATM    7  C   UNL     1      43.049 -14.676   4.217  1.00  0.00     0.166 C 
HETATM    8  S   UNL     1      39.949 -14.863   1.732  1.00  0.00    -0.086 SA
HETATM    9  C   UNL     1      40.943 -13.382   1.296  1.00  0.00     0.135 C 
HETATM   10  C   UNL     1      42.253 -14.632   5.483  1.00  0.00     0.069 C 
ENDROOT
BRANCH   6  11
HETATM   11  C   UNL     1      42.819 -11.952   2.544  1.00  0.00     0.156 C 
BRANCH  11  12
HETATM   12  C   UNL     1      41.954 -10.760   2.174  1.00  0.00     0.223 C 
HETATM   13  N   UNL     1      40.985 -10.405   3.073  1.00  0.00    -0.359 N 
HETATM   14  H   UNL     1      40.994 -10.790   4.022  1.00  0.00     0.162 HD
HETATM   15  O   UNL     1      42.019 -10.252   1.057  1.00  0.00    -0.273 OA
BRANCH  13  16
HETATM   16  C   UNL     1      39.798  -9.617   2.706  1.00  0.00     0.150 C 
BRANCH  16  17
HETATM   17  C   UNL     1      38.420 -10.141   3.181  1.00  0.00     0.253 C 
BRANCH  17  18
HETATM   18  N   UNL     1      37.951  -9.519   4.481  1.00  0.00    -0.077 N 
HETATM   19  H   UNL     1      36.920  -9.649   4.522  1.00  0.00     0.279 HD
HETATM   20  C   UNL     1      38.492 -10.177   5.720  1.00  0.00     0.269 C 
HETATM   21  C   UNL     1      38.190  -8.035   4.516  1.00  0.00     0.269 C 
ENDBRANCH  17  18
ENDBRANCH  16  17
ENDBRANCH  13  16
ENDBRANCH  11  12
ENDBRANCH   6  11
BRANCH   7  22
HETATM   22  C   UNL     1      43.504 -16.080   3.777  1.00  0.00    -0.030 C 
HETATM   23  C   UNL     1      43.308 -16.491   2.444  1.00  0.00     0.010 C 
HETATM   24  C   UNL     1      43.316 -17.847   2.108  1.00  0.00     0.008 C 
HETATM   25  C   UNL     1      43.564 -18.821   3.081  1.00  0.00    -0.055 C 
HETATM   26  C   UNL     1      43.949 -18.401   4.359  1.00  0.00     0.008 C 
HETATM   27  C   UNL     1      43.934 -17.047   4.701  1.00  0.00     0.010 C 
BRANCH  25  28
HETATM   28  C   UNL     1      43.325 -20.291   2.768  1.00  0.00     0.010 C 
HETATM   29  C   UNL     1      43.888 -20.708   1.411  1.00  0.00     0.015 C 
HETATM   30  C   UNL     1      43.896 -21.171   3.888  1.00  0.00     0.015 C 
ENDBRANCH  25  28
ENDBRANCH   7  22
BRANCH  10  31
HETATM   31  C   UNL     1      42.853 -13.770   6.503  1.00  0.00     0.294 C 
HETATM   32  O   UNL     1      43.329 -14.287   7.507  1.00  0.00    -0.259 OA
BRANCH  31  33
HETATM   33  O   UNL     1      42.613 -12.479   6.235  1.00  0.00    -0.313 OA
BRANCH  33  34
HETATM   34  C   UNL     1      43.745 -11.716   5.785  1.00  0.00     0.217 C 
BRANCH  34  35
HETATM   35  C   UNL     1      44.339 -10.962   6.939  1.00  0.00    -0.034 A 
HETATM   36  C   UNL     1      43.514 -10.482   7.966  1.00  0.00     0.009 A 
HETATM   37  C   UNL     1      44.062  -9.788   9.045  1.00  0.00     0.001 A 
HETATM   38  C   UNL     1      45.435  -9.561   9.105  1.00  0.00     0.000 A 
HETATM   39  C   UNL     1      46.263 -10.025   8.084  1.00  0.00     0.001 A 
HETATM   40  C   UNL     1      45.719 -10.720   7.004  1.00  0.00     0.009 A 
ENDBRANCH  34  35
ENDBRANCH  33  34
ENDBRANCH  31  33
ENDBRANCH  10  31
TORSDOF 11
ENDMDL
MODEL 5
REMARK VINA RESULT:      -8.1      3.105      6.690
REMARK  11 active torsions:
REMARK  status: ('A' for Active; 'I' for Inactive)
REMARK    1  A    between atoms: C_6  and  C_7 
REMARK    2  A    between atoms: C_7  and  C_8 
REMARK       I    between atoms: C_8  and  N_9 
REMARK    3  A    between atoms: N_9  and  C_10 
REMARK    4  A    between atoms: C_10  and  C_11 
REMARK    5  A    between atoms: C_11  and  N_12 
REMARK    6  A    between atoms: C_17  and  C_18 
REMARK    7  A    between atoms: C_21  and  C_22 
REMARK    8  A    between atoms: C_29  and  C_30 
REMARK    9  A    between atoms: C_30  and  O_31 
REMARK   10  A    between atoms: O_31  and  C_32 
REMARK   11  A    between atoms: C_32  and  C_33 
ROOT
HETATM    1  C   UNL     1      41.706 -10.749   0.691  1.00  0.00     0.071 C 
HETATM    2  C   UNL     1      41.810 -11.712   1.845  1.00  0.00     0.048 C 
HETATM    3  N   UNL     1      42.846 -11.423   2.737  1.00  0.00    -0.229 NA
HETATM    4  C   UNL     1      42.675 -11.829   3.951  1.00  0.00     0.170 C 
HETATM    5  N   UNL     1      41.457 -12.694   4.369  1.00  0.00    -0.319 N 
HETATM    6  C   UNL     1      41.007 -12.298   5.507  1.00  0.00     0.011 C 
HETATM    7  C   UNL     1      41.066 -13.604   3.277  1.00  0.00     0.166 C 
HETATM    8  S   UNL     1      43.514 -11.246   5.341  1.00  0.00    -0.086 SA
HETATM    9  C   UNL     1      42.017 -11.547   6.361  1.00  0.00     0.135 C 
HETATM   10  C   UNL     1      40.928 -12.709   2.086  1.00  0.00     0.069 C 
ENDROOT
BRANCH   6  11
HETATM   11  C   UNL     1      39.554 -12.438   5.851  1.00  0.00     0.156 C 
BRANCH  11  12
HETATM   12  C   UNL     1      38.894 -11.074   5.766  1.00  0.00     0.223 C 
HETATM   13  N   UNL     1      39.004 -10.413   4.571  1.00  0.00    -0.359 N 
HETATM   14  H   UNL     1      39.326 -10.910   3.735  1.00  0.00     0.162 HD
HETATM   15  O   UNL     1      38.431 -10.529   6.766  1.00  0.00    -0.273 OA
BRANCH  13  16
HETATM   16  C   UNL     1      38.850  -8.956   4.441  1.00  0.00     0.150 C 
BRANCH  16  17
HETATM   17  C   UNL     1      40.066  -8.075   4.818  1.00  0.00     0.253 C 
BRANCH  17  18
HETATM   18  N   UNL     1      40.352  -8.043   6.306  1.00  0.00    -0.077 N 
HETATM   19  H   UNL     1      40.167  -9.000   6.669  1.00  0.00     0.279 HD
HETATM   20  C   UNL     1      41.782  -7.744   6.662  1.00  0.00     0.269 C 
HETATM   21  C   UNL     1      39.415  -7.126   7.042  1.00  0.00     0.269 C 
ENDBRANCH  17  18
ENDBRANCH  16  17
ENDBRANCH  13  16
ENDBRANCH  11  12
ENDBRANCH   6  11
BRANCH   7  22
HETATM   22  C   UNL     1      42.167 -14.675   3.168  1.00  0.00    -0.030 C 
HETATM   23  C   UNL     1      42.439 -15.270   1.920  1.00  0.00     0.010 C 
HETATM   24  C   UNL     1      43.107 -16.495   1.846  1.00  0.00     0.008 C 
HETATM   25  C   UNL     1      43.558 -17.133   3.006  1.00  0.00    -0.055 C 
HETATM   26  C   UNL     1      43.458 -16.448   4.222  1.00  0.00     0.008 C 
HETATM   27  C   UNL     1      42.784 -15.228   4.303  1.00  0.00     0.010 C 
BRANCH  25  28
HETATM   28  C   UNL     1      44.055 -18.569   2.944  1.00  0.00     0.010 C 
HETATM   29  C   UNL     1      44.262 -19.187   4.325  1.00  0.00     0.015 C 
HETATM   30  C   UNL     1      43.097 -19.425   2.103  1.00  0.00     0.015 C 
ENDBRANCH  25  28
ENDBRANCH   7  22
BRANCH  10  31
HETATM   31  C   UNL     1      39.585 -12.738   1.505  1.00  0.00     0.294 C 
HETATM   32  O   UNL     1      38.659 -12.235   2.132  1.00  0.00    -0.259 OA
BRANCH  31  33
HETATM   33  O   UNL     1      39.559 -13.505   0.407  1.00  0.00    -0.313 OA
BRANCH  33  34
HETATM   34  C   UNL     1      38.664 -13.075  -0.631  1.00  0.00     0.217 C 
BRANCH  34  35
HETATM   35  C   UNL     1      39.401 -12.201  -1.605  1.00  0.00    -0.034 A 
HETATM   36  C   UNL     1      40.515 -12.699  -2.294  1.00  0.00     0.009 A 
HETATM   37  C   UNL     1      41.199 -11.894  -3.206  1.00  0.00     0.001 A 
HETATM   38  C   UNL     1      40.781 -10.584  -3.431  1.00  0.00     0.000 A 
HETATM   39  C   UNL     1      39.681 -10.076  -2.744  1.00  0.00     0.001 A 
HETATM   40  C   UNL     1      38.995 -10.878  -1.832  1.00  0.00     0.009 A 
ENDBRANCH  34  35
ENDBRANCH  33  34
ENDBRANCH  31  33
ENDBRANCH  10  31
TORSDOF 11
ENDMDL
MODEL 6
REMARK VINA RESULT:      -8.0      2.657      6.595
REMARK  11 active torsions:
REMARK  status: ('A' for Active; 'I' for Inactive)
REMARK    1  A    between atoms: C_6  and  C_7 
REMARK    2  A    between atoms: C_7  and  C_8 
REMARK       I    between atoms: C_8  and  N_9 
REMARK    3  A    between atoms: N_9  and  C_10 
REMARK    4  A    between atoms: C_10  and  C_11 
REMARK    5  A    between atoms: C_11  and  N_12 
REMARK    6  A    between atoms: C_17  and  C_18 
REMARK    7  A    between atoms: C_21  and  C_22 
REMARK    8  A    between atoms: C_29  and  C_30 
REMARK    9  A    between atoms: C_30  and  O_31 
REMARK   10  A    between atoms: O_31  and  C_32 
REMARK   11  A    between atoms: C_32  and  C_33 
ROOT
HETATM    1  C   UNL     1      40.716 -11.880   6.475  1.00  0.00     0.071 C 
HETATM    2  C   UNL     1      40.975 -12.471   5.114  1.00  0.00     0.048 C 
HETATM    3  N   UNL     1      39.835 -12.977   4.484  1.00  0.00    -0.229 NA
HETATM    4  C   UNL     1      39.864 -12.993   3.193  1.00  0.00     0.170 C 
HETATM    5  N   UNL     1      41.130 -12.596   2.390  1.00  0.00    -0.319 N 
HETATM    6  C   UNL     1      40.799 -11.887   1.369  1.00  0.00     0.011 C 
HETATM    7  C   UNL     1      42.351 -13.000   3.110  1.00  0.00     0.166 C 
HETATM    8  S   UNL     1      38.493 -13.109   2.152  1.00  0.00    -0.086 SA
HETATM    9  C   UNL     1      39.362 -12.077   0.907  1.00  0.00     0.135 C 
HETATM   10  C   UNL     1      42.171 -12.431   4.483  1.00  0.00     0.069 C 
ENDROOT
BRANCH   6  11
HETATM   11  C   UNL     1      41.731 -10.850   0.816  1.00  0.00     0.156 C 
BRANCH  11  12
HETATM   12  C   UNL     1      41.250  -9.476   1.249  1.00  0.00     0.223 C 
HETATM   13  N   UNL     1      41.332  -9.192   2.587  1.00  0.00    -0.359 N 
HETATM   14  H   UNL     1      41.881  -9.793   3.209  1.00  0.00     0.162 HD
HETATM   15  O   UNL     1      40.670  -8.730   0.464  1.00  0.00    -0.273 OA
BRANCH  13  16
HETATM   16  C   UNL     1      40.523  -8.152   3.239  1.00  0.00     0.150 C 
BRANCH  16  17
HETATM   17  C   UNL     1      40.161  -8.360   4.730  1.00  0.00     0.253 C 
BRANCH  17  18
HETATM   18  N   UNL     1      40.834  -7.369   5.660  1.00  0.00    -0.077 N 
HETATM   19  H   UNL     1      40.076  -6.859   6.155  1.00  0.00     0.279 HD
HETATM   20  C   UNL     1      41.674  -7.995   6.739  1.00  0.00     0.269 C 
HETATM   21  C   UNL     1      41.618  -6.330   4.907  1.00  0.00     0.269 C 
ENDBRANCH  17  18
ENDBRANCH  16  17
ENDBRANCH  13  16
ENDBRANCH  11  12
ENDBRANCH   6  11
BRANCH   7  22
HETATM   22  C   UNL     1      42.426 -14.537   3.042  1.00  0.00    -0.030 C 
HETATM   23  C   UNL     1      42.566 -15.281   4.231  1.00  0.00     0.010 C 
HETATM   24  C   UNL     1      43.043 -16.594   4.197  1.00  0.00     0.008 C 
HETATM   25  C   UNL     1      43.346 -17.211   2.978  1.00  0.00    -0.055 C 
HETATM   26  C   UNL     1      43.023 -16.539   1.795  1.00  0.00     0.008 C 
HETATM   27  C   UNL     1      42.555 -15.224   1.824  1.00  0.00     0.010 C 
BRANCH  25  28
HETATM   28  C   UNL     1      44.095 -18.535   2.959  1.00  0.00     0.010 C 
HETATM   29  C   UNL     1      44.445 -19.040   4.358  1.00  0.00     0.015 C 
HETATM   30  C   UNL     1      43.289 -19.588   2.187  1.00  0.00     0.015 C 
ENDBRANCH  25  28
ENDBRANCH   7  22
BRANCH  10  31
HETATM   31  C   UNL     1      43.234 -11.495   4.854  1.00  0.00     0.294 C 
HETATM   32  O   UNL     1      43.111 -10.313   4.553  1.00  0.00    -0.259 OA
BRANCH  31  33
HETATM   33  O   UNL     1      44.300 -12.152   5.330  1.00  0.00    -0.313 OA
BRANCH  33  34
HETATM   34  C   UNL     1      44.286 -12.420   6.742  1.00  0.00     0.217 C 
BRANCH  34  35
HETATM   35  C   UNL     1      44.715 -11.194   7.495  1.00  0.00    -0.034 A 
HETATM   36  C   UNL     1      43.862 -10.618   8.447  1.00  0.00     0.009 A 
HETATM   37  C   UNL     1      44.258  -9.484   9.156  1.00  0.00     0.001 A 
HETATM   38  C   UNL     1      45.504  -8.910   8.914  1.00  0.00     0.000 A 
HETATM   39  C   UNL     1      46.356  -9.467   7.962  1.00  0.00     0.001 A 
HETATM   40  C   UNL     1      45.963 -10.602   7.252  1.00  0.00     0.009 A 
ENDBRANCH  34  35
ENDBRANCH  33  34
ENDBRANCH  31  33
ENDBRANCH  10  31
TORSDOF 11
ENDMDL
MODEL 7
REMARK VINA RESULT:      -7.9      2.796      7.375
REMARK  11 active torsions:
REMARK  status: ('A' for Active; 'I' for Inactive)
REMARK    1  A    between atoms: C_6  and  C_7 
REMARK    2  A    between atoms: C_7  and  C_8 
REMARK       I    between atoms: C_8  and  N_9 
REMARK    3  A    between atoms: N_9  and  C_10 
REMARK    4  A    between atoms: C_10  and  C_11 
REMARK    5  A    between atoms: C_11  and  N_12 
REMARK    6  A    between atoms: C_17  and  C_18 
REMARK    7  A    between atoms: C_21  and  C_22 
REMARK    8  A    between atoms: C_29  and  C_30 
REMARK    9  A    between atoms: C_30  and  O_31 
REMARK   10  A    between atoms: O_31  and  C_32 
REMARK   11  A    between atoms: C_32  and  C_33 
ROOT
HETATM    1  C   UNL     1      43.633 -15.030   1.710  1.00  0.00     0.071 C 
HETATM    2  C   UNL     1      42.863 -14.115   2.627  1.00  0.00     0.048 C 
HETATM    3  N   UNL     1      43.141 -12.758   2.445  1.00  0.00    -0.229 NA
HETATM    4  C   UNL     1      42.196 -11.940   2.770  1.00  0.00     0.170 C 
HETATM    5  N   UNL     1      40.881 -12.420   3.439  1.00  0.00    -0.319 N 
HETATM    6  C   UNL     1      39.877 -11.793   2.935  1.00  0.00     0.011 C 
HETATM    7  C   UNL     1      41.140 -13.562   4.334  1.00  0.00     0.166 C 
HETATM    8  S   UNL     1      42.051 -10.301   2.247  1.00  0.00    -0.086 SA
HETATM    9  C   UNL     1      40.222 -10.457   2.295  1.00  0.00     0.135 C 
HETATM   10  C   UNL     1      41.899 -14.530   3.481  1.00  0.00     0.069 C 
ENDROOT
BRANCH   6  11
HETATM   11  C   UNL     1      38.526 -12.439   2.859  1.00  0.00     0.156 C 
BRANCH  11  12
HETATM   12  C   UNL     1      37.870 -12.053   1.545  1.00  0.00     0.223 C 
HETATM   13  N   UNL     1      38.446 -12.547   0.405  1.00  0.00    -0.359 N 
HETATM   14  H   UNL     1      39.141 -13.297   0.461  1.00  0.00     0.162 HD
HETATM   15  O   UNL     1      36.973 -11.214   1.506  1.00  0.00    -0.273 OA
BRANCH  13  16
HETATM   16  C   UNL     1      38.255 -11.938  -0.920  1.00  0.00     0.150 C 
BRANCH  16  17
HETATM   17  C   UNL     1      37.746 -12.854  -2.060  1.00  0.00     0.253 C 
BRANCH  17  18
HETATM   18  N   UNL     1      38.700 -13.983  -2.401  1.00  0.00    -0.077 N 
HETATM   19  H   UNL     1      38.782 -14.575  -1.550  1.00  0.00     0.279 HD
HETATM   20  C   UNL     1      38.218 -14.902  -3.489  1.00  0.00     0.269 C 
HETATM   21  C   UNL     1      40.086 -13.481  -2.700  1.00  0.00     0.269 C 
ENDBRANCH  17  18
ENDBRANCH  16  17
ENDBRANCH  13  16
ENDBRANCH  11  12
ENDBRANCH   6  11
BRANCH   7  22
HETATM   22  C   UNL     1      41.910 -13.016   5.550  1.00  0.00    -0.030 C 
HETATM   23  C   UNL     1      41.713 -11.682   5.958  1.00  0.00     0.010 C 
HETATM   24  C   UNL     1      42.657 -11.036   6.760  1.00  0.00     0.008 C 
HETATM   25  C   UNL     1      43.795 -11.715   7.210  1.00  0.00    -0.055 C 
HETATM   26  C   UNL     1      43.890 -13.089   6.965  1.00  0.00     0.008 C 
HETATM   27  C   UNL     1      42.953 -13.737   6.157  1.00  0.00     0.010 C 
BRANCH  25  28
HETATM   28  C   UNL     1      44.933 -10.946   7.864  1.00  0.00     0.010 C 
HETATM   29  C   UNL     1      46.206 -10.937   7.020  1.00  0.00     0.015 C 
HETATM   30  C   UNL     1      44.487  -9.514   8.191  1.00  0.00     0.015 C 
ENDBRANCH  25  28
ENDBRANCH   7  22
BRANCH  10  31
HETATM   31  C   UNL     1      41.225 -15.823   3.350  1.00  0.00     0.294 C 
HETATM   32  O   UNL     1      40.306 -15.931   2.546  1.00  0.00    -0.259 OA
BRANCH  31  33
HETATM   33  O   UNL     1      41.630 -16.668   4.307  1.00  0.00    -0.313 OA
BRANCH  33  34
HETATM   34  C   UNL     1      43.048 -16.891   4.380  1.00  0.00     0.217 C 
BRANCH  34  35
HETATM   35  C   UNL     1      43.363 -18.294   3.947  1.00  0.00    -0.034 A 
HETATM   36  C   UNL     1      43.825 -19.233   4.881  1.00  0.00     0.009 A 
HETATM   37  C   UNL     1      44.111 -20.539   4.486  1.00  0.00     0.001 A 
HETATM   38  C   UNL     1      43.948 -20.919   3.156  1.00  0.00     0.000 A 
HETATM   39  C   UNL     1      43.499 -19.991   2.217  1.00  0.00     0.001 A 
HETATM   40  C   UNL     1      43.211 -18.684   2.608  1.00  0.00     0.009 A 
ENDBRANCH  34  35
ENDBRANCH  33  34
ENDBRANCH  31  33
ENDBRANCH  10  31
TORSDOF 11
ENDMDL
MODEL 8
REMARK VINA RESULT:      -7.9      1.555      2.047
REMARK  11 active torsions:
REMARK  status: ('A' for Active; 'I' for Inactive)
REMARK    1  A    between atoms: C_6  and  C_7 
REMARK    2  A    between atoms: C_7  and  C_8 
REMARK       I    between atoms: C_8  and  N_9 
REMARK    3  A    between atoms: N_9  and  C_10 
REMARK    4  A    between atoms: C_10  and  C_11 
REMARK    5  A    between atoms: C_11  and  N_12 
REMARK    6  A    between atoms: C_17  and  C_18 
REMARK    7  A    between atoms: C_21  and  C_22 
REMARK    8  A    between atoms: C_29  and  C_30 
REMARK    9  A    between atoms: C_30  and  O_31 
REMARK   10  A    between atoms: O_31  and  C_32 
REMARK   11  A    between atoms: C_32  and  C_33 
ROOT
HETATM    1  C   UNL     1      40.273 -16.098   4.380  1.00  0.00     0.071 C 
HETATM    2  C   UNL     1      40.721 -14.714   3.989  1.00  0.00     0.048 C 
HETATM    3  N   UNL     1      39.904 -13.691   4.475  1.00  0.00    -0.229 NA
HETATM    4  C   UNL     1      40.475 -12.545   4.647  1.00  0.00     0.170 C 
HETATM    5  N   UNL     1      41.945 -12.283   4.223  1.00  0.00    -0.319 N 
HETATM    6  C   UNL     1      42.543 -11.583   5.121  1.00  0.00     0.011 C 
HETATM    7  C   UNL     1      42.277 -13.042   3.004  1.00  0.00     0.166 C 
HETATM    8  S   UNL     1      39.887 -11.259   5.635  1.00  0.00    -0.086 SA
HETATM    9  C   UNL     1      41.616 -10.767   6.008  1.00  0.00     0.135 C 
HETATM   10  C   UNL     1      41.868 -14.445   3.324  1.00  0.00     0.069 C 
ENDROOT
BRANCH   6  11
HETATM   11  C   UNL     1      44.019 -11.723   5.348  1.00  0.00     0.156 C 
BRANCH  11  12
HETATM   12  C   UNL     1      44.300 -11.620   6.837  1.00  0.00     0.223 C 
HETATM   13  N   UNL     1      45.019 -10.530   7.250  1.00  0.00    -0.359 N 
HETATM   14  H   UNL     1      45.165  -9.738   6.618  1.00  0.00     0.162 HD
HETATM   15  O   UNL     1      44.035 -12.548   7.598  1.00  0.00    -0.273 OA
BRANCH  13  16
HETATM   16  C   UNL     1      45.763 -10.493   8.519  1.00  0.00     0.150 C 
BRANCH  16  17
HETATM   17  C   UNL     1      45.070  -9.825   9.732  1.00  0.00     0.253 C 
BRANCH  17  18
HETATM   18  N   UNL     1      43.732 -10.446  10.082  1.00  0.00    -0.077 N 
HETATM   19  H   UNL     1      43.646 -11.314   9.516  1.00  0.00     0.279 HD
HETATM   20  C   UNL     1      43.602 -10.883  11.516  1.00  0.00     0.269 C 
HETATM   21  C   UNL     1      42.579  -9.568   9.684  1.00  0.00     0.269 C 
ENDBRANCH  17  18
ENDBRANCH  16  17
ENDBRANCH  13  16
ENDBRANCH  11  12
ENDBRANCH   6  11
BRANCH   7  22
HETATM   22  C   UNL     1      41.510 -12.385   1.841  1.00  0.00    -0.030 C 
HETATM   23  C   UNL     1      40.804 -13.192   0.928  1.00  0.00     0.010 C 
HETATM   24  C   UNL     1      40.456 -12.703  -0.334  1.00  0.00     0.008 C 
HETATM   25  C   UNL     1      40.761 -11.387  -0.697  1.00  0.00    -0.055 C 
HETATM   26  C   UNL     1      41.286 -10.533   0.278  1.00  0.00     0.008 C 
HETATM   27  C   UNL     1      41.644 -11.020   1.537  1.00  0.00     0.010 C 
BRANCH  25  28
HETATM   28  C   UNL     1      40.608 -10.940  -2.143  1.00  0.00     0.010 C 
HETATM   29  C   UNL     1      41.274  -9.594  -2.422  1.00  0.00     0.015 C 
HETATM   30  C   UNL     1      41.147 -12.020  -3.092  1.00  0.00     0.015 C 
ENDBRANCH  25  28
ENDBRANCH   7  22
BRANCH  10  31
HETATM   31  C   UNL     1      42.981 -15.394   3.245  1.00  0.00     0.294 C 
HETATM   32  O   UNL     1      43.667 -15.416   2.230  1.00  0.00    -0.259 OA
BRANCH  31  33
HETATM   33  O   UNL     1      42.953 -16.245   4.279  1.00  0.00    -0.313 OA
BRANCH  33  34
HETATM   34  C   UNL     1      44.187 -16.927   4.557  1.00  0.00     0.217 C 
BRANCH  34  35
HETATM   35  C   UNL     1      44.052 -18.382   4.209  1.00  0.00    -0.034 A 
HETATM   36  C   UNL     1      44.121 -19.355   5.216  1.00  0.00     0.009 A 
HETATM   37  C   UNL     1      43.987 -20.707   4.901  1.00  0.00     0.001 A 
HETATM   38  C   UNL     1      43.793 -21.100   3.578  1.00  0.00     0.000 A 
HETATM   39  C   UNL     1      43.734 -20.141   2.568  1.00  0.00     0.001 A 
HETATM   40  C   UNL     1      43.866 -18.788   2.880  1.00  0.00     0.009 A 
ENDBRANCH  34  35
ENDBRANCH  33  34
ENDBRANCH  31  33
ENDBRANCH  10  31
TORSDOF 11
ENDMDL
MODEL 9
REMARK VINA RESULT:      -7.6     16.345     19.154
REMARK  11 active torsions:
REMARK  status: ('A' for Active; 'I' for Inactive)
REMARK    1  A    between atoms: C_6  and  C_7 
REMARK    2  A    between atoms: C_7  and  C_8 
REMARK       I    between atoms: C_8  and  N_9 
REMARK    3  A    between atoms: N_9  and  C_10 
REMARK    4  A    between atoms: C_10  and  C_11 
REMARK    5  A    between atoms: C_11  and  N_12 
REMARK    6  A    between atoms: C_17  and  C_18 
REMARK    7  A    between atoms: C_21  and  C_22 
REMARK    8  A    between atoms: C_29  and  C_30 
REMARK    9  A    between atoms: C_30  and  O_31 
REMARK   10  A    between atoms: O_31  and  C_32 
REMARK   11  A    between atoms: C_32  and  C_33 
ROOT
HETATM    1  C   UNL     1      46.134 -31.992   2.323  1.00  0.00     0.071 C 
HETATM    2  C   UNL     1      47.034 -31.474   1.232  1.00  0.00     0.048 C 
HETATM    3  N   UNL     1      47.132 -32.318   0.123  1.00  0.00    -0.229 NA
HETATM    4  C   UNL     1      47.412 -31.745  -1.000  1.00  0.00     0.170 C 
HETATM    5  N   UNL     1      47.744 -30.233  -1.095  1.00  0.00    -0.319 N 
HETATM    6  C   UNL     1      47.178 -29.723  -2.131  1.00  0.00     0.011 C 
HETATM    7  C   UNL     1      48.470 -29.783   0.107  1.00  0.00     0.166 C 
HETATM    8  S   UNL     1      47.149 -32.412  -2.570  1.00  0.00    -0.086 SA
HETATM    9  C   UNL     1      46.839 -30.725  -3.225  1.00  0.00     0.135 C 
HETATM   10  C   UNL     1      47.620 -30.255   1.245  1.00  0.00     0.069 C 
ENDROOT
BRANCH   6  11
HETATM   11  C   UNL     1      46.754 -28.284  -2.147  1.00  0.00     0.156 C 
BRANCH  11  12
HETATM   12  C   UNL     1      45.261 -28.209  -1.877  1.00  0.00     0.223 C 
HETATM   13  N   UNL     1      44.859 -28.452  -0.591  1.00  0.00    -0.359 N 
HETATM   14  H   UNL     1      45.544 -28.470   0.170  1.00  0.00     0.162 HD
HETATM   15  O   UNL     1      44.455 -28.097  -2.798  1.00  0.00    -0.273 OA
BRANCH  13  16
HETATM   16  C   UNL     1      43.493 -28.871  -0.242  1.00  0.00     0.150 C 
BRANCH  16  17
HETATM   17  C   UNL     1      43.329 -30.221   0.500  1.00  0.00     0.253 C 
BRANCH  17  18
HETATM   18  N   UNL     1      42.330 -30.167   1.640  1.00  0.00    -0.077 N 
HETATM   19  H   UNL     1      41.746 -29.320   1.489  1.00  0.00     0.279 HD
HETATM   20  C   UNL     1      41.367 -31.322   1.681  1.00  0.00     0.269 C 
HETATM   21  C   UNL     1      43.002 -29.983   2.972  1.00  0.00     0.269 C 
ENDBRANCH  17  18
ENDBRANCH  16  17
ENDBRANCH  13  16
ENDBRANCH  11  12
ENDBRANCH   6  11
BRANCH   7  22
HETATM   22  C   UNL     1      49.878 -30.402   0.040  1.00  0.00    -0.030 C 
HETATM   23  C   UNL     1      50.616 -30.327  -1.158  1.00  0.00     0.010 C 
HETATM   24  C   UNL     1      51.680 -31.201  -1.394  1.00  0.00     0.008 C 
HETATM   25  C   UNL     1      52.063 -32.137  -0.427  1.00  0.00    -0.055 C 
HETATM   26  C   UNL     1      51.456 -32.078   0.831  1.00  0.00     0.008 C 
HETATM   27  C   UNL     1      50.386 -31.212   1.069  1.00  0.00     0.010 C 
BRANCH  25  28
HETATM   28  C   UNL     1      53.046 -33.243  -0.782  1.00  0.00     0.010 C 
HETATM   29  C   UNL     1      52.576 -34.623  -0.329  1.00  0.00     0.015 C 
HETATM   30  C   UNL     1      53.332 -33.233  -2.290  1.00  0.00     0.015 C 
ENDBRANCH  25  28
ENDBRANCH   7  22
BRANCH  10  31
HETATM   31  C   UNL     1      47.158 -29.161   2.101  1.00  0.00     0.294 C 
HETATM   32  O   UNL     1      46.678 -28.163   1.576  1.00  0.00    -0.259 OA
BRANCH  31  33
HETATM   33  O   UNL     1      47.519 -29.370   3.374  1.00  0.00    -0.313 OA
BRANCH  33  34
HETATM   34  C   UNL     1      48.890 -29.076   3.689  1.00  0.00     0.217 C 
BRANCH  34  35
HETATM   35  C   UNL     1      49.507 -30.243   4.405  1.00  0.00    -0.034 A 
HETATM   36  C   UNL     1      50.887 -30.266   4.653  1.00  0.00     0.009 A 
HETATM   37  C   UNL     1      51.465 -31.344   5.325  1.00  0.00     0.001 A 
HETATM   38  C   UNL     1      50.673 -32.410   5.746  1.00  0.00     0.000 A 
HETATM   39  C   UNL     1      49.302 -32.402   5.494  1.00  0.00     0.001 A 
HETATM   40  C   UNL     1      48.721 -31.326   4.824  1.00  0.00     0.009 A 
ENDBRANCH  34  35
ENDBRANCH  33  34
ENDBRANCH  31  33
ENDBRANCH  10  31
TORSDOF 11
ENDMDL
MODEL 10
REMARK VINA RESULT:      -7.5      3.073     10.245
REMARK  11 active torsions:
REMARK  status: ('A' for Active; 'I' for Inactive)
REMARK    1  A    between atoms: C_6  and  C_7 
REMARK    2  A    between atoms: C_7  and  C_8 
REMARK       I    between atoms: C_8  and  N_9 
REMARK    3  A    between atoms: N_9  and  C_10 
REMARK    4  A    between atoms: C_10  and  C_11 
REMARK    5  A    between atoms: C_11  and  N_12 
REMARK    6  A    between atoms: C_17  and  C_18 
REMARK    7  A    between atoms: C_21  and  C_22 
REMARK    8  A    between atoms: C_29  and  C_30 
REMARK    9  A    between atoms: C_30  and  O_31 
REMARK   10  A    between atoms: O_31  and  C_32 
REMARK   11  A    between atoms: C_32  and  C_33 
ROOT
HETATM    1  C   UNL     1      45.196  -8.196   8.559  1.00  0.00     0.071 C 
HETATM    2  C   UNL     1      43.698  -8.310   8.449  1.00  0.00     0.048 C 
HETATM    3  N   UNL     1      43.125  -7.435   7.522  1.00  0.00    -0.229 NA
HETATM    4  C   UNL     1      42.008  -7.819   6.999  1.00  0.00     0.170 C 
HETATM    5  N   UNL     1      41.280  -9.109   7.459  1.00  0.00    -0.319 N 
HETATM    6  C   UNL     1      40.812  -9.738   6.440  1.00  0.00     0.011 C 
HETATM    7  C   UNL     1      41.474  -9.328   8.904  1.00  0.00     0.166 C 
HETATM    8  S   UNL     1      41.315  -7.217   5.538  1.00  0.00    -0.086 SA
HETATM    9  C   UNL     1      40.590  -8.872   5.209  1.00  0.00     0.135 C 
HETATM   10  C   UNL     1      42.956  -9.241   9.092  1.00  0.00     0.069 C 
ENDROOT
BRANCH   6  11
HETATM   11  C   UNL     1      40.671 -11.231   6.454  1.00  0.00     0.156 C 
BRANCH  11  12
HETATM   12  C   UNL     1      41.763 -11.837   5.591  1.00  0.00     0.223 C 
HETATM   13  N   UNL     1      41.371 -12.791   4.689  1.00  0.00    -0.359 N 
HETATM   14  H   UNL     1      40.379 -12.921   4.474  1.00  0.00     0.162 HD
HETATM   15  O   UNL     1      42.949 -11.599   5.807  1.00  0.00    -0.273 OA
BRANCH  13  16
HETATM   16  C   UNL     1      42.294 -13.786   4.120  1.00  0.00     0.150 C 
BRANCH  16  17
HETATM   17  C   UNL     1      41.833 -15.264   4.116  1.00  0.00     0.253 C 
BRANCH  17  18
HETATM   18  N   UNL     1      42.678 -16.164   4.996  1.00  0.00    -0.077 N 
HETATM   19  H   UNL     1      42.020 -16.762   5.536  1.00  0.00     0.279 HD
HETATM   20  C   UNL     1      43.568 -17.116   4.246  1.00  0.00     0.269 C 
HETATM   21  C   UNL     1      43.466 -15.383   6.012  1.00  0.00     0.269 C 
ENDBRANCH  17  18
ENDBRANCH  16  17
ENDBRANCH  13  16
ENDBRANCH  11  12
ENDBRANCH   6  11
BRANCH   7  22
HETATM   22  C   UNL     1      40.657  -8.247   9.637  1.00  0.00    -0.030 C 
HETATM   23  C   UNL     1      41.323  -7.182  10.274  1.00  0.00     0.010 C 
HETATM   24  C   UNL     1      40.685  -6.437  11.269  1.00  0.00     0.008 C 
HETATM   25  C   UNL     1      39.357  -6.703  11.619  1.00  0.00    -0.055 C 
HETATM   26  C   UNL     1      38.641  -7.629  10.852  1.00  0.00     0.008 C 
HETATM   27  C   UNL     1      39.277  -8.382   9.863  1.00  0.00     0.010 C 
BRANCH  25  28
HETATM   28  C   UNL     1      38.753  -6.066  12.861  1.00  0.00     0.010 C 
HETATM   29  C   UNL     1      39.587  -4.906  13.400  1.00  0.00     0.015 C 
HETATM   30  C   UNL     1      37.313  -5.616  12.578  1.00  0.00     0.015 C 
ENDBRANCH  25  28
ENDBRANCH   7  22
BRANCH  10  31
HETATM   31  C   UNL     1      43.531 -10.467   9.650  1.00  0.00     0.294 C 
HETATM   32  O   UNL     1      43.952 -11.324   8.882  1.00  0.00    -0.259 OA
BRANCH  31  33
HETATM   33  O   UNL     1      43.330 -10.525  10.973  1.00  0.00    -0.313 OA
BRANCH  33  34
HETATM   34  C   UNL     1      43.916  -9.460  11.739  1.00  0.00     0.217 C 
BRANCH  34  35
HETATM   35  C   UNL     1      42.936  -8.980  12.771  1.00  0.00    -0.034 A 
HETATM   36  C   UNL     1      41.738  -9.676  12.982  1.00  0.00     0.009 A 
HETATM   37  C   UNL     1      40.828  -9.240  13.945  1.00  0.00     0.001 A 
HETATM   38  C   UNL     1      41.102  -8.102  14.700  1.00  0.00     0.000 A 
HETATM   39  C   UNL     1      42.286  -7.396  14.492  1.00  0.00     0.001 A 
HETATM   40  C   UNL     1      43.198  -7.830  13.530  1.00  0.00     0.009 A 
ENDBRANCH  34  35
ENDBRANCH  33  34
ENDBRANCH  31  33
ENDBRANCH  10  31
TORSDOF 11
ENDMDL
