MODEL 1
REMARK VINA RESULT:      -9.4      0.000      0.000
REMARK  8 active torsions:
REMARK  status: ('A' for Active; 'I' for Inactive)
REMARK    1  A    between atoms: C_4  and  C_5 
REMARK    2  A    between atoms: C_5  and  N_6 
REMARK    3  A    between atoms: C_5  and  C_31 
REMARK       I    between atoms: N_6  and  C_7 
REMARK    4  A    between atoms: N_6  and  C_21 
REMARK    5  A    between atoms: C_7  and  C_8 
REMARK    6  A    between atoms: C_11  and  C_12 
REMARK    7  A    between atoms: C_21  and  C_22 
REMARK       I    between atoms: C_31  and  N_32 
REMARK    8  A    between atoms: N_32  and  C_33 
ROOT
HETATM    1  N   UNL     1      43.092 -14.183   5.631  1.00  0.00    -0.323 N 
HETATM    2  C   UNL     1      43.498 -13.816   6.915  1.00  0.00     0.271 C 
HETATM    3  O   UNL     1      43.264 -14.542   7.883  1.00  0.00    -0.266 OA
ENDROOT
BRANCH   1   4
HETATM    4  C   UNL     1      42.320 -15.438   5.516  1.00  0.00     0.237 C 
BRANCH   4   5
HETATM    5  C   UNL     1      43.205 -16.543   5.005  1.00  0.00     0.085 A 
HETATM    6  O   UNL     1      42.835 -17.241   3.888  1.00  0.00    -0.317 OA
HETATM    7  C   UNL     1      43.793 -18.182   3.658  1.00  0.00     0.049 A 
HETATM    8  C   UNL     1      43.565 -19.086   2.513  1.00  0.00     0.076 C 
HETATM    9  C   UNL     1      44.800 -18.070   4.590  1.00  0.00     0.035 A 
HETATM   10  C   UNL     1      44.425 -17.015   5.456  1.00  0.00     0.038 A 
ENDBRANCH   4   5
BRANCH   4  11
HETATM   11  C   UNL     1      40.947 -15.222   4.822  1.00  0.00     0.247 C 
HETATM   12  N   UNL     1      40.918 -15.153   3.451  1.00  0.00    -0.354 N 
HETATM   13  H   UNL     1      41.812 -15.253   2.979  1.00  0.00     0.162 HD
HETATM   14  O   UNL     1      39.933 -15.068   5.505  1.00  0.00    -0.271 OA
BRANCH  12  15
HETATM   15  C   UNL     1      39.760 -14.943   2.584  1.00  0.00     0.084 C 
HETATM   16  C   UNL     1      39.267 -13.489   2.542  1.00  0.00     0.025 C 
HETATM   17  C   UNL     1      39.819 -12.646   1.394  1.00  0.00     0.002 C 
HETATM   18  C   UNL     1      39.724 -13.367   0.057  1.00  0.00     0.000 C 
HETATM   19  C   UNL     1      40.423 -14.719   0.098  1.00  0.00     0.002 C 
HETATM   20  C   UNL     1      39.878 -15.612   1.209  1.00  0.00     0.025 C 
ENDBRANCH  12  15
ENDBRANCH   4  11
ENDBRANCH   1   4
BRANCH   1  21
HETATM   21  C   UNL     1      43.215 -13.353   4.430  1.00  0.00     0.166 C 
BRANCH  21  22
HETATM   22  C   UNL     1      42.373 -12.097   4.339  1.00  0.00    -0.037 A 
HETATM   23  C   UNL     1      41.301 -11.969   5.246  1.00  0.00     0.048 A 
HETATM   24  C   UNL     1      40.493 -10.854   5.168  1.00  0.00     0.105 A 
HETATM   25  C   UNL     1      40.700  -9.877   4.228  1.00  0.00     0.105 A 
HETATM   26  O   UNL     1      39.429 -10.587   5.972  1.00  0.00    -0.323 OA
HETATM   27  O   UNL     1      39.795  -8.867   4.320  1.00  0.00    -0.323 OA
HETATM   28  C   UNL     1      41.728  -9.960   3.318  1.00  0.00     0.040 A 
HETATM   29  C   UNL     1      38.989  -9.327   5.423  1.00  0.00     0.352 A 
HETATM   30  C   UNL     1      42.570 -11.079   3.379  1.00  0.00     0.012 A 
ENDBRANCH  21  22
ENDBRANCH   1  21
BRANCH   2  31
HETATM   31  C   UNL     1      44.127 -12.533   7.151  1.00  0.00     0.101 A 
HETATM   32  N   UNL     1      43.587 -11.666   8.080  1.00  0.00    -0.351 N 
HETATM   33  H   UNL     1      42.770 -11.889   8.634  1.00  0.00     0.166 HD
HETATM   34  C   UNL     1      44.280 -10.479   8.129  1.00  0.00     0.043 A 
HETATM   35  C   UNL     1      45.370 -10.642   7.293  1.00  0.00     0.033 A 
HETATM   36  C   UNL     1      45.286 -11.929   6.698  1.00  0.00     0.037 A 
BRANCH  34  37
HETATM   37  C   UNL     1      43.872  -9.358   8.979  1.00  0.00    -0.009 A 
HETATM   38  C   UNL     1      43.676  -9.540  10.354  1.00  0.00     0.013 A 
HETATM   39  C   UNL     1      43.281  -8.474  11.168  1.00  0.00     0.001 A 
HETATM   40  C   UNL     1      43.080  -7.211  10.615  1.00  0.00     0.000 A 
HETATM   41  C   UNL     1      43.277  -7.011   9.252  1.00  0.00     0.001 A 
HETATM   42  C   UNL     1      43.673  -8.077   8.439  1.00  0.00     0.013 A 
ENDBRANCH  34  37
ENDBRANCH   2  31
TORSDOF 8
ENDMDL
MODEL 2
REMARK VINA RESULT:      -9.4      2.500      8.140
REMARK  8 active torsions:
REMARK  status: ('A' for Active; 'I' for Inactive)
REMARK    1  A    between atoms: C_4  and  C_5 
REMARK    2  A    between atoms: C_5  and  N_6 
REMARK    3  A    between atoms: C_5  and  C_31 
REMARK       I    between atoms: N_6  and  C_7 
REMARK    4  A    between atoms: N_6  and  C_21 
REMARK    5  A    between atoms: C_7  and  C_8 
REMARK    6  A    between atoms: C_11  and  C_12 
REMARK    7  A    between atoms: C_21  and  C_22 
REMARK       I    between atoms: C_31  and  N_32 
REMARK    8  A    between atoms: N_32  and  C_33 
ROOT
HETATM    1  N   UNL     1      40.377 -13.213   2.786  1.00  0.00    -0.323 N 
HETATM    2  C   UNL     1      40.311 -14.584   2.532  1.00  0.00     0.271 C 
HETATM    3  O   UNL     1      39.241 -15.189   2.603  1.00  0.00    -0.266 OA
ENDROOT
BRANCH   1   4
HETATM    4  C   UNL     1      39.120 -12.557   3.203  1.00  0.00     0.237 C 
BRANCH   4   5
HETATM    5  C   UNL     1      38.656 -11.605   2.135  1.00  0.00     0.085 A 
HETATM    6  O   UNL     1      38.003 -10.457   2.492  1.00  0.00    -0.317 OA
HETATM    7  C   UNL     1      37.683  -9.794   1.347  1.00  0.00     0.049 A 
HETATM    8  C   UNL     1      36.925  -8.537   1.504  1.00  0.00     0.076 C 
HETATM    9  C   UNL     1      38.161 -10.481   0.253  1.00  0.00     0.035 A 
HETATM   10  C   UNL     1      38.788 -11.644   0.758  1.00  0.00     0.038 A 
ENDBRANCH   4   5
BRANCH   4  11
HETATM   11  C   UNL     1      39.185 -12.039   4.666  1.00  0.00     0.247 C 
HETATM   12  N   UNL     1      39.433 -10.704   4.870  1.00  0.00    -0.354 N 
HETATM   13  H   UNL     1      39.556 -10.139   4.035  1.00  0.00     0.162 HD
HETATM   14  O   UNL     1      39.065 -12.832   5.603  1.00  0.00    -0.271 OA
BRANCH  12  15
HETATM   15  C   UNL     1      39.553  -9.995   6.142  1.00  0.00     0.084 C 
HETATM   16  C   UNL     1      40.929 -10.140   6.812  1.00  0.00     0.025 C 
HETATM   17  C   UNL     1      41.921  -9.020   6.511  1.00  0.00     0.002 C 
HETATM   18  C   UNL     1      41.298  -7.641   6.680  1.00  0.00     0.000 C 
HETATM   19  C   UNL     1      40.051  -7.481   5.821  1.00  0.00     0.002 C 
HETATM   20  C   UNL     1      39.012  -8.560   6.112  1.00  0.00     0.025 C 
ENDBRANCH  12  15
ENDBRANCH   4  11
ENDBRANCH   1   4
BRANCH   1  21
HETATM   21  C   UNL     1      41.605 -12.415   2.840  1.00  0.00     0.166 C 
BRANCH  21  22
HETATM   22  C   UNL     1      42.427 -12.454   4.112  1.00  0.00    -0.037 A 
HETATM   23  C   UNL     1      43.486 -11.529   4.227  1.00  0.00     0.048 A 
HETATM   24  C   UNL     1      44.275 -11.559   5.357  1.00  0.00     0.105 A 
HETATM   25  C   UNL     1      44.064 -12.469   6.362  1.00  0.00     0.105 A 
HETATM   26  O   UNL     1      45.325 -10.733   5.615  1.00  0.00    -0.323 OA
HETATM   27  O   UNL     1      44.950 -12.331   7.384  1.00  0.00    -0.323 OA
HETATM   28  C   UNL     1      43.048 -13.394   6.293  1.00  0.00     0.040 A 
HETATM   29  C   UNL     1      45.750 -11.234   6.900  1.00  0.00     0.352 A 
HETATM   30  C   UNL     1      42.225 -13.381   5.159  1.00  0.00     0.012 A 
ENDBRANCH  21  22
ENDBRANCH   1  21
BRANCH   2  31
HETATM   31  C   UNL     1      41.516 -15.343   2.264  1.00  0.00     0.101 A 
HETATM   32  N   UNL     1      41.670 -16.600   2.812  1.00  0.00    -0.351 N 
HETATM   33  H   UNL     1      40.963 -17.041   3.388  1.00  0.00     0.166 HD
HETATM   34  C   UNL     1      42.892 -17.145   2.498  1.00  0.00     0.043 A 
HETATM   35  C   UNL     1      43.487 -16.257   1.619  1.00  0.00     0.033 A 
HETATM   36  C   UNL     1      42.622 -15.143   1.458  1.00  0.00     0.037 A 
BRANCH  34  37
HETATM   37  C   UNL     1      43.339 -18.440   3.015  1.00  0.00    -0.009 A 
HETATM   38  C   UNL     1      43.806 -18.560   4.331  1.00  0.00     0.013 A 
HETATM   39  C   UNL     1      44.239 -19.794   4.826  1.00  0.00     0.001 A 
HETATM   40  C   UNL     1      44.205 -20.924   4.013  1.00  0.00     0.000 A 
HETATM   41  C   UNL     1      43.737 -20.824   2.706  1.00  0.00     0.001 A 
HETATM   42  C   UNL     1      43.304 -19.591   2.210  1.00  0.00     0.013 A 
ENDBRANCH  34  37
ENDBRANCH   2  31
TORSDOF 8
ENDMDL
MODEL 3
REMARK VINA RESULT:      -9.3      3.264      7.859
REMARK  8 active torsions:
REMARK  status: ('A' for Active; 'I' for Inactive)
REMARK    1  A    between atoms: C_4  and  C_5 
REMARK    2  A    between atoms: C_5  and  N_6 
REMARK    3  A    between atoms: C_5  and  C_31 
REMARK       I    between atoms: N_6  and  C_7 
REMARK    4  A    between atoms: N_6  and  C_21 
REMARK    5  A    between atoms: C_7  and  C_8 
REMARK    6  A    between atoms: C_11  and  C_12 
REMARK    7  A    between atoms: C_21  and  C_22 
REMARK       I    between atoms: C_31  and  N_32 
REMARK    8  A    between atoms: N_32  and  C_33 
ROOT
HETATM    1  N   UNL     1      41.109 -14.338   1.814  1.00  0.00    -0.323 N 
HETATM    2  C   UNL     1      40.151 -14.789   0.904  1.00  0.00     0.271 C 
HETATM    3  O   UNL     1      39.623 -15.894   1.040  1.00  0.00    -0.266 OA
ENDROOT
BRANCH   1   4
HETATM    4  C   UNL     1      41.493 -15.277   2.889  1.00  0.00     0.237 C 
BRANCH   4   5
HETATM    5  C   UNL     1      41.584 -14.547   4.202  1.00  0.00     0.085 A 
HETATM    6  O   UNL     1      42.813 -14.286   4.744  1.00  0.00    -0.317 OA
HETATM    7  C   UNL     1      42.611 -13.640   5.925  1.00  0.00     0.049 A 
HETATM    8  C   UNL     1      43.818 -13.302   6.705  1.00  0.00     0.076 C 
HETATM    9  C   UNL     1      41.263 -13.442   6.132  1.00  0.00     0.035 A 
HETATM   10  C   UNL     1      40.603 -14.023   5.024  1.00  0.00     0.038 A 
ENDBRANCH   4   5
BRANCH   4  11
HETATM   11  C   UNL     1      42.680 -16.191   2.476  1.00  0.00     0.247 C 
HETATM   12  N   UNL     1      43.011 -17.236   3.303  1.00  0.00    -0.354 N 
HETATM   13  H   UNL     1      42.443 -17.342   4.139  1.00  0.00     0.162 HD
HETATM   14  O   UNL     1      43.325 -15.934   1.458  1.00  0.00    -0.271 OA
BRANCH  12  15
HETATM   15  C   UNL     1      44.085 -18.211   3.135  1.00  0.00     0.084 C 
HETATM   16  C   UNL     1      44.659 -18.744   4.457  1.00  0.00     0.025 C 
HETATM   17  C   UNL     1      44.046 -20.050   4.954  1.00  0.00     0.002 C 
HETATM   18  C   UNL     1      43.961 -21.099   3.853  1.00  0.00     0.000 C 
HETATM   19  C   UNL     1      43.189 -20.584   2.646  1.00  0.00     0.002 C 
HETATM   20  C   UNL     1      43.788 -19.295   2.091  1.00  0.00     0.025 C 
ENDBRANCH  12  15
ENDBRANCH   4  11
ENDBRANCH   1   4
BRANCH   1  21
HETATM   21  C   UNL     1      41.881 -13.099   1.692  1.00  0.00     0.166 C 
BRANCH  21  22
HETATM   22  C   UNL     1      41.124 -11.787   1.638  1.00  0.00    -0.037 A 
HETATM   23  C   UNL     1      40.132 -11.572   2.617  1.00  0.00     0.048 A 
HETATM   24  C   UNL     1      39.400 -10.403   2.576  1.00  0.00     0.105 A 
HETATM   25  C   UNL     1      39.606  -9.456   1.605  1.00  0.00     0.105 A 
HETATM   26  O   UNL     1      38.419 -10.051   3.449  1.00  0.00    -0.323 OA
HETATM   27  O   UNL     1      38.783  -8.383   1.743  1.00  0.00    -0.323 OA
HETATM   28  C   UNL     1      40.557  -9.624   0.626  1.00  0.00     0.040 A 
HETATM   29  C   UNL     1      38.029  -8.770   2.909  1.00  0.00     0.352 A 
HETATM   30  C   UNL     1      41.321 -10.799   0.648  1.00  0.00     0.012 A 
ENDBRANCH  21  22
ENDBRANCH   1  21
BRANCH   2  31
HETATM   31  C   UNL     1      39.819 -14.004  -0.267  1.00  0.00     0.101 A 
HETATM   32  N   UNL     1      38.765 -13.116  -0.220  1.00  0.00    -0.351 N 
HETATM   33  H   UNL     1      38.210 -12.961   0.613  1.00  0.00     0.166 HD
HETATM   34  C   UNL     1      38.562 -12.503  -1.434  1.00  0.00     0.043 A 
HETATM   35  C   UNL     1      39.598 -12.924  -2.248  1.00  0.00     0.033 A 
HETATM   36  C   UNL     1      40.393 -13.845  -1.516  1.00  0.00     0.037 A 
BRANCH  34  37
HETATM   37  C   UNL     1      37.460 -11.569  -1.676  1.00  0.00    -0.009 A 
HETATM   38  C   UNL     1      36.735 -11.618  -2.874  1.00  0.00     0.013 A 
HETATM   39  C   UNL     1      35.686 -10.724  -3.111  1.00  0.00     0.001 A 
HETATM   40  C   UNL     1      35.347  -9.773  -2.151  1.00  0.00     0.000 A 
HETATM   41  C   UNL     1      36.054  -9.716  -0.953  1.00  0.00     0.001 A 
HETATM   42  C   UNL     1      37.102 -10.609  -0.716  1.00  0.00     0.013 A 
ENDBRANCH  34  37
ENDBRANCH   2  31
TORSDOF 8
ENDMDL
MODEL 4
REMARK VINA RESULT:      -9.3      1.762      8.143
REMARK  8 active torsions:
REMARK  status: ('A' for Active; 'I' for Inactive)
REMARK    1  A    between atoms: C_4  and  C_5 
REMARK    2  A    between atoms: C_5  and  N_6 
REMARK    3  A    between atoms: C_5  and  C_31 
REMARK       I    between atoms: N_6  and  C_7 
REMARK    4  A    between atoms: N_6  and  C_21 
REMARK    5  A    between atoms: C_7  and  C_8 
REMARK    6  A    between atoms: C_11  and  C_12 
REMARK    7  A    between atoms: C_21  and  C_22 
REMARK       I    between atoms: C_31  and  N_32 
REMARK    8  A    between atoms: N_32  and  C_33 
ROOT
HETATM    1  N   UNL     1      42.269 -13.035   6.458  1.00  0.00    -0.323 N 
HETATM    2  C   UNL     1      43.455 -13.736   6.680  1.00  0.00     0.271 C 
HETATM    3  O   UNL     1      44.528 -13.142   6.797  1.00  0.00    -0.266 OA
ENDROOT
BRANCH   1   4
HETATM    4  C   UNL     1      42.386 -11.569   6.309  1.00  0.00     0.237 C 
BRANCH   4   5
HETATM    5  C   UNL     1      42.372 -11.197   4.850  1.00  0.00     0.085 A 
HETATM    6  O   UNL     1      41.474 -10.269   4.400  1.00  0.00    -0.317 OA
HETATM    7  C   UNL     1      41.662 -10.134   3.058  1.00  0.00     0.049 A 
HETATM    8  C   UNL     1      40.754  -9.204   2.357  1.00  0.00     0.076 C 
HETATM    9  C   UNL     1      42.703 -10.935   2.643  1.00  0.00     0.035 A 
HETATM   10  C   UNL     1      43.161 -11.617   3.795  1.00  0.00     0.038 A 
ENDBRANCH   4   5
BRANCH   4  11
HETATM   11  C   UNL     1      43.509 -10.975   7.203  1.00  0.00     0.247 C 
HETATM   12  N   UNL     1      43.283 -10.890   8.555  1.00  0.00    -0.354 N 
HETATM   13  H   UNL     1      42.383 -11.232   8.881  1.00  0.00     0.162 HD
HETATM   14  O   UNL     1      44.543 -10.549   6.686  1.00  0.00    -0.271 OA
BRANCH  12  15
HETATM   15  C   UNL     1      44.174 -10.360   9.585  1.00  0.00     0.084 C 
HETATM   16  C   UNL     1      44.295  -8.829   9.579  1.00  0.00     0.025 C 
HETATM   17  C   UNL     1      43.354  -8.096  10.532  1.00  0.00     0.002 C 
HETATM   18  C   UNL     1      43.360  -8.708  11.926  1.00  0.00     0.000 C 
HETATM   19  C   UNL     1      43.018 -10.192  11.889  1.00  0.00     0.002 C 
HETATM   20  C   UNL     1      43.958 -10.973  10.975  1.00  0.00     0.025 C 
ENDBRANCH  12  15
ENDBRANCH   4  11
ENDBRANCH   1   4
BRANCH   1  21
HETATM   21  C   UNL     1      40.960 -13.638   6.193  1.00  0.00     0.166 C 
BRANCH  21  22
HETATM   22  C   UNL     1      40.462 -13.668   4.763  1.00  0.00    -0.037 A 
HETATM   23  C   UNL     1      41.102 -14.555   3.873  1.00  0.00     0.048 A 
HETATM   24  C   UNL     1      40.697 -14.582   2.555  1.00  0.00     0.105 A 
HETATM   25  C   UNL     1      39.699 -13.764   2.089  1.00  0.00     0.105 A 
HETATM   26  O   UNL     1      41.210 -15.383   1.583  1.00  0.00    -0.323 OA
HETATM   27  O   UNL     1      39.453 -13.946   0.764  1.00  0.00    -0.323 OA
HETATM   28  C   UNL     1      39.051 -12.878   2.917  1.00  0.00     0.040 A 
HETATM   29  C   UNL     1      40.419 -14.969   0.449  1.00  0.00     0.352 A 
HETATM   30  C   UNL     1      39.437 -12.835   4.263  1.00  0.00     0.012 A 
ENDBRANCH  21  22
ENDBRANCH   1  21
BRANCH   2  31
HETATM   31  C   UNL     1      43.464 -15.185   6.691  1.00  0.00     0.101 A 
HETATM   32  N   UNL     1      43.613 -15.877   5.506  1.00  0.00    -0.351 N 
HETATM   33  H   UNL     1      43.740 -15.420   4.612  1.00  0.00     0.166 HD
HETATM   34  C   UNL     1      43.541 -17.237   5.700  1.00  0.00     0.043 A 
HETATM   35  C   UNL     1      43.467 -17.420   7.069  1.00  0.00     0.033 A 
HETATM   36  C   UNL     1      43.439 -16.142   7.688  1.00  0.00     0.037 A 
BRANCH  34  37
HETATM   37  C   UNL     1      43.595 -18.198   4.597  1.00  0.00    -0.009 A 
HETATM   38  C   UNL     1      43.261 -17.808   3.293  1.00  0.00     0.013 A 
HETATM   39  C   UNL     1      43.306 -18.724   2.238  1.00  0.00     0.001 A 
HETATM   40  C   UNL     1      43.690 -20.042   2.474  1.00  0.00     0.000 A 
HETATM   41  C   UNL     1      44.032 -20.445   3.762  1.00  0.00     0.001 A 
HETATM   42  C   UNL     1      43.987 -19.529   4.816  1.00  0.00     0.013 A 
ENDBRANCH  34  37
ENDBRANCH   2  31
TORSDOF 8
ENDMDL
MODEL 5
REMARK VINA RESULT:      -9.2      2.183      7.473
REMARK  8 active torsions:
REMARK  status: ('A' for Active; 'I' for Inactive)
REMARK    1  A    between atoms: C_4  and  C_5 
REMARK    2  A    between atoms: C_5  and  N_6 
REMARK    3  A    between atoms: C_5  and  C_31 
REMARK       I    between atoms: N_6  and  C_7 
REMARK    4  A    between atoms: N_6  and  C_21 
REMARK    5  A    between atoms: C_7  and  C_8 
REMARK    6  A    between atoms: C_11  and  C_12 
REMARK    7  A    between atoms: C_21  and  C_22 
REMARK       I    between atoms: C_31  and  N_32 
REMARK    8  A    between atoms: N_32  and  C_33 
ROOT
HETATM    1  N   UNL     1      42.576 -12.432   6.280  1.00  0.00    -0.323 N 
HETATM    2  C   UNL     1      43.660 -13.276   6.525  1.00  0.00     0.271 C 
HETATM    3  O   UNL     1      44.805 -12.829   6.598  1.00  0.00    -0.266 OA
ENDROOT
BRANCH   1   4
HETATM    4  C   UNL     1      42.888 -11.006   6.050  1.00  0.00     0.237 C 
BRANCH   4   5
HETATM    5  C   UNL     1      42.364 -10.173   7.189  1.00  0.00     0.085 A 
HETATM    6  O   UNL     1      41.061  -9.756   7.175  1.00  0.00    -0.317 OA
HETATM    7  C   UNL     1      40.856  -9.014   8.299  1.00  0.00     0.049 A 
HETATM    8  C   UNL     1      39.514  -8.422   8.460  1.00  0.00     0.076 C 
HETATM    9  C   UNL     1      42.003  -8.986   9.062  1.00  0.00     0.035 A 
HETATM   10  C   UNL     1      42.972  -9.731   8.350  1.00  0.00     0.038 A 
ENDBRANCH   4   5
BRANCH   4  11
HETATM   11  C   UNL     1      42.552 -10.557   4.601  1.00  0.00     0.247 C 
HETATM   12  N   UNL     1      41.421  -9.804   4.402  1.00  0.00    -0.354 N 
HETATM   13  H   UNL     1      40.876  -9.588   5.232  1.00  0.00     0.162 HD
HETATM   14  O   UNL     1      43.267 -10.921   3.666  1.00  0.00    -0.271 OA
BRANCH  12  15
HETATM   15  C   UNL     1      40.897  -9.283   3.142  1.00  0.00     0.084 C 
HETATM   16  C   UNL     1      40.025 -10.283   2.366  1.00  0.00     0.025 C 
HETATM   17  C   UNL     1      38.524 -10.170   2.615  1.00  0.00     0.002 C 
HETATM   18  C   UNL     1      38.035  -8.730   2.527  1.00  0.00     0.000 C 
HETATM   19  C   UNL     1      38.795  -7.821   3.483  1.00  0.00     0.002 C 
HETATM   20  C   UNL     1      40.302  -7.873   3.247  1.00  0.00     0.025 C 
ENDBRANCH  12  15
ENDBRANCH   4  11
ENDBRANCH   1   4
BRANCH   1  21
HETATM   21  C   UNL     1      41.192 -12.864   6.063  1.00  0.00     0.166 C 
BRANCH  21  22
HETATM   22  C   UNL     1      40.911 -13.813   4.916  1.00  0.00    -0.037 A 
HETATM   23  C   UNL     1      41.066 -13.311   3.607  1.00  0.00     0.048 A 
HETATM   24  C   UNL     1      40.785 -14.139   2.540  1.00  0.00     0.105 A 
HETATM   25  C   UNL     1      40.351 -15.427   2.720  1.00  0.00     0.105 A 
HETATM   26  O   UNL     1      40.891 -13.803   1.227  1.00  0.00    -0.323 OA
HETATM   27  O   UNL     1      40.131 -16.071   1.543  1.00  0.00    -0.323 OA
HETATM   28  C   UNL     1      40.179 -15.959   3.977  1.00  0.00     0.040 A 
HETATM   29  C   UNL     1      40.469 -15.034   0.601  1.00  0.00     0.352 A 
HETATM   30  C   UNL     1      40.465 -15.143   5.080  1.00  0.00     0.012 A 
ENDBRANCH  21  22
ENDBRANCH   1  21
BRANCH   2  31
HETATM   31  C   UNL     1      43.472 -14.710   6.614  1.00  0.00     0.101 A 
HETATM   32  N   UNL     1      43.742 -15.505   5.518  1.00  0.00    -0.351 N 
HETATM   33  H   UNL     1      44.091 -15.137   4.642  1.00  0.00     0.166 HD
HETATM   34  C   UNL     1      43.454 -16.826   5.766  1.00  0.00     0.043 A 
HETATM   35  C   UNL     1      43.106 -16.893   7.103  1.00  0.00     0.033 A 
HETATM   36  C   UNL     1      43.136 -15.577   7.637  1.00  0.00     0.037 A 
BRANCH  34  37
HETATM   37  C   UNL     1      43.580 -17.870   4.746  1.00  0.00    -0.009 A 
HETATM   38  C   UNL     1      43.984 -19.165   5.097  1.00  0.00     0.013 A 
HETATM   39  C   UNL     1      44.111 -20.162   4.125  1.00  0.00     0.001 A 
HETATM   40  C   UNL     1      43.832 -19.877   2.790  1.00  0.00     0.000 A 
HETATM   41  C   UNL     1      43.423 -18.597   2.426  1.00  0.00     0.001 A 
HETATM   42  C   UNL     1      43.296 -17.600   3.397  1.00  0.00     0.013 A 
ENDBRANCH  34  37
ENDBRANCH   2  31
TORSDOF 8
ENDMDL
MODEL 6
REMARK VINA RESULT:      -9.2      2.198      8.438
REMARK  8 active torsions:
REMARK  status: ('A' for Active; 'I' for Inactive)
REMARK    1  A    between atoms: C_4  and  C_5 
REMARK    2  A    between atoms: C_5  and  N_6 
REMARK    3  A    between atoms: C_5  and  C_31 
REMARK       I    between atoms: N_6  and  C_7 
REMARK    4  A    between atoms: N_6  and  C_21 
REMARK    5  A    between atoms: C_7  and  C_8 
REMARK    6  A    between atoms: C_11  and  C_12 
REMARK    7  A    between atoms: C_21  and  C_22 
REMARK       I    between atoms: C_31  and  N_32 
REMARK    8  A    between atoms: N_32  and  C_33 
ROOT
HETATM    1  N   UNL     1      42.355 -12.309   4.291  1.00  0.00    -0.323 N 
HETATM    2  C   UNL     1      42.331 -13.666   4.621  1.00  0.00     0.271 C 
HETATM    3  O   UNL     1      42.005 -14.036   5.749  1.00  0.00    -0.266 OA
ENDROOT
BRANCH   1   4
HETATM    4  C   UNL     1      42.036 -11.360   5.378  1.00  0.00     0.237 C 
BRANCH   4   5
HETATM    5  C   UNL     1      41.063 -10.322   4.887  1.00  0.00     0.085 A 
HETATM    6  O   UNL     1      41.496  -9.043   4.669  1.00  0.00    -0.317 OA
HETATM    7  C   UNL     1      40.425  -8.313   4.251  1.00  0.00     0.049 A 
HETATM    8  C   UNL     1      40.663  -6.878   4.000  1.00  0.00     0.076 C 
HETATM    9  C   UNL     1      39.312  -9.120   4.154  1.00  0.00     0.035 A 
HETATM   10  C   UNL     1      39.722 -10.411   4.561  1.00  0.00     0.038 A 
ENDBRANCH   4   5
BRANCH   4  11
HETATM   11  C   UNL     1      43.308 -10.874   6.126  1.00  0.00     0.247 C 
HETATM   12  N   UNL     1      43.147 -10.027   7.195  1.00  0.00    -0.354 N 
HETATM   13  H   UNL     1      42.190  -9.777   7.427  1.00  0.00     0.162 HD
HETATM   14  O   UNL     1      44.422 -11.210   5.721  1.00  0.00    -0.271 OA
BRANCH  12  15
HETATM   15  C   UNL     1      44.183  -9.432   8.036  1.00  0.00     0.084 C 
HETATM   16  C   UNL     1      43.811  -8.056   8.608  1.00  0.00     0.025 C 
HETATM   17  C   UNL     1      43.200  -8.075  10.006  1.00  0.00     0.002 C 
HETATM   18  C   UNL     1      43.997  -8.946  10.968  1.00  0.00     0.000 C 
HETATM   19  C   UNL     1      44.150 -10.367  10.443  1.00  0.00     0.002 C 
HETATM   20  C   UNL     1      44.791 -10.400   9.059  1.00  0.00     0.025 C 
ENDBRANCH  12  15
ENDBRANCH   4  11
ENDBRANCH   1   4
BRANCH   1  21
HETATM   21  C   UNL     1      42.830 -11.750   3.023  1.00  0.00     0.166 C 
BRANCH  21  22
HETATM   22  C   UNL     1      41.803 -11.396   1.967  1.00  0.00    -0.037 A 
HETATM   23  C   UNL     1      40.911 -12.412   1.566  1.00  0.00     0.048 A 
HETATM   24  C   UNL     1      39.985 -12.133   0.582  1.00  0.00     0.105 A 
HETATM   25  C   UNL     1      39.919 -10.902  -0.019  1.00  0.00     0.105 A 
HETATM   26  O   UNL     1      39.060 -13.002   0.094  1.00  0.00    -0.323 OA
HETATM   27  O   UNL     1      38.940 -10.835  -0.961  1.00  0.00    -0.323 OA
HETATM   28  C   UNL     1      40.771  -9.882   0.334  1.00  0.00     0.040 A 
HETATM   29  C   UNL     1      38.405 -12.171  -0.888  1.00  0.00     0.352 A 
HETATM   30  C   UNL     1      41.717 -10.135   1.337  1.00  0.00     0.012 A 
ENDBRANCH  21  22
ENDBRANCH   1  21
BRANCH   2  31
HETATM   31  C   UNL     1      42.774 -14.664   3.668  1.00  0.00     0.101 A 
HETATM   32  N   UNL     1      42.801 -15.994   4.033  1.00  0.00    -0.351 N 
HETATM   33  H   UNL     1      42.503 -16.323   4.943  1.00  0.00     0.166 HD
HETATM   34  C   UNL     1      43.300 -16.787   3.026  1.00  0.00     0.043 A 
HETATM   35  C   UNL     1      43.480 -15.950   1.940  1.00  0.00     0.033 A 
HETATM   36  C   UNL     1      43.134 -14.630   2.333  1.00  0.00     0.037 A 
BRANCH  34  37
HETATM   37  C   UNL     1      43.504 -18.229   3.181  1.00  0.00    -0.009 A 
HETATM   38  C   UNL     1      43.986 -18.755   4.387  1.00  0.00     0.013 A 
HETATM   39  C   UNL     1      44.188 -20.131   4.536  1.00  0.00     0.001 A 
HETATM   40  C   UNL     1      43.906 -20.997   3.482  1.00  0.00     0.000 A 
HETATM   41  C   UNL     1      43.420 -20.491   2.280  1.00  0.00     0.001 A 
HETATM   42  C   UNL     1      43.218 -19.116   2.131  1.00  0.00     0.013 A 
ENDBRANCH  34  37
ENDBRANCH   2  31
TORSDOF 8
ENDMDL
MODEL 7
REMARK VINA RESULT:      -9.2      2.259      8.376
REMARK  8 active torsions:
REMARK  status: ('A' for Active; 'I' for Inactive)
REMARK    1  A    between atoms: C_4  and  C_5 
REMARK    2  A    between atoms: C_5  and  N_6 
REMARK    3  A    between atoms: C_5  and  C_31 
REMARK       I    between atoms: N_6  and  C_7 
REMARK    4  A    between atoms: N_6  and  C_21 
REMARK    5  A    between atoms: C_7  and  C_8 
REMARK    6  A    between atoms: C_11  and  C_12 
REMARK    7  A    between atoms: C_21  and  C_22 
REMARK       I    between atoms: C_31  and  N_32 
REMARK    8  A    between atoms: N_32  and  C_33 
ROOT
HETATM    1  N   UNL     1      42.292 -11.762   4.973  1.00  0.00    -0.323 N 
HETATM    2  C   UNL     1      42.802 -12.150   3.733  1.00  0.00     0.271 C 
HETATM    3  O   UNL     1      43.580 -11.423   3.115  1.00  0.00    -0.266 OA
ENDROOT
BRANCH   1   4
HETATM    4  C   UNL     1      42.681 -10.421   5.457  1.00  0.00     0.237 C 
BRANCH   4   5
HETATM    5  C   UNL     1      43.835 -10.534   6.417  1.00  0.00     0.085 A 
HETATM    6  O   UNL     1      43.818  -9.815   7.580  1.00  0.00    -0.317 OA
HETATM    7  C   UNL     1      44.975 -10.085   8.246  1.00  0.00     0.049 A 
HETATM    8  C   UNL     1      45.183  -9.369   9.520  1.00  0.00     0.076 C 
HETATM    9  C   UNL     1      45.720 -11.007   7.545  1.00  0.00     0.035 A 
HETATM   10  C   UNL     1      44.988 -11.298   6.370  1.00  0.00     0.038 A 
ENDBRANCH   4   5
BRANCH   4  11
HETATM   11  C   UNL     1      41.454  -9.571   5.888  1.00  0.00     0.247 C 
HETATM   12  N   UNL     1      41.047  -9.638   7.198  1.00  0.00    -0.354 N 
HETATM   13  H   UNL     1      41.590 -10.247   7.804  1.00  0.00     0.162 HD
HETATM   14  O   UNL     1      40.847  -8.904   5.048  1.00  0.00    -0.271 OA
BRANCH  12  15
HETATM   15  C   UNL     1      39.923  -8.949   7.827  1.00  0.00     0.084 C 
HETATM   16  C   UNL     1      39.204  -9.779   8.902  1.00  0.00     0.025 C 
HETATM   17  C   UNL     1      39.677  -9.543  10.333  1.00  0.00     0.002 C 
HETATM   18  C   UNL     1      39.779  -8.060  10.666  1.00  0.00     0.000 C 
HETATM   19  C   UNL     1      40.684  -7.326   9.687  1.00  0.00     0.002 C 
HETATM   20  C   UNL     1      40.228  -7.504   8.242  1.00  0.00     0.025 C 
ENDBRANCH  12  15
ENDBRANCH   4  11
ENDBRANCH   1   4
BRANCH   1  21
HETATM   21  C   UNL     1      41.279 -12.490   5.743  1.00  0.00     0.166 C 
BRANCH  21  22
HETATM   22  C   UNL     1      41.561 -13.932   6.110  1.00  0.00    -0.037 A 
HETATM   23  C   UNL     1      42.838 -14.231   6.628  1.00  0.00     0.048 A 
HETATM   24  C   UNL     1      43.139 -15.540   6.940  1.00  0.00     0.105 A 
HETATM   25  C   UNL     1      42.235 -16.555   6.751  1.00  0.00     0.105 A 
HETATM   26  O   UNL     1      44.320 -15.983   7.450  1.00  0.00    -0.323 OA
HETATM   27  O   UNL     1      42.728 -17.766   7.120  1.00  0.00    -0.323 OA
HETATM   28  C   UNL     1      40.980 -16.313   6.243  1.00  0.00     0.040 A 
HETATM   29  C   UNL     1      44.052 -17.397   7.556  1.00  0.00     0.352 A 
HETATM   30  C   UNL     1      40.644 -14.991   5.924  1.00  0.00     0.012 A 
ENDBRANCH  21  22
ENDBRANCH   1  21
BRANCH   2  31
HETATM   31  C   UNL     1      42.360 -13.379   3.106  1.00  0.00     0.101 A 
HETATM   32  N   UNL     1      42.956 -14.575   3.449  1.00  0.00    -0.351 N 
HETATM   33  H   UNL     1      43.688 -14.648   4.145  1.00  0.00     0.166 HD
HETATM   34  C   UNL     1      42.451 -15.623   2.716  1.00  0.00     0.043 A 
HETATM   35  C   UNL     1      41.412 -15.096   1.970  1.00  0.00     0.033 A 
HETATM   36  C   UNL     1      41.342 -13.701   2.227  1.00  0.00     0.037 A 
BRANCH  34  37
HETATM   37  C   UNL     1      42.963 -16.991   2.831  1.00  0.00    -0.009 A 
HETATM   38  C   UNL     1      42.510 -17.997   1.968  1.00  0.00     0.013 A 
HETATM   39  C   UNL     1      42.992 -19.305   2.079  1.00  0.00     0.001 A 
HETATM   40  C   UNL     1      43.936 -19.621   3.052  1.00  0.00     0.000 A 
HETATM   41  C   UNL     1      44.402 -18.631   3.913  1.00  0.00     0.001 A 
HETATM   42  C   UNL     1      43.921 -17.324   3.803  1.00  0.00     0.013 A 
ENDBRANCH  34  37
ENDBRANCH   2  31
TORSDOF 8
ENDMDL
MODEL 8
REMARK VINA RESULT:      -9.1      2.279      7.848
REMARK  8 active torsions:
REMARK  status: ('A' for Active; 'I' for Inactive)
REMARK    1  A    between atoms: C_4  and  C_5 
REMARK    2  A    between atoms: C_5  and  N_6 
REMARK    3  A    between atoms: C_5  and  C_31 
REMARK       I    between atoms: N_6  and  C_7 
REMARK    4  A    between atoms: N_6  and  C_21 
REMARK    5  A    between atoms: C_7  and  C_8 
REMARK    6  A    between atoms: C_11  and  C_12 
REMARK    7  A    between atoms: C_21  and  C_22 
REMARK       I    between atoms: C_31  and  N_32 
REMARK    8  A    between atoms: N_32  and  C_33 
ROOT
HETATM    1  N   UNL     1      40.547 -12.317   5.386  1.00  0.00    -0.323 N 
HETATM    2  C   UNL     1      40.627 -13.569   5.999  1.00  0.00     0.271 C 
HETATM    3  O   UNL     1      39.720 -13.975   6.727  1.00  0.00    -0.266 OA
ENDROOT
BRANCH   1   4
HETATM    4  C   UNL     1      39.361 -11.497   5.712  1.00  0.00     0.237 C 
BRANCH   4   5
HETATM    5  C   UNL     1      38.930 -10.711   4.503  1.00  0.00     0.085 A 
HETATM    6  O   UNL     1      38.416 -11.369   3.419  1.00  0.00    -0.317 OA
HETATM    7  C   UNL     1      38.127 -10.435   2.472  1.00  0.00     0.049 A 
HETATM    8  C   UNL     1      37.599 -10.940   1.189  1.00  0.00     0.076 C 
HETATM    9  C   UNL     1      38.409  -9.174   2.949  1.00  0.00     0.035 A 
HETATM   10  C   UNL     1      38.923  -9.350   4.256  1.00  0.00     0.038 A 
ENDBRANCH   4   5
BRANCH   4  11
HETATM   11  C   UNL     1      39.523 -10.738   7.058  1.00  0.00     0.247 C 
HETATM   12  N   UNL     1      40.688 -10.045   7.274  1.00  0.00    -0.354 N 
HETATM   13  H   UNL     1      41.373 -10.075   6.524  1.00  0.00     0.162 HD
HETATM   14  O   UNL     1      38.638 -10.812   7.913  1.00  0.00    -0.271 OA
BRANCH  12  15
HETATM   15  C   UNL     1      41.071  -9.275   8.456  1.00  0.00     0.084 C 
HETATM   16  C   UNL     1      42.518  -9.514   8.916  1.00  0.00     0.025 C 
HETATM   17  C   UNL     1      43.544  -8.517   8.383  1.00  0.00     0.002 C 
HETATM   18  C   UNL     1      43.078  -7.076   8.541  1.00  0.00     0.000 C 
HETATM   19  C   UNL     1      41.729  -6.846   7.873  1.00  0.00     0.002 C 
HETATM   20  C   UNL     1      40.660  -7.798   8.401  1.00  0.00     0.025 C 
ENDBRANCH  12  15
ENDBRANCH   4  11
ENDBRANCH   1   4
BRANCH   1  21
HETATM   21  C   UNL     1      41.608 -11.687   4.595  1.00  0.00     0.166 C 
BRANCH  21  22
HETATM   22  C   UNL     1      41.517 -11.767   3.085  1.00  0.00    -0.037 A 
HETATM   23  C   UNL     1      41.811 -10.596   2.356  1.00  0.00     0.048 A 
HETATM   24  C   UNL     1      41.705 -10.625   0.981  1.00  0.00     0.105 A 
HETATM   25  C   UNL     1      41.314 -11.756   0.310  1.00  0.00     0.105 A 
HETATM   26  O   UNL     1      41.958  -9.584   0.144  1.00  0.00    -0.323 OA
HETATM   27  O   UNL     1      41.273 -11.575  -1.036  1.00  0.00    -0.323 OA
HETATM   28  C   UNL     1      41.011 -12.920   0.978  1.00  0.00     0.040 A 
HETATM   29  C   UNL     1      41.676 -10.194  -1.134  1.00  0.00     0.352 A 
HETATM   30  C   UNL     1      41.118 -12.921   2.376  1.00  0.00     0.012 A 
ENDBRANCH  21  22
ENDBRANCH   1  21
BRANCH   2  31
HETATM   31  C   UNL     1      41.819 -14.381   5.862  1.00  0.00     0.101 A 
HETATM   32  N   UNL     1      41.826 -15.441   4.978  1.00  0.00    -0.351 N 
HETATM   33  H   UNL     1      41.036 -15.676   4.390  1.00  0.00     0.166 HD
HETATM   34  C   UNL     1      43.015 -16.130   5.022  1.00  0.00     0.043 A 
HETATM   35  C   UNL     1      43.837 -15.413   5.873  1.00  0.00     0.033 A 
HETATM   36  C   UNL     1      43.098 -14.313   6.382  1.00  0.00     0.037 A 
BRANCH  34  37
HETATM   37  C   UNL     1      43.258 -17.342   4.237  1.00  0.00    -0.009 A 
HETATM   38  C   UNL     1      43.916 -18.441   4.805  1.00  0.00     0.013 A 
HETATM   39  C   UNL     1      44.155 -19.598   4.057  1.00  0.00     0.001 A 
HETATM   40  C   UNL     1      43.734 -19.671   2.731  1.00  0.00     0.000 A 
HETATM   41  C   UNL     1      43.072 -18.591   2.153  1.00  0.00     0.001 A 
HETATM   42  C   UNL     1      42.834 -17.435   2.901  1.00  0.00     0.013 A 
ENDBRANCH  34  37
ENDBRANCH   2  31
TORSDOF 8
ENDMDL
MODEL 9
REMARK VINA RESULT:      -9.0      3.555      8.017
REMARK  8 active torsions:
REMARK  status: ('A' for Active; 'I' for Inactive)
REMARK    1  A    between atoms: C_4  and  C_5 
REMARK    2  A    between atoms: C_5  and  N_6 
REMARK    3  A    between atoms: C_5  and  C_31 
REMARK       I    between atoms: N_6  and  C_7 
REMARK    4  A    between atoms: N_6  and  C_21 
REMARK    5  A    between atoms: C_7  and  C_8 
REMARK    6  A    between atoms: C_11  and  C_12 
REMARK    7  A    between atoms: C_21  and  C_22 
REMARK       I    between atoms: C_31  and  N_32 
REMARK    8  A    between atoms: N_32  and  C_33 
ROOT
HETATM    1  N   UNL     1      40.703 -11.685   3.739  1.00  0.00    -0.323 N 
HETATM    2  C   UNL     1      41.710 -12.252   4.523  1.00  0.00     0.271 C 
HETATM    3  O   UNL     1      42.714 -11.605   4.825  1.00  0.00    -0.266 OA
ENDROOT
BRANCH   1   4
HETATM    4  C   UNL     1      40.943 -10.312   3.247  1.00  0.00     0.237 C 
BRANCH   4   5
HETATM    5  C   UNL     1      39.693  -9.486   3.395  1.00  0.00     0.085 A 
HETATM    6  O   UNL     1      38.906  -9.254   2.301  1.00  0.00    -0.317 OA
HETATM    7  C   UNL     1      37.864  -8.475   2.704  1.00  0.00     0.049 A 
HETATM    8  C   UNL     1      36.907  -8.063   1.658  1.00  0.00     0.076 C 
HETATM    9  C   UNL     1      37.946  -8.239   4.059  1.00  0.00     0.035 A 
HETATM   10  C   UNL     1      39.121  -8.890   4.504  1.00  0.00     0.038 A 
ENDBRANCH   4   5
BRANCH   4  11
HETATM   11  C   UNL     1      41.670 -10.298   1.875  1.00  0.00     0.247 C 
HETATM   12  N   UNL     1      41.372  -9.287   0.994  1.00  0.00    -0.354 N 
HETATM   13  H   UNL     1      40.688  -8.606   1.310  1.00  0.00     0.162 HD
HETATM   14  O   UNL     1      42.449 -11.209   1.585  1.00  0.00    -0.271 OA
BRANCH  12  15
HETATM   15  C   UNL     1      41.911  -9.074  -0.347  1.00  0.00     0.084 C 
HETATM   16  C   UNL     1      41.272  -9.962  -1.426  1.00  0.00     0.025 C 
HETATM   17  C   UNL     1      40.111  -9.328  -2.188  1.00  0.00     0.002 C 
HETATM   18  C   UNL     1      40.440  -7.920  -2.665  1.00  0.00     0.000 C 
HETATM   19  C   UNL     1      40.862  -7.021  -1.511  1.00  0.00     0.002 C 
HETATM   20  C   UNL     1      42.046  -7.597  -0.740  1.00  0.00     0.025 C 
ENDBRANCH  12  15
ENDBRANCH   4  11
ENDBRANCH   1   4
BRANCH   1  21
HETATM   21  C   UNL     1      39.524 -12.390   3.228  1.00  0.00     0.166 C 
BRANCH  21  22
HETATM   22  C   UNL     1      39.621 -13.052   1.869  1.00  0.00    -0.037 A 
HETATM   23  C   UNL     1      39.075 -12.357   0.770  1.00  0.00     0.048 A 
HETATM   24  C   UNL     1      39.116 -12.946  -0.476  1.00  0.00     0.105 A 
HETATM   25  C   UNL     1      39.662 -14.190  -0.670  1.00  0.00     0.105 A 
HETATM   26  O   UNL     1      38.638 -12.402  -1.628  1.00  0.00    -0.323 OA
HETATM   27  O   UNL     1      39.601 -14.588  -1.969  1.00  0.00    -0.323 OA
HETATM   28  C   UNL     1      40.200 -14.909   0.371  1.00  0.00     0.040 A 
HETATM   29  C   UNL     1      38.946 -13.453  -2.568  1.00  0.00     0.352 A 
HETATM   30  C   UNL     1      40.180 -14.331   1.648  1.00  0.00     0.012 A 
ENDBRANCH  21  22
ENDBRANCH   1  21
BRANCH   2  31
HETATM   31  C   UNL     1      41.636 -13.641   4.927  1.00  0.00     0.101 A 
HETATM   32  N   UNL     1      42.393 -14.587   4.266  1.00  0.00    -0.351 N 
HETATM   33  H   UNL     1      43.029 -14.357   3.512  1.00  0.00     0.166 HD
HETATM   34  C   UNL     1      42.154 -15.854   4.745  1.00  0.00     0.043 A 
HETATM   35  C   UNL     1      41.308 -15.695   5.828  1.00  0.00     0.033 A 
HETATM   36  C   UNL     1      41.000 -14.315   5.954  1.00  0.00     0.037 A 
BRANCH  34  37
HETATM   37  C   UNL     1      42.774 -17.049   4.168  1.00  0.00    -0.009 A 
HETATM   38  C   UNL     1      42.561 -17.384   2.824  1.00  0.00     0.013 A 
HETATM   39  C   UNL     1      43.146 -18.527   2.271  1.00  0.00     0.001 A 
HETATM   40  C   UNL     1      43.955 -19.347   3.055  1.00  0.00     0.000 A 
HETATM   41  C   UNL     1      44.183 -19.024   4.390  1.00  0.00     0.001 A 
HETATM   42  C   UNL     1      43.598 -17.881   4.942  1.00  0.00     0.013 A 
ENDBRANCH  34  37
ENDBRANCH   2  31
TORSDOF 8
ENDMDL
MODEL 10
REMARK VINA RESULT:      -9.0      2.627      7.878
REMARK  8 active torsions:
REMARK  status: ('A' for Active; 'I' for Inactive)
REMARK    1  A    between atoms: C_4  and  C_5 
REMARK    2  A    between atoms: C_5  and  N_6 
REMARK    3  A    between atoms: C_5  and  C_31 
REMARK       I    between atoms: N_6  and  C_7 
REMARK    4  A    between atoms: N_6  and  C_21 
REMARK    5  A    between atoms: C_7  and  C_8 
REMARK    6  A    between atoms: C_11  and  C_12 
REMARK    7  A    between atoms: C_21  and  C_22 
REMARK       I    between atoms: C_31  and  N_32 
REMARK    8  A    between atoms: N_32  and  C_33 
ROOT
HETATM    1  N   UNL     1      40.550 -13.431   2.365  1.00  0.00    -0.323 N 
HETATM    2  C   UNL     1      40.456 -14.817   2.228  1.00  0.00     0.271 C 
HETATM    3  O   UNL     1      39.361 -15.381   2.260  1.00  0.00    -0.266 OA
ENDROOT
BRANCH   1   4
HETATM    4  C   UNL     1      39.288 -12.704   2.614  1.00  0.00     0.237 C 
BRANCH   4   5
HETATM    5  C   UNL     1      38.758 -12.133   1.326  1.00  0.00     0.085 A 
HETATM    6  O   UNL     1      39.328 -12.505   0.140  1.00  0.00    -0.317 OA
HETATM    7  C   UNL     1      38.679 -11.838  -0.854  1.00  0.00     0.049 A 
HETATM    8  C   UNL     1      39.172 -12.061  -2.227  1.00  0.00     0.076 C 
HETATM    9  C   UNL     1      37.665 -11.070  -0.324  1.00  0.00     0.035 A 
HETATM   10  C   UNL     1      37.714 -11.261   1.077  1.00  0.00     0.038 A 
ENDBRANCH   4   5
BRANCH   4  11
HETATM   11  C   UNL     1      39.385 -11.762   3.846  1.00  0.00     0.247 C 
HETATM   12  N   UNL     1      39.674 -10.437   3.627  1.00  0.00    -0.354 N 
HETATM   13  H   UNL     1      39.802 -10.162   2.657  1.00  0.00     0.162 HD
HETATM   14  O   UNL     1      39.255 -12.223   4.981  1.00  0.00    -0.271 OA
BRANCH  12  15
HETATM   15  C   UNL     1      39.830  -9.374   4.617  1.00  0.00     0.084 C 
HETATM   16  C   UNL     1      38.655  -9.258   5.600  1.00  0.00     0.025 C 
HETATM   17  C   UNL     1      38.830 -10.011   6.917  1.00  0.00     0.002 C 
HETATM   18  C   UNL     1      40.190  -9.748   7.550  1.00  0.00     0.000 C 
HETATM   19  C   UNL     1      41.327 -10.089   6.596  1.00  0.00     0.002 C 
HETATM   20  C   UNL     1      41.214  -9.332   5.276  1.00  0.00     0.025 C 
ENDBRANCH  12  15
ENDBRANCH   4  11
ENDBRANCH   1   4
BRANCH   1  21
HETATM   21  C   UNL     1      41.798 -12.668   2.454  1.00  0.00     0.166 C 
BRANCH  21  22
HETATM   22  C   UNL     1      42.537 -12.657   3.776  1.00  0.00    -0.037 A 
HETATM   23  C   UNL     1      43.598 -11.738   3.918  1.00  0.00     0.048 A 
HETATM   24  C   UNL     1      44.314 -11.725   5.096  1.00  0.00     0.105 A 
HETATM   25  C   UNL     1      44.028 -12.587   6.124  1.00  0.00     0.105 A 
HETATM   26  O   UNL     1      45.355 -10.898   5.383  1.00  0.00    -0.323 OA
HETATM   27  O   UNL     1      44.850 -12.413   7.193  1.00  0.00    -0.323 OA
HETATM   28  C   UNL     1      43.008 -13.505   6.031  1.00  0.00     0.040 A 
HETATM   29  C   UNL     1      45.692 -11.346   6.714  1.00  0.00     0.352 A 
HETATM   30  C   UNL     1      42.259 -13.535   4.847  1.00  0.00     0.012 A 
ENDBRANCH  21  22
ENDBRANCH   1  21
BRANCH   2  31
HETATM   31  C   UNL     1      41.650 -15.631   2.131  1.00  0.00     0.101 A 
HETATM   32  N   UNL     1      41.762 -16.775   2.895  1.00  0.00    -0.351 N 
HETATM   33  H   UNL     1      41.032 -17.096   3.519  1.00  0.00     0.166 HD
HETATM   34  C   UNL     1      42.980 -17.387   2.716  1.00  0.00     0.043 A 
HETATM   35  C   UNL     1      43.616 -16.678   1.713  1.00  0.00     0.033 A 
HETATM   36  C   UNL     1      42.780 -15.595   1.334  1.00  0.00     0.037 A 
BRANCH  34  37
HETATM   37  C   UNL     1      43.385 -18.579   3.465  1.00  0.00    -0.009 A 
HETATM   38  C   UNL     1      43.544 -19.810   2.814  1.00  0.00     0.013 A 
HETATM   39  C   UNL     1      43.925 -20.952   3.526  1.00  0.00     0.001 A 
HETATM   40  C   UNL     1      44.156 -20.875   4.898  1.00  0.00     0.000 A 
HETATM   41  C   UNL     1      44.010 -19.658   5.558  1.00  0.00     0.001 A 
HETATM   42  C   UNL     1      43.629 -18.517   4.846  1.00  0.00     0.013 A 
ENDBRANCH  34  37
ENDBRANCH   2  31
TORSDOF 8
ENDMDL
