MODEL 1
REMARK VINA RESULT:      -9.4      0.000      0.000
REMARK  6 active torsions:
REMARK  status: ('A' for Active; 'I' for Inactive)
REMARK    1  A    between atoms: C_2  and  O_3 
REMARK    2  A    between atoms: C_2  and  C_4 
REMARK    3  A    between atoms: C_6  and  N_7 
REMARK       I    between atoms: N_7  and  C_8 
REMARK    4  A    between atoms: C_8  and  C_9 
REMARK    5  A    between atoms: C_12  and  C_13 
REMARK    6  A    between atoms: C_18  and  C_19 
ROOT
HETATM    1  C   UNL     1      41.178 -13.951   3.707  1.00  0.00     0.096 C 
HETATM    2  C   UNL     1      41.960 -15.042   4.041  1.00  0.00     0.138 C 
HETATM    3  N   UNL     1      42.480 -14.766   5.285  1.00  0.00    -0.240 N 
HETATM    4  C   UNL     1      43.411 -15.626   5.994  1.00  0.00     0.221 C 
HETATM    5  C   UNL     1      43.396 -17.043   5.393  1.00  0.00     0.068 C 
HETATM    6  C   UNL     1      43.428 -16.978   3.862  1.00  0.00     0.143 C 
HETATM    7  N   UNL     1      42.269 -16.199   3.390  1.00  0.00    -0.363 N 
HETATM    8  N   UNL     1      42.225 -13.518   5.702  1.00  0.00    -0.181 NA
HETATM    9  C   UNL     1      41.408 -13.036   4.761  1.00  0.00     0.160 C 
HETATM   10  H   UNL     1      42.243 -16.183   2.366  1.00  0.00     0.162 HD
ENDROOT
BRANCH   1  11
HETATM   11  C   UNL     1      40.345 -13.728   2.534  1.00  0.00     0.261 C 
HETATM   12  N   UNL     1      41.034 -13.850   1.344  1.00  0.00    -0.323 N 
HETATM   13  H   UNL     1      41.985 -14.193   1.425  1.00  0.00     0.169 HD
HETATM   14  O   UNL     1      39.150 -13.489   2.658  1.00  0.00    -0.267 OA
BRANCH  12  15
HETATM   15  C   UNL     1      40.557 -13.618   0.039  1.00  0.00     0.035 A 
HETATM   16  C   UNL     1      39.639 -14.446  -0.614  1.00  0.00     0.039 A 
HETATM   17  C   UNL     1      39.184 -14.149  -1.912  1.00  0.00    -0.028 A 
HETATM   18  C   UNL     1      39.662 -12.995  -2.546  1.00  0.00     0.010 A 
HETATM   19  C   UNL     1      40.580 -12.165  -1.906  1.00  0.00     0.003 A 
HETATM   20  C   UNL     1      41.024 -12.475  -0.620  1.00  0.00     0.029 A 
BRANCH  17  21
HETATM   21  C   UNL     1      38.168 -15.060  -2.569  1.00  0.00     0.147 C 
HETATM   22  C   UNL     1      38.141 -14.865  -4.081  1.00  0.00     0.044 C 
BRANCH  21  23
HETATM   23  O   UNL     1      38.462 -16.427  -2.285  1.00  0.00    -0.391 OA
HETATM   24  H   UNL     1      37.624 -16.914  -2.344  1.00  0.00     0.210 HD
ENDBRANCH  21  23
ENDBRANCH  17  21
ENDBRANCH  12  15
ENDBRANCH   1  11
BRANCH   4  25
HETATM   25  C   UNL     1      43.100 -15.698   7.473  1.00  0.00     0.409 C 
HETATM   26  F   UNL     1      43.285 -14.512   8.096  1.00  0.00    -0.169 F 
HETATM   27  F   UNL     1      41.788 -16.023   7.645  1.00  0.00    -0.169 F 
HETATM   28  F   UNL     1      43.806 -16.640   8.131  1.00  0.00    -0.169 F 
ENDBRANCH   4  25
BRANCH   6  29
HETATM   29  C   UNL     1      43.470 -18.361   3.294  1.00  0.00     0.075 A 
HETATM   30  O   UNL     1      43.960 -19.338   4.111  1.00  0.00    -0.325 OA
HETATM   31  C   UNL     1      43.902 -20.503   3.415  1.00  0.00     0.142 A 
HETATM   32  C   UNL     1      43.379 -20.289   2.161  1.00  0.00     0.027 A 
HETATM   33  C   UNL     1      43.100 -18.904   2.081  1.00  0.00     0.037 A 
ENDBRANCH   6  29
TORSDOF 6
ENDMDL
MODEL 2
REMARK VINA RESULT:      -9.2      4.714      8.221
REMARK  6 active torsions:
REMARK  status: ('A' for Active; 'I' for Inactive)
REMARK    1  A    between atoms: C_2  and  O_3 
REMARK    2  A    between atoms: C_2  and  C_4 
REMARK    3  A    between atoms: C_6  and  N_7 
REMARK       I    between atoms: N_7  and  C_8 
REMARK    4  A    between atoms: C_8  and  C_9 
REMARK    5  A    between atoms: C_12  and  C_13 
REMARK    6  A    between atoms: C_18  and  C_19 
ROOT
HETATM    1  C   UNL     1      42.315 -12.959   4.983  1.00  0.00     0.096 C 
HETATM    2  C   UNL     1      42.155 -14.072   4.179  1.00  0.00     0.138 C 
HETATM    3  N   UNL     1      41.246 -13.711   3.211  1.00  0.00    -0.240 N 
HETATM    4  C   UNL     1      40.741 -14.605   2.184  1.00  0.00     0.221 C 
HETATM    5  C   UNL     1      41.655 -15.836   2.049  1.00  0.00     0.068 C 
HETATM    6  C   UNL     1      42.022 -16.388   3.431  1.00  0.00     0.143 C 
HETATM    7  N   UNL     1      42.687 -15.327   4.211  1.00  0.00    -0.363 N 
HETATM    8  N   UNL     1      40.689 -12.510   3.428  1.00  0.00    -0.181 NA
HETATM    9  C   UNL     1      41.361 -12.041   4.483  1.00  0.00     0.160 C 
HETATM   10  H   UNL     1      42.984 -15.687   5.122  1.00  0.00     0.162 HD
ENDROOT
BRANCH   1  11
HETATM   11  C   UNL     1      43.200 -12.752   6.120  1.00  0.00     0.261 C 
HETATM   12  N   UNL     1      43.115 -11.483   6.655  1.00  0.00    -0.323 N 
HETATM   13  H   UNL     1      42.375 -10.901   6.278  1.00  0.00     0.169 HD
HETATM   14  O   UNL     1      43.906 -13.666   6.531  1.00  0.00    -0.267 OA
BRANCH  12  15
HETATM   15  C   UNL     1      43.884 -10.927   7.697  1.00  0.00     0.035 A 
HETATM   16  C   UNL     1      43.496 -10.931   9.039  1.00  0.00     0.039 A 
HETATM   17  C   UNL     1      44.320 -10.378  10.038  1.00  0.00    -0.028 A 
HETATM   18  C   UNL     1      45.552  -9.825   9.666  1.00  0.00     0.010 A 
HETATM   19  C   UNL     1      45.946  -9.814   8.329  1.00  0.00     0.003 A 
HETATM   20  C   UNL     1      45.117 -10.362   7.350  1.00  0.00     0.029 A 
BRANCH  17  21
HETATM   21  C   UNL     1      43.870 -10.429  11.483  1.00  0.00     0.147 C 
HETATM   22  C   UNL     1      42.493  -9.801  11.661  1.00  0.00     0.044 C 
BRANCH  21  23
HETATM   23  O   UNL     1      43.825 -11.778  11.946  1.00  0.00    -0.391 OA
HETATM   24  H   UNL     1      44.745 -12.077  12.034  1.00  0.00     0.210 HD
ENDBRANCH  21  23
ENDBRANCH  17  21
ENDBRANCH  12  15
ENDBRANCH   1  11
BRANCH   4  25
HETATM   25  C   UNL     1      40.618 -13.915   0.844  1.00  0.00     0.409 C 
HETATM   26  F   UNL     1      41.663 -13.095   0.589  1.00  0.00    -0.169 F 
HETATM   27  F   UNL     1      40.612 -14.849  -0.148  1.00  0.00    -0.169 F 
HETATM   28  F   UNL     1      39.478 -13.210   0.698  1.00  0.00    -0.169 F 
ENDBRANCH   4  25
BRANCH   6  29
HETATM   29  C   UNL     1      42.863 -17.615   3.284  1.00  0.00     0.075 A 
HETATM   30  O   UNL     1      43.656 -17.938   4.346  1.00  0.00    -0.325 OA
HETATM   31  C   UNL     1      44.320 -19.075   4.014  1.00  0.00     0.142 A 
HETATM   32  C   UNL     1      43.964 -19.489   2.752  1.00  0.00     0.027 A 
HETATM   33  C   UNL     1      43.022 -18.546   2.278  1.00  0.00     0.037 A 
ENDBRANCH   6  29
TORSDOF 6
ENDMDL
MODEL 3
REMARK VINA RESULT:      -9.0      1.739      2.235
REMARK  6 active torsions:
REMARK  status: ('A' for Active; 'I' for Inactive)
REMARK    1  A    between atoms: C_2  and  O_3 
REMARK    2  A    between atoms: C_2  and  C_4 
REMARK    3  A    between atoms: C_6  and  N_7 
REMARK       I    between atoms: N_7  and  C_8 
REMARK    4  A    between atoms: C_8  and  C_9 
REMARK    5  A    between atoms: C_12  and  C_13 
REMARK    6  A    between atoms: C_18  and  C_19 
ROOT
HETATM    1  C   UNL     1      41.031 -14.688   2.536  1.00  0.00     0.096 C 
HETATM    2  C   UNL     1      41.895 -15.495   3.254  1.00  0.00     0.138 C 
HETATM    3  N   UNL     1      42.320 -14.737   4.321  1.00  0.00    -0.240 N 
HETATM    4  C   UNL     1      43.290 -15.179   5.307  1.00  0.00     0.221 C 
HETATM    5  C   UNL     1      43.442 -16.710   5.261  1.00  0.00     0.068 C 
HETATM    6  C   UNL     1      43.547 -17.197   3.812  1.00  0.00     0.143 C 
HETATM    7  N   UNL     1      42.345 -16.769   3.072  1.00  0.00    -0.363 N 
HETATM    8  N   UNL     1      41.926 -13.457   4.253  1.00  0.00    -0.181 NA
HETATM    9  C   UNL     1      41.118 -13.436   3.190  1.00  0.00     0.160 C 
HETATM   10  H   UNL     1      42.372 -17.124   2.112  1.00  0.00     0.162 HD
ENDROOT
BRANCH   1  11
HETATM   11  C   UNL     1      40.243 -14.992   1.352  1.00  0.00     0.261 C 
HETATM   12  N   UNL     1      40.120 -13.923   0.487  1.00  0.00    -0.323 N 
HETATM   13  H   UNL     1      40.684 -13.112   0.717  1.00  0.00     0.169 HD
HETATM   14  O   UNL     1      39.784 -16.116   1.183  1.00  0.00    -0.267 OA
BRANCH  12  15
HETATM   15  C   UNL     1      39.364 -13.849  -0.699  1.00  0.00     0.035 A 
HETATM   16  C   UNL     1      38.564 -12.757  -1.046  1.00  0.00     0.039 A 
HETATM   17  C   UNL     1      37.847 -12.734  -2.257  1.00  0.00    -0.028 A 
HETATM   18  C   UNL     1      37.955 -13.828  -3.125  1.00  0.00     0.010 A 
HETATM   19  C   UNL     1      38.748 -14.923  -2.787  1.00  0.00     0.003 A 
HETATM   20  C   UNL     1      39.449 -14.933  -1.581  1.00  0.00     0.029 A 
BRANCH  17  21
HETATM   21  C   UNL     1      37.015 -11.517  -2.604  1.00  0.00     0.147 C 
HETATM   22  C   UNL     1      37.889 -10.360  -3.073  1.00  0.00     0.044 C 
BRANCH  21  23
HETATM   23  O   UNL     1      36.074 -11.829  -3.630  1.00  0.00    -0.391 OA
HETATM   24  H   UNL     1      35.255 -11.354  -3.416  1.00  0.00     0.210 HD
ENDBRANCH  21  23
ENDBRANCH  17  21
ENDBRANCH  12  15
ENDBRANCH   1  11
BRANCH   4  25
HETATM   25  C   UNL     1      42.911 -14.748   6.707  1.00  0.00     0.409 C 
HETATM   26  F   UNL     1      41.576 -14.801   6.917  1.00  0.00    -0.169 F 
HETATM   27  F   UNL     1      43.478 -15.596   7.610  1.00  0.00    -0.169 F 
HETATM   28  F   UNL     1      43.345 -13.514   7.032  1.00  0.00    -0.169 F 
ENDBRANCH   4  25
BRANCH   6  29
HETATM   29  C   UNL     1      43.750 -18.678   3.784  1.00  0.00     0.075 A 
HETATM   30  O   UNL     1      44.120 -19.262   4.961  1.00  0.00    -0.325 OA
HETATM   31  C   UNL     1      44.239 -20.593   4.723  1.00  0.00     0.142 A 
HETATM   32  C   UNL     1      43.949 -20.875   3.409  1.00  0.00     0.027 A 
HETATM   33  C   UNL     1      43.632 -19.638   2.800  1.00  0.00     0.037 A 
ENDBRANCH   6  29
TORSDOF 6
ENDMDL
MODEL 4
REMARK VINA RESULT:      -8.7      1.280      2.105
REMARK  6 active torsions:
REMARK  status: ('A' for Active; 'I' for Inactive)
REMARK    1  A    between atoms: C_2  and  O_3 
REMARK    2  A    between atoms: C_2  and  C_4 
REMARK    3  A    between atoms: C_6  and  N_7 
REMARK       I    between atoms: N_7  and  C_8 
REMARK    4  A    between atoms: C_8  and  C_9 
REMARK    5  A    between atoms: C_12  and  C_13 
REMARK    6  A    between atoms: C_18  and  C_19 
ROOT
HETATM    1  C   UNL     1      41.319 -13.937   3.676  1.00  0.00     0.096 C 
HETATM    2  C   UNL     1      42.066 -15.048   4.021  1.00  0.00     0.138 C 
HETATM    3  N   UNL     1      42.576 -14.786   5.272  1.00  0.00    -0.240 N 
HETATM    4  C   UNL     1      43.473 -15.670   5.995  1.00  0.00     0.221 C 
HETATM    5  C   UNL     1      43.429 -17.086   5.394  1.00  0.00     0.068 C 
HETATM    6  C   UNL     1      43.485 -17.023   3.864  1.00  0.00     0.143 C 
HETATM    7  N   UNL     1      42.353 -16.214   3.375  1.00  0.00    -0.363 N 
HETATM    8  N   UNL     1      42.348 -13.530   5.686  1.00  0.00    -0.181 NA
HETATM    9  C   UNL     1      41.558 -13.028   4.733  1.00  0.00     0.160 C 
HETATM   10  H   UNL     1      42.342 -16.197   2.351  1.00  0.00     0.162 HD
ENDROOT
BRANCH   1  11
HETATM   11  C   UNL     1      40.508 -13.693   2.492  1.00  0.00     0.261 C 
HETATM   12  N   UNL     1      41.253 -13.566   1.336  1.00  0.00    -0.323 N 
HETATM   13  H   UNL     1      42.241 -13.777   1.431  1.00  0.00     0.169 HD
HETATM   14  O   UNL     1      39.287 -13.644   2.575  1.00  0.00    -0.267 OA
BRANCH  12  15
HETATM   15  C   UNL     1      40.799 -13.246   0.042  1.00  0.00     0.035 A 
HETATM   16  C   UNL     1      40.928 -11.983  -0.539  1.00  0.00     0.039 A 
HETATM   17  C   UNL     1      40.472 -11.731  -1.847  1.00  0.00    -0.028 A 
HETATM   18  C   UNL     1      39.887 -12.778  -2.570  1.00  0.00     0.010 A 
HETATM   19  C   UNL     1      39.750 -14.041  -1.998  1.00  0.00     0.003 A 
HETATM   20  C   UNL     1      40.204 -14.274  -0.699  1.00  0.00     0.029 A 
BRANCH  17  21
HETATM   21  C   UNL     1      40.659 -10.353  -2.446  1.00  0.00     0.147 C 
HETATM   22  C   UNL     1      39.638 -10.080  -3.545  1.00  0.00     0.044 C 
BRANCH  21  23
HETATM   23  O   UNL     1      40.533  -9.348  -1.440  1.00  0.00    -0.391 OA
HETATM   24  H   UNL     1      39.933  -9.699  -0.763  1.00  0.00     0.210 HD
ENDBRANCH  21  23
ENDBRANCH  17  21
ENDBRANCH  12  15
ENDBRANCH   1  11
BRANCH   4  25
HETATM   25  C   UNL     1      43.140 -15.733   7.469  1.00  0.00     0.409 C 
HETATM   26  F   UNL     1      43.264 -14.531   8.076  1.00  0.00    -0.169 F 
HETATM   27  F   UNL     1      41.840 -16.110   7.624  1.00  0.00    -0.169 F 
HETATM   28  F   UNL     1      43.873 -16.633   8.153  1.00  0.00    -0.169 F 
ENDBRANCH   4  25
BRANCH   6  29
HETATM   29  C   UNL     1      43.497 -18.407   3.297  1.00  0.00     0.075 A 
HETATM   30  O   UNL     1      43.979 -19.392   4.109  1.00  0.00    -0.325 OA
HETATM   31  C   UNL     1      43.894 -20.556   3.415  1.00  0.00     0.142 A 
HETATM   32  C   UNL     1      43.362 -20.334   2.166  1.00  0.00     0.027 A 
HETATM   33  C   UNL     1      43.105 -18.945   2.088  1.00  0.00     0.037 A 
ENDBRANCH   6  29
TORSDOF 6
ENDMDL
MODEL 5
REMARK VINA RESULT:      -8.4      2.960      4.756
REMARK  6 active torsions:
REMARK  status: ('A' for Active; 'I' for Inactive)
REMARK    1  A    between atoms: C_2  and  O_3 
REMARK    2  A    between atoms: C_2  and  C_4 
REMARK    3  A    between atoms: C_6  and  N_7 
REMARK       I    between atoms: N_7  and  C_8 
REMARK    4  A    between atoms: C_8  and  C_9 
REMARK    5  A    between atoms: C_12  and  C_13 
REMARK    6  A    between atoms: C_18  and  C_19 
ROOT
HETATM    1  C   UNL     1      41.739 -14.084   3.308  1.00  0.00     0.096 C 
HETATM    2  C   UNL     1      42.484 -13.986   4.470  1.00  0.00     0.138 C 
HETATM    3  N   UNL     1      42.529 -15.256   4.997  1.00  0.00    -0.240 N 
HETATM    4  C   UNL     1      43.167 -15.600   6.255  1.00  0.00     0.221 C 
HETATM    5  C   UNL     1      44.133 -14.483   6.690  1.00  0.00     0.068 C 
HETATM    6  C   UNL     1      43.480 -13.108   6.513  1.00  0.00     0.143 C 
HETATM    7  N   UNL     1      43.088 -12.940   5.101  1.00  0.00    -0.363 N 
HETATM    8  N   UNL     1      41.738 -16.127   4.353  1.00  0.00    -0.181 NA
HETATM    9  C   UNL     1      41.286 -15.425   3.311  1.00  0.00     0.160 C 
HETATM   10  H   UNL     1      42.692 -12.008   4.949  1.00  0.00     0.162 HD
ENDROOT
BRANCH   1  11
HETATM   11  C   UNL     1      41.422 -13.066   2.318  1.00  0.00     0.261 C 
HETATM   12  N   UNL     1      40.348 -13.398   1.517  1.00  0.00    -0.323 N 
HETATM   13  H   UNL     1      39.845 -14.235   1.791  1.00  0.00     0.169 HD
HETATM   14  O   UNL     1      42.066 -12.025   2.270  1.00  0.00    -0.267 OA
BRANCH  12  15
HETATM   15  C   UNL     1      39.833 -12.685   0.416  1.00  0.00     0.035 A 
HETATM   16  C   UNL     1      40.410 -12.694  -0.856  1.00  0.00     0.039 A 
HETATM   17  C   UNL     1      39.836 -11.976  -1.922  1.00  0.00    -0.028 A 
HETATM   18  C   UNL     1      38.660 -11.251  -1.690  1.00  0.00     0.010 A 
HETATM   19  C   UNL     1      38.079 -11.233  -0.424  1.00  0.00     0.003 A 
HETATM   20  C   UNL     1      38.662 -11.947   0.624  1.00  0.00     0.029 A 
BRANCH  17  21
HETATM   21  C   UNL     1      40.480 -12.037  -3.291  1.00  0.00     0.147 C 
HETATM   22  C   UNL     1      41.065 -10.688  -3.692  1.00  0.00     0.044 C 
BRANCH  21  23
HETATM   23  O   UNL     1      41.519 -13.015  -3.313  1.00  0.00    -0.391 OA
HETATM   24  H   UNL     1      41.249 -13.699  -3.947  1.00  0.00     0.210 HD
ENDBRANCH  21  23
ENDBRANCH  17  21
ENDBRANCH  12  15
ENDBRANCH   1  11
BRANCH   4  25
HETATM   25  C   UNL     1      43.913 -16.913   6.172  1.00  0.00     0.409 C 
HETATM   26  F   UNL     1      44.394 -17.153   4.931  1.00  0.00    -0.169 F 
HETATM   27  F   UNL     1      44.993 -16.873   7.002  1.00  0.00    -0.169 F 
HETATM   28  F   UNL     1      43.184 -17.978   6.560  1.00  0.00    -0.169 F 
ENDBRANCH   4  25
BRANCH   6  29
HETATM   29  C   UNL     1      44.408 -12.037   6.990  1.00  0.00     0.075 A 
HETATM   30  O   UNL     1      44.218 -11.594   8.267  1.00  0.00    -0.325 OA
HETATM   31  C   UNL     1      45.158 -10.644   8.501  1.00  0.00     0.142 A 
HETATM   32  C   UNL     1      45.954 -10.470   7.392  1.00  0.00     0.027 A 
HETATM   33  C   UNL     1      45.470 -11.370   6.414  1.00  0.00     0.037 A 
ENDBRANCH   6  29
TORSDOF 6
ENDMDL
MODEL 6
REMARK VINA RESULT:      -8.4      4.476      7.774
REMARK  6 active torsions:
REMARK  status: ('A' for Active; 'I' for Inactive)
REMARK    1  A    between atoms: C_2  and  O_3 
REMARK    2  A    between atoms: C_2  and  C_4 
REMARK    3  A    between atoms: C_6  and  N_7 
REMARK       I    between atoms: N_7  and  C_8 
REMARK    4  A    between atoms: C_8  and  C_9 
REMARK    5  A    between atoms: C_12  and  C_13 
REMARK    6  A    between atoms: C_18  and  C_19 
ROOT
HETATM    1  C   UNL     1      40.739 -12.605   4.328  1.00  0.00     0.096 C 
HETATM    2  C   UNL     1      40.979 -13.861   3.801  1.00  0.00     0.138 C 
HETATM    3  N   UNL     1      40.150 -13.976   2.708  1.00  0.00    -0.240 N 
HETATM    4  C   UNL     1      40.035 -15.168   1.887  1.00  0.00     0.221 C 
HETATM    5  C   UNL     1      41.240 -16.097   2.119  1.00  0.00     0.068 C 
HETATM    6  C   UNL     1      41.541 -16.225   3.616  1.00  0.00     0.143 C 
HETATM    7  N   UNL     1      41.801 -14.883   4.171  1.00  0.00    -0.363 N 
HETATM    8  N   UNL     1      39.283 -12.959   2.590  1.00  0.00    -0.181 NA
HETATM    9  C   UNL     1      39.662 -12.113   3.552  1.00  0.00     0.160 C 
HETATM   10  H   UNL     1      42.051 -14.949   5.161  1.00  0.00     0.162 HD
ENDROOT
BRANCH   1  11
HETATM   11  C   UNL     1      41.377 -11.929   5.448  1.00  0.00     0.261 C 
HETATM   12  N   UNL     1      42.716 -11.666   5.237  1.00  0.00    -0.323 N 
HETATM   13  H   UNL     1      43.054 -11.860   4.301  1.00  0.00     0.169 HD
HETATM   14  O   UNL     1      40.727 -11.625   6.441  1.00  0.00    -0.267 OA
BRANCH  12  15
HETATM   15  C   UNL     1      43.642 -11.106   6.138  1.00  0.00     0.035 A 
HETATM   16  C   UNL     1      43.334 -10.080   7.035  1.00  0.00     0.039 A 
HETATM   17  C   UNL     1      44.300  -9.576   7.926  1.00  0.00    -0.028 A 
HETATM   18  C   UNL     1      45.586 -10.130   7.910  1.00  0.00     0.010 A 
HETATM   19  C   UNL     1      45.904 -11.152   7.017  1.00  0.00     0.003 A 
HETATM   20  C   UNL     1      44.937 -11.638   6.137  1.00  0.00     0.029 A 
BRANCH  17  21
HETATM   21  C   UNL     1      43.913  -8.482   8.899  1.00  0.00     0.147 C 
HETATM   22  C   UNL     1      44.178  -8.899  10.341  1.00  0.00     0.044 C 
BRANCH  21  23
HETATM   23  O   UNL     1      44.642  -7.286   8.624  1.00  0.00    -0.391 OA
HETATM   24  H   UNL     1      45.264  -7.493   7.908  1.00  0.00     0.210 HD
ENDBRANCH  21  23
ENDBRANCH  17  21
ENDBRANCH  12  15
ENDBRANCH   1  11
BRANCH   4  25
HETATM   25  C   UNL     1      39.928 -14.833   0.415  1.00  0.00     0.409 C 
HETATM   26  F   UNL     1      39.287 -13.662   0.199  1.00  0.00    -0.169 F 
HETATM   27  F   UNL     1      41.177 -14.690  -0.109  1.00  0.00    -0.169 F 
HETATM   28  F   UNL     1      39.324 -15.791  -0.317  1.00  0.00    -0.169 F 
ENDBRANCH   4  25
BRANCH   6  29
HETATM   29  C   UNL     1      42.677 -17.172   3.830  1.00  0.00     0.075 A 
HETATM   30  O   UNL     1      43.030 -17.947   2.763  1.00  0.00    -0.325 OA
HETATM   31  C   UNL     1      44.075 -18.718   3.160  1.00  0.00     0.142 A 
HETATM   32  C   UNL     1      44.401 -18.449   4.470  1.00  0.00     0.027 A 
HETATM   33  C   UNL     1      43.497 -17.450   4.904  1.00  0.00     0.037 A 
ENDBRANCH   6  29
TORSDOF 6
ENDMDL
MODEL 7
REMARK VINA RESULT:      -8.4      4.552      7.962
REMARK  6 active torsions:
REMARK  status: ('A' for Active; 'I' for Inactive)
REMARK    1  A    between atoms: C_2  and  O_3 
REMARK    2  A    between atoms: C_2  and  C_4 
REMARK    3  A    between atoms: C_6  and  N_7 
REMARK       I    between atoms: N_7  and  C_8 
REMARK    4  A    between atoms: C_8  and  C_9 
REMARK    5  A    between atoms: C_12  and  C_13 
REMARK    6  A    between atoms: C_18  and  C_19 
ROOT
HETATM    1  C   UNL     1      41.838 -13.469   5.140  1.00  0.00     0.096 C 
HETATM    2  C   UNL     1      41.990 -12.336   5.920  1.00  0.00     0.138 C 
HETATM    3  N   UNL     1      40.907 -11.536   5.637  1.00  0.00    -0.240 N 
HETATM    4  C   UNL     1      40.696 -10.213   6.197  1.00  0.00     0.221 C 
HETATM    5  C   UNL     1      41.578 -10.011   7.443  1.00  0.00     0.068 C 
HETATM    6  C   UNL     1      43.002 -10.513   7.181  1.00  0.00     0.143 C 
HETATM    7  N   UNL     1      42.948 -11.938   6.805  1.00  0.00    -0.363 N 
HETATM    8  N   UNL     1      40.162 -11.991   4.620  1.00  0.00    -0.181 NA
HETATM    9  C   UNL     1      40.707 -13.178   4.341  1.00  0.00     0.160 C 
HETATM   10  H   UNL     1      43.892 -12.308   6.671  1.00  0.00     0.162 HD
ENDROOT
BRANCH   1  11
HETATM   11  C   UNL     1      42.654 -14.672   5.080  1.00  0.00     0.261 C 
HETATM   12  N   UNL     1      42.349 -15.486   4.007  1.00  0.00    -0.323 N 
HETATM   13  H   UNL     1      41.695 -15.095   3.338  1.00  0.00     0.169 HD
HETATM   14  O   UNL     1      43.529 -14.872   5.914  1.00  0.00    -0.267 OA
BRANCH  12  15
HETATM   15  C   UNL     1      42.883 -16.753   3.700  1.00  0.00     0.035 A 
HETATM   16  C   UNL     1      43.307 -17.673   4.661  1.00  0.00     0.039 A 
HETATM   17  C   UNL     1      43.813 -18.934   4.291  1.00  0.00    -0.028 A 
HETATM   18  C   UNL     1      43.877 -19.261   2.930  1.00  0.00     0.010 A 
HETATM   19  C   UNL     1      43.460 -18.348   1.964  1.00  0.00     0.003 A 
HETATM   20  C   UNL     1      42.964 -17.101   2.346  1.00  0.00     0.029 A 
BRANCH  17  21
HETATM   21  C   UNL     1      44.236 -19.910   5.369  1.00  0.00     0.147 C 
HETATM   22  C   UNL     1      43.389 -19.752   6.626  1.00  0.00     0.044 C 
BRANCH  21  23
HETATM   23  O   UNL     1      44.121 -21.253   4.901  1.00  0.00    -0.391 OA
HETATM   24  H   UNL     1      43.434 -21.256   4.216  1.00  0.00     0.210 HD
ENDBRANCH  21  23
ENDBRANCH  17  21
ENDBRANCH  12  15
ENDBRANCH   1  11
BRANCH   4  25
HETATM   25  C   UNL     1      39.246  -9.975   6.557  1.00  0.00     0.409 C 
HETATM   26  F   UNL     1      38.699 -11.027   7.207  1.00  0.00    -0.169 F 
HETATM   27  F   UNL     1      39.159  -8.912   7.405  1.00  0.00    -0.169 F 
HETATM   28  F   UNL     1      38.466  -9.674   5.500  1.00  0.00    -0.169 F 
ENDBRANCH   4  25
BRANCH   6  29
HETATM   29  C   UNL     1      43.860 -10.261   8.379  1.00  0.00     0.075 A 
HETATM   30  O   UNL     1      43.210  -9.943   9.536  1.00  0.00    -0.325 OA
HETATM   31  C   UNL     1      44.159  -9.765  10.489  1.00  0.00     0.142 A 
HETATM   32  C   UNL     1      45.414  -9.966   9.963  1.00  0.00     0.027 A 
HETATM   33  C   UNL     1      45.222 -10.286   8.598  1.00  0.00     0.037 A 
ENDBRANCH   6  29
TORSDOF 6
ENDMDL
MODEL 8
REMARK VINA RESULT:      -8.3      4.564      8.991
REMARK  6 active torsions:
REMARK  status: ('A' for Active; 'I' for Inactive)
REMARK    1  A    between atoms: C_2  and  O_3 
REMARK    2  A    between atoms: C_2  and  C_4 
REMARK    3  A    between atoms: C_6  and  N_7 
REMARK       I    between atoms: N_7  and  C_8 
REMARK    4  A    between atoms: C_8  and  C_9 
REMARK    5  A    between atoms: C_12  and  C_13 
REMARK    6  A    between atoms: C_18  and  C_19 
ROOT
HETATM    1  C   UNL     1      42.854 -13.154   5.074  1.00  0.00     0.096 C 
HETATM    2  C   UNL     1      42.338 -13.247   3.794  1.00  0.00     0.138 C 
HETATM    3  N   UNL     1      42.299 -14.592   3.500  1.00  0.00    -0.240 N 
HETATM    4  C   UNL     1      41.875 -15.140   2.225  1.00  0.00     0.221 C 
HETATM    5  C   UNL     1      41.083 -14.090   1.426  1.00  0.00     0.068 C 
HETATM    6  C   UNL     1      41.788 -12.731   1.478  1.00  0.00     0.143 C 
HETATM    7  N   UNL     1      41.931 -12.316   2.886  1.00  0.00    -0.363 N 
HETATM    8  N   UNL     1      42.900 -15.355   4.426  1.00  0.00    -0.181 NA
HETATM    9  C   UNL     1      43.206 -14.487   5.394  1.00  0.00     0.160 C 
HETATM   10  H   UNL     1      42.357 -11.388   2.943  1.00  0.00     0.162 HD
ENDROOT
BRANCH   1  11
HETATM   11  C   UNL     1      43.059 -11.982   5.911  1.00  0.00     0.261 C 
HETATM   12  N   UNL     1      44.208 -12.047   6.673  1.00  0.00    -0.323 N 
HETATM   13  H   UNL     1      44.820 -12.830   6.469  1.00  0.00     0.169 HD
HETATM   14  O   UNL     1      42.266 -11.048   5.876  1.00  0.00    -0.267 OA
BRANCH  12  15
HETATM   15  C   UNL     1      44.660 -11.131   7.642  1.00  0.00     0.035 A 
HETATM   16  C   UNL     1      44.076 -10.978   8.902  1.00  0.00     0.039 A 
HETATM   17  C   UNL     1      44.587 -10.058   9.837  1.00  0.00    -0.028 A 
HETATM   18  C   UNL     1      45.709  -9.295   9.487  1.00  0.00     0.010 A 
HETATM   19  C   UNL     1      46.297  -9.438   8.232  1.00  0.00     0.003 A 
HETATM   20  C   UNL     1      45.776 -10.351   7.315  1.00  0.00     0.029 A 
BRANCH  17  21
HETATM   21  C   UNL     1      43.938  -9.946  11.200  1.00  0.00     0.147 C 
HETATM   22  C   UNL     1      43.539  -8.508  11.511  1.00  0.00     0.044 C 
BRANCH  21  23
HETATM   23  O   UNL     1      42.777 -10.772  11.272  1.00  0.00    -0.391 OA
HETATM   24  H   UNL     1      42.179 -10.481  10.565  1.00  0.00     0.210 HD
ENDBRANCH  21  23
ENDBRANCH  17  21
ENDBRANCH  12  15
ENDBRANCH   1  11
BRANCH   4  25
HETATM   25  C   UNL     1      41.036 -16.387   2.396  1.00  0.00     0.409 C 
HETATM   26  F   UNL     1      40.311 -16.367   3.538  1.00  0.00    -0.169 F 
HETATM   27  F   UNL     1      40.140 -16.474   1.373  1.00  0.00    -0.169 F 
HETATM   28  F   UNL     1      41.749 -17.531   2.364  1.00  0.00    -0.169 F 
ENDBRANCH   4  25
BRANCH   6  29
HETATM   29  C   UNL     1      41.037 -11.735   0.653  1.00  0.00     0.075 A 
HETATM   30  O   UNL     1      40.835 -12.061  -0.657  1.00  0.00    -0.325 OA
HETATM   31  C   UNL     1      40.136 -11.041  -1.217  1.00  0.00     0.142 A 
HETATM   32  C   UNL     1      39.883 -10.062  -0.284  1.00  0.00     0.027 A 
HETATM   33  C   UNL     1      40.465 -10.509   0.925  1.00  0.00     0.037 A 
ENDBRANCH   6  29
TORSDOF 6
ENDMDL
MODEL 9
REMARK VINA RESULT:      -8.3      4.412      8.595
REMARK  6 active torsions:
REMARK  status: ('A' for Active; 'I' for Inactive)
REMARK    1  A    between atoms: C_2  and  O_3 
REMARK    2  A    between atoms: C_2  and  C_4 
REMARK    3  A    between atoms: C_6  and  N_7 
REMARK       I    between atoms: N_7  and  C_8 
REMARK    4  A    between atoms: C_8  and  C_9 
REMARK    5  A    between atoms: C_12  and  C_13 
REMARK    6  A    between atoms: C_18  and  C_19 
ROOT
HETATM    1  C   UNL     1      40.164 -14.420   0.939  1.00  0.00     0.096 C 
HETATM    2  C   UNL     1      39.676 -13.135   1.095  1.00  0.00     0.138 C 
HETATM    3  N   UNL     1      39.353 -12.698  -0.170  1.00  0.00    -0.240 N 
HETATM    4  C   UNL     1      38.856 -11.369  -0.477  1.00  0.00     0.221 C 
HETATM    5  C   UNL     1      38.336 -10.683   0.799  1.00  0.00     0.068 C 
HETATM    6  C   UNL     1      39.319 -10.885   1.958  1.00  0.00     0.143 C 
HETATM    7  N   UNL     1      39.508 -12.330   2.182  1.00  0.00    -0.363 N 
HETATM    8  N   UNL     1      39.746 -13.539  -1.138  1.00  0.00    -0.181 NA
HETATM    9  C   UNL     1      40.207 -14.596  -0.465  1.00  0.00     0.160 C 
HETATM   10  H   UNL     1      40.125 -12.489   2.983  1.00  0.00     0.162 HD
ENDROOT
BRANCH   1  11
HETATM   11  C   UNL     1      40.595 -15.379   1.945  1.00  0.00     0.261 C 
HETATM   12  N   UNL     1      41.948 -15.649   1.897  1.00  0.00    -0.323 N 
HETATM   13  H   UNL     1      42.485 -15.068   1.263  1.00  0.00     0.169 HD
HETATM   14  O   UNL     1      39.792 -15.844   2.745  1.00  0.00    -0.267 OA
BRANCH  12  15
HETATM   15  C   UNL     1      42.674 -16.582   2.664  1.00  0.00     0.035 A 
HETATM   16  C   UNL     1      42.901 -17.904   2.272  1.00  0.00     0.039 A 
HETATM   17  C   UNL     1      43.653 -18.784   3.074  1.00  0.00    -0.028 A 
HETATM   18  C   UNL     1      44.185 -18.308   4.279  1.00  0.00     0.010 A 
HETATM   19  C   UNL     1      43.961 -16.993   4.680  1.00  0.00     0.003 A 
HETATM   20  C   UNL     1      43.211 -16.134   3.876  1.00  0.00     0.029 A 
BRANCH  17  21
HETATM   21  C   UNL     1      43.897 -20.199   2.595  1.00  0.00     0.147 C 
HETATM   22  C   UNL     1      43.906 -21.186   3.757  1.00  0.00     0.044 C 
BRANCH  21  23
HETATM   23  O   UNL     1      42.891 -20.594   1.663  1.00  0.00    -0.391 OA
HETATM   24  H   UNL     1      43.312 -20.623   0.789  1.00  0.00     0.210 HD
ENDBRANCH  21  23
ENDBRANCH  17  21
ENDBRANCH  12  15
ENDBRANCH   1  11
BRANCH   4  25
HETATM   25  C   UNL     1      37.761 -11.401  -1.519  1.00  0.00     0.409 C 
HETATM   26  F   UNL     1      38.242 -11.258  -2.775  1.00  0.00    -0.169 F 
HETATM   27  F   UNL     1      37.135 -12.611  -1.482  1.00  0.00    -0.169 F 
HETATM   28  F   UNL     1      36.798 -10.478  -1.324  1.00  0.00    -0.169 F 
ENDBRANCH   4  25
BRANCH   6  29
HETATM   29  C   UNL     1      38.827 -10.167   3.174  1.00  0.00     0.075 A 
HETATM   30  O   UNL     1      38.934 -10.837   4.358  1.00  0.00    -0.325 OA
HETATM   31  C   UNL     1      38.447 -10.017   5.324  1.00  0.00     0.142 A 
HETATM   32  C   UNL     1      38.029  -8.825   4.778  1.00  0.00     0.027 A 
HETATM   33  C   UNL     1      38.274  -8.921   3.387  1.00  0.00     0.037 A 
ENDBRANCH   6  29
TORSDOF 6
ENDMDL
MODEL 10
REMARK VINA RESULT:      -8.3      4.646      9.259
REMARK  6 active torsions:
REMARK  status: ('A' for Active; 'I' for Inactive)
REMARK    1  A    between atoms: C_2  and  O_3 
REMARK    2  A    between atoms: C_2  and  C_4 
REMARK    3  A    between atoms: C_6  and  N_7 
REMARK       I    between atoms: N_7  and  C_8 
REMARK    4  A    between atoms: C_8  and  C_9 
REMARK    5  A    between atoms: C_12  and  C_13 
REMARK    6  A    between atoms: C_18  and  C_19 
ROOT
HETATM    1  C   UNL     1      40.653 -14.208   0.101  1.00  0.00     0.096 C 
HETATM    2  C   UNL     1      40.530 -13.060  -0.660  1.00  0.00     0.138 C 
HETATM    3  N   UNL     1      39.446 -13.267  -1.483  1.00  0.00    -0.240 N 
HETATM    4  C   UNL     1      38.993 -12.330  -2.495  1.00  0.00     0.221 C 
HETATM    5  C   UNL     1      39.587 -10.934  -2.237  1.00  0.00     0.068 C 
HETATM    6  C   UNL     1      41.079 -11.037  -1.903  1.00  0.00     0.143 C 
HETATM    7  N   UNL     1      41.248 -11.903  -0.721  1.00  0.00    -0.363 N 
HETATM    8  N   UNL     1      38.966 -14.518  -1.423  1.00  0.00    -0.181 NA
HETATM    9  C   UNL     1      39.676 -15.078  -0.440  1.00  0.00     0.160 C 
HETATM   10  H   UNL     1      42.234 -11.949  -0.450  1.00  0.00     0.162 HD
ENDROOT
BRANCH   1  11
HETATM   11  C   UNL     1      41.585 -14.516   1.175  1.00  0.00     0.261 C 
HETATM   12  N   UNL     1      41.548 -15.839   1.569  1.00  0.00    -0.323 N 
HETATM   13  H   UNL     1      40.978 -16.447   0.992  1.00  0.00     0.169 HD
HETATM   14  O   UNL     1      42.325 -13.648   1.623  1.00  0.00    -0.267 OA
BRANCH  12  15
HETATM   15  C   UNL     1      42.251 -16.449   2.626  1.00  0.00     0.035 A 
HETATM   16  C   UNL     1      42.125 -16.073   3.965  1.00  0.00     0.039 A 
HETATM   17  C   UNL     1      42.841 -16.737   4.980  1.00  0.00    -0.028 A 
HETATM   18  C   UNL     1      43.683 -17.799   4.625  1.00  0.00     0.010 A 
HETATM   19  C   UNL     1      43.818 -18.179   3.292  1.00  0.00     0.003 A 
HETATM   20  C   UNL     1      43.105 -17.509   2.297  1.00  0.00     0.029 A 
BRANCH  17  21
HETATM   21  C   UNL     1      42.652 -16.313   6.421  1.00  0.00     0.147 C 
HETATM   22  C   UNL     1      41.201 -15.944   6.707  1.00  0.00     0.044 C 
BRANCH  21  23
HETATM   23  O   UNL     1      43.044 -17.360   7.307  1.00  0.00    -0.391 OA
HETATM   24  H   UNL     1      42.953 -18.194   6.818  1.00  0.00     0.210 HD
ENDBRANCH  21  23
ENDBRANCH  17  21
ENDBRANCH  12  15
ENDBRANCH   1  11
BRANCH   4  25
HETATM   25  C   UNL     1      37.484 -12.238  -2.546  1.00  0.00     0.409 C 
HETATM   26  F   UNL     1      36.929 -12.201  -1.314  1.00  0.00    -0.169 F 
HETATM   27  F   UNL     1      37.122 -11.080  -3.166  1.00  0.00    -0.169 F 
HETATM   28  F   UNL     1      36.902 -13.233  -3.246  1.00  0.00    -0.169 F 
ENDBRANCH   4  25
BRANCH   6  29
HETATM   29  C   UNL     1      41.655  -9.671  -1.710  1.00  0.00     0.075 A 
HETATM   30  O   UNL     1      41.684  -8.863  -2.809  1.00  0.00    -0.325 OA
HETATM   31  C   UNL     1      42.227  -7.682  -2.419  1.00  0.00     0.142 A 
HETATM   32  C   UNL     1      42.548  -7.717  -1.082  1.00  0.00     0.027 A 
HETATM   33  C   UNL     1      42.178  -9.003  -0.622  1.00  0.00     0.037 A 
ENDBRANCH   6  29
TORSDOF 6
ENDMDL
