MODEL 1
REMARK VINA RESULT:      -7.5      0.000      0.000
REMARK  6 active torsions:
REMARK  status: ('A' for Active; 'I' for Inactive)
REMARK    1  A    between atoms: O_2  and  C_3 
REMARK    2  A    between atoms: C_6  and  S_7 
REMARK    3  A    between atoms: S_7  and  C_8 
REMARK    4  A    between atoms: C_11  and  N_12 
REMARK       I    between atoms: N_12  and  C_13 
REMARK    5  A    between atoms: C_13  and  C_14 
REMARK    6  A    between atoms: C_14  and  C_15 
ROOT
HETATM    1  C   UNL     1      41.760 -13.879   3.703  1.00  0.00     0.005 A 
HETATM    2  C   UNL     1      40.935 -13.580   4.789  1.00  0.00     0.021 A 
HETATM    3  C   UNL     1      41.282 -12.568   5.693  1.00  0.00     0.031 A 
HETATM    4  C   UNL     1      42.468 -11.851   5.532  1.00  0.00     0.034 A 
HETATM    5  C   UNL     1      43.290 -12.146   4.437  1.00  0.00     0.031 A 
HETATM    6  C   UNL     1      42.939 -13.152   3.527  1.00  0.00     0.021 A 
ENDROOT
BRANCH   4   7
HETATM    7  N   UNL     1      42.925 -10.873   6.441  1.00  0.00    -0.327 N 
HETATM    8  C   UNL     1      43.809 -11.049   7.491  1.00  0.00     0.227 C 
HETATM    9  O   UNL     1      44.225 -12.126   7.917  1.00  0.00    -0.273 OA
HETATM   10  H   UNL     1      42.548  -9.942   6.313  1.00  0.00     0.169 HD
BRANCH   8  11
HETATM   11  C   UNL     1      44.257  -9.736   8.131  1.00  0.00     0.159 C 
BRANCH  11  12
HETATM   12  C   UNL     1      43.902  -9.675   9.582  1.00  0.00     0.017 A 
HETATM   13  N   UNL     1      43.485 -10.786  10.282  1.00  0.00    -0.369 N 
HETATM   14  H   UNL     1      43.355 -11.709   9.878  1.00  0.00     0.165 HD
HETATM   15  C   UNL     1      43.258 -10.446  11.589  1.00  0.00     0.088 A 
HETATM   16  C   UNL     1      43.547  -9.109  11.739  1.00  0.00     0.019 A 
HETATM   17  C   UNL     1      43.955  -8.622  10.475  1.00  0.00     0.027 A 
ENDBRANCH  11  12
ENDBRANCH   8  11
ENDBRANCH   4   7
BRANCH   1  18
HETATM   18  S   UNL     1      41.359 -15.239   2.631  1.00  0.00    -0.091 SA
BRANCH  18  19
HETATM   19  C   UNL     1      42.436 -16.554   3.170  1.00  0.00     0.005 A 
HETATM   20  C   UNL     1      42.690 -16.671   4.540  1.00  0.00     0.021 A 
HETATM   21  C   UNL     1      43.466 -17.724   5.035  1.00  0.00     0.038 A 
HETATM   22  C   UNL     1      43.990 -18.685   4.170  1.00  0.00     0.068 A 
HETATM   23  C   UNL     1      43.752 -18.569   2.802  1.00  0.00     0.038 A 
HETATM   24  C   UNL     1      42.975 -17.513   2.306  1.00  0.00     0.021 A 
BRANCH  22  25
HETATM   25  O   UNL     1      44.708 -19.674   4.781  1.00  0.00    -0.356 OA
HETATM   26  C   UNL     1      43.978 -20.805   5.239  1.00  0.00     0.210 C 
ENDBRANCH  22  25
ENDBRANCH  18  19
ENDBRANCH   1  18
TORSDOF 6
ENDMDL
MODEL 2
REMARK VINA RESULT:      -7.1      3.167      9.180
REMARK  6 active torsions:
REMARK  status: ('A' for Active; 'I' for Inactive)
REMARK    1  A    between atoms: O_2  and  C_3 
REMARK    2  A    between atoms: C_6  and  S_7 
REMARK    3  A    between atoms: S_7  and  C_8 
REMARK    4  A    between atoms: C_11  and  N_12 
REMARK       I    between atoms: N_12  and  C_13 
REMARK    5  A    between atoms: C_13  and  C_14 
REMARK    6  A    between atoms: C_14  and  C_15 
ROOT
HETATM    1  C   UNL     1      44.564 -10.162   7.951  1.00  0.00     0.005 A 
HETATM    2  C   UNL     1      43.254 -10.138   7.471  1.00  0.00     0.021 A 
HETATM    3  C   UNL     1      42.848 -11.011   6.455  1.00  0.00     0.031 A 
HETATM    4  C   UNL     1      43.754 -11.910   5.891  1.00  0.00     0.034 A 
HETATM    5  C   UNL     1      45.067 -11.938   6.379  1.00  0.00     0.031 A 
HETATM    6  C   UNL     1      45.470 -11.072   7.403  1.00  0.00     0.021 A 
ENDROOT
BRANCH   4   7
HETATM    7  N   UNL     1      43.445 -12.766   4.812  1.00  0.00    -0.327 N 
HETATM    8  C   UNL     1      42.650 -13.898   4.838  1.00  0.00     0.227 C 
HETATM    9  O   UNL     1      42.204 -14.449   5.845  1.00  0.00    -0.273 OA
HETATM   10  H   UNL     1      43.869 -12.527   3.924  1.00  0.00     0.169 HD
BRANCH   8  11
HETATM   11  C   UNL     1      42.347 -14.457   3.449  1.00  0.00     0.159 C 
BRANCH  11  12
HETATM   12  C   UNL     1      42.860 -15.852   3.288  1.00  0.00     0.017 A 
HETATM   13  N   UNL     1      43.178 -16.647   4.368  1.00  0.00    -0.369 N 
HETATM   14  H   UNL     1      43.123 -16.352   5.338  1.00  0.00     0.165 HD
HETATM   15  C   UNL     1      43.592 -17.876   3.926  1.00  0.00     0.088 A 
HETATM   16  C   UNL     1      43.525 -17.881   2.552  1.00  0.00     0.019 A 
HETATM   17  C   UNL     1      43.063 -16.606   2.148  1.00  0.00     0.027 A 
ENDBRANCH  11  12
ENDBRANCH   8  11
ENDBRANCH   4   7
BRANCH   1  18
HETATM   18  S   UNL     1      45.089  -8.972   9.163  1.00  0.00    -0.091 SA
BRANCH  18  19
HETATM   19  C   UNL     1      43.976  -9.224  10.534  1.00  0.00     0.005 A 
HETATM   20  C   UNL     1      43.056  -8.212  10.825  1.00  0.00     0.021 A 
HETATM   21  C   UNL     1      42.109  -8.379  11.840  1.00  0.00     0.038 A 
HETATM   22  C   UNL     1      42.056  -9.565  12.572  1.00  0.00     0.068 A 
HETATM   23  C   UNL     1      42.977 -10.575  12.297  1.00  0.00     0.038 A 
HETATM   24  C   UNL     1      43.928 -10.406  11.280  1.00  0.00     0.021 A 
BRANCH  22  25
HETATM   25  O   UNL     1      41.070  -9.612  13.517  1.00  0.00    -0.356 OA
HETATM   26  C   UNL     1      39.918 -10.384  13.201  1.00  0.00     0.210 C 
ENDBRANCH  22  25
ENDBRANCH  18  19
ENDBRANCH   1  18
TORSDOF 6
ENDMDL
MODEL 3
REMARK VINA RESULT:      -6.9      5.696      8.338
REMARK  6 active torsions:
REMARK  status: ('A' for Active; 'I' for Inactive)
REMARK    1  A    between atoms: O_2  and  C_3 
REMARK    2  A    between atoms: C_6  and  S_7 
REMARK    3  A    between atoms: S_7  and  C_8 
REMARK    4  A    between atoms: C_11  and  N_12 
REMARK       I    between atoms: N_12  and  C_13 
REMARK    5  A    between atoms: C_13  and  C_14 
REMARK    6  A    between atoms: C_14  and  C_15 
ROOT
HETATM    1  C   UNL     1      41.753 -14.271   2.880  1.00  0.00     0.005 A 
HETATM    2  C   UNL     1      40.544 -14.965   2.797  1.00  0.00     0.021 A 
HETATM    3  C   UNL     1      39.634 -14.695   1.767  1.00  0.00     0.031 A 
HETATM    4  C   UNL     1      39.914 -13.715   0.813  1.00  0.00     0.034 A 
HETATM    5  C   UNL     1      41.132 -13.027   0.893  1.00  0.00     0.031 A 
HETATM    6  C   UNL     1      42.046 -13.303   1.918  1.00  0.00     0.021 A 
ENDROOT
BRANCH   4   7
HETATM    7  N   UNL     1      39.018 -13.332  -0.206  1.00  0.00    -0.327 N 
HETATM    8  C   UNL     1      38.995 -13.776  -1.517  1.00  0.00     0.227 C 
HETATM    9  O   UNL     1      39.858 -14.462  -2.066  1.00  0.00    -0.273 OA
HETATM   10  H   UNL     1      38.323 -12.641   0.053  1.00  0.00     0.169 HD
BRANCH   8  11
HETATM   11  C   UNL     1      37.756 -13.325  -2.288  1.00  0.00     0.159 C 
BRANCH  11  12
HETATM   12  C   UNL     1      37.770 -11.853  -2.551  1.00  0.00     0.017 A 
HETATM   13  N   UNL     1      38.704 -11.263  -3.374  1.00  0.00    -0.369 N 
HETATM   14  H   UNL     1      39.462 -11.758  -3.836  1.00  0.00     0.165 HD
HETATM   15  C   UNL     1      38.462  -9.918  -3.454  1.00  0.00     0.088 A 
HETATM   16  C   UNL     1      37.352  -9.638  -2.690  1.00  0.00     0.019 A 
HETATM   17  C   UNL     1      36.914 -10.858  -2.120  1.00  0.00     0.027 A 
ENDBRANCH  11  12
ENDBRANCH   8  11
ENDBRANCH   4   7
BRANCH   1  18
HETATM   18  S   UNL     1      42.844 -14.549   4.255  1.00  0.00    -0.091 SA
BRANCH  18  19
HETATM   19  C   UNL     1      43.340 -16.254   4.084  1.00  0.00     0.005 A 
HETATM   20  C   UNL     1      43.665 -16.960   5.246  1.00  0.00     0.021 A 
HETATM   21  C   UNL     1      43.991 -18.319   5.188  1.00  0.00     0.038 A 
HETATM   22  C   UNL     1      43.983 -18.997   3.969  1.00  0.00     0.068 A 
HETATM   23  C   UNL     1      43.673 -18.298   2.804  1.00  0.00     0.038 A 
HETATM   24  C   UNL     1      43.347 -16.936   2.863  1.00  0.00     0.021 A 
BRANCH  22  25
HETATM   25  O   UNL     1      44.295 -20.326   4.051  1.00  0.00    -0.356 OA
HETATM   26  C   UNL     1      43.943 -20.991   5.258  1.00  0.00     0.210 C 
ENDBRANCH  22  25
ENDBRANCH  18  19
ENDBRANCH   1  18
TORSDOF 6
ENDMDL
MODEL 4
REMARK VINA RESULT:      -6.9      3.172      9.531
REMARK  6 active torsions:
REMARK  status: ('A' for Active; 'I' for Inactive)
REMARK    1  A    between atoms: O_2  and  C_3 
REMARK    2  A    between atoms: C_6  and  S_7 
REMARK    3  A    between atoms: S_7  and  C_8 
REMARK    4  A    between atoms: C_11  and  N_12 
REMARK       I    between atoms: N_12  and  C_13 
REMARK    5  A    between atoms: C_13  and  C_14 
REMARK    6  A    between atoms: C_14  and  C_15 
ROOT
HETATM    1  C   UNL     1      44.346 -10.659   7.352  1.00  0.00     0.005 A 
HETATM    2  C   UNL     1      43.079 -10.369   6.842  1.00  0.00     0.021 A 
HETATM    3  C   UNL     1      42.311 -11.364   6.226  1.00  0.00     0.031 A 
HETATM    4  C   UNL     1      42.807 -12.662   6.095  1.00  0.00     0.034 A 
HETATM    5  C   UNL     1      44.075 -12.953   6.616  1.00  0.00     0.031 A 
HETATM    6  C   UNL     1      44.840 -11.960   7.241  1.00  0.00     0.021 A 
ENDROOT
BRANCH   4   7
HETATM    7  N   UNL     1      42.130 -13.699   5.420  1.00  0.00    -0.327 N 
HETATM    8  C   UNL     1      42.369 -14.164   4.138  1.00  0.00     0.227 C 
HETATM    9  O   UNL     1      43.109 -13.643   3.303  1.00  0.00    -0.273 OA
HETATM   10  H   UNL     1      41.374 -14.139   5.930  1.00  0.00     0.169 HD
BRANCH   8  11
HETATM   11  C   UNL     1      41.602 -15.443   3.805  1.00  0.00     0.159 C 
BRANCH  11  12
HETATM   12  C   UNL     1      42.522 -16.597   3.568  1.00  0.00     0.017 A 
HETATM   13  N   UNL     1      43.239 -17.186   4.587  1.00  0.00    -0.369 N 
HETATM   14  H   UNL     1      43.229 -16.876   5.554  1.00  0.00     0.165 HD
HETATM   15  C   UNL     1      43.971 -18.230   4.088  1.00  0.00     0.088 A 
HETATM   16  C   UNL     1      43.713 -18.328   2.740  1.00  0.00     0.019 A 
HETATM   17  C   UNL     1      42.798 -17.299   2.410  1.00  0.00     0.027 A 
ENDBRANCH  11  12
ENDBRANCH   8  11
ENDBRANCH   4   7
BRANCH   1  18
HETATM   18  S   UNL     1      45.349  -9.358   8.032  1.00  0.00    -0.091 SA
BRANCH  18  19
HETATM   19  C   UNL     1      44.356  -8.682   9.350  1.00  0.00     0.005 A 
HETATM   20  C   UNL     1      44.383  -9.332  10.588  1.00  0.00     0.021 A 
HETATM   21  C   UNL     1      43.685  -8.811  11.682  1.00  0.00     0.038 A 
HETATM   22  C   UNL     1      42.960  -7.625  11.561  1.00  0.00     0.068 A 
HETATM   23  C   UNL     1      42.917  -6.978  10.327  1.00  0.00     0.038 A 
HETATM   24  C   UNL     1      43.617  -7.501   9.230  1.00  0.00     0.021 A 
BRANCH  22  25
HETATM   25  O   UNL     1      42.344  -7.211  12.709  1.00  0.00    -0.356 OA
HETATM   26  C   UNL     1      43.111  -7.275  13.904  1.00  0.00     0.210 C 
ENDBRANCH  22  25
ENDBRANCH  18  19
ENDBRANCH   1  18
TORSDOF 6
ENDMDL
MODEL 5
REMARK VINA RESULT:      -6.6      3.920      5.355
REMARK  6 active torsions:
REMARK  status: ('A' for Active; 'I' for Inactive)
REMARK    1  A    between atoms: O_2  and  C_3 
REMARK    2  A    between atoms: C_6  and  S_7 
REMARK    3  A    between atoms: S_7  and  C_8 
REMARK    4  A    between atoms: C_11  and  N_12 
REMARK       I    between atoms: N_12  and  C_13 
REMARK    5  A    between atoms: C_13  and  C_14 
REMARK    6  A    between atoms: C_14  and  C_15 
ROOT
HETATM    1  C   UNL     1      41.084 -14.327   3.140  1.00  0.00     0.005 A 
HETATM    2  C   UNL     1      42.461 -14.556   3.151  1.00  0.00     0.021 A 
HETATM    3  C   UNL     1      43.304 -13.809   3.983  1.00  0.00     0.031 A 
HETATM    4  C   UNL     1      42.781 -12.809   4.806  1.00  0.00     0.034 A 
HETATM    5  C   UNL     1      41.398 -12.588   4.800  1.00  0.00     0.031 A 
HETATM    6  C   UNL     1      40.554 -13.341   3.975  1.00  0.00     0.021 A 
ENDROOT
BRANCH   4   7
HETATM    7  N   UNL     1      43.571 -11.963   5.613  1.00  0.00    -0.327 N 
HETATM    8  C   UNL     1      44.058 -12.225   6.882  1.00  0.00     0.227 C 
HETATM    9  O   UNL     1      43.749 -13.180   7.595  1.00  0.00    -0.273 OA
HETATM   10  H   UNL     1      43.790 -11.056   5.218  1.00  0.00     0.169 HD
BRANCH   8  11
HETATM   11  C   UNL     1      45.061 -11.182   7.372  1.00  0.00     0.159 C 
BRANCH  11  12
HETATM   12  C   UNL     1      44.624 -10.551   8.655  1.00  0.00     0.017 A 
HETATM   13  N   UNL     1      43.300 -10.493   9.031  1.00  0.00    -0.369 N 
HETATM   14  H   UNL     1      42.525 -10.837   8.471  1.00  0.00     0.165 HD
HETATM   15  C   UNL     1      43.197  -9.890  10.256  1.00  0.00     0.088 A 
HETATM   16  C   UNL     1      44.465  -9.570  10.683  1.00  0.00     0.019 A 
HETATM   17  C   UNL     1      45.367  -9.987   9.674  1.00  0.00     0.027 A 
ENDBRANCH  11  12
ENDBRANCH   8  11
ENDBRANCH   4   7
BRANCH   1  18
HETATM   18  S   UNL     1      40.046 -15.209   1.998  1.00  0.00    -0.091 SA
BRANCH  18  19
HETATM   19  C   UNL     1      40.179 -14.282   0.480  1.00  0.00     0.005 A 
HETATM   20  C   UNL     1      39.561 -14.804  -0.661  1.00  0.00     0.021 A 
HETATM   21  C   UNL     1      39.566 -14.091  -1.864  1.00  0.00     0.038 A 
HETATM   22  C   UNL     1      40.175 -12.839  -1.943  1.00  0.00     0.068 A 
HETATM   23  C   UNL     1      40.804 -12.317  -0.814  1.00  0.00     0.038 A 
HETATM   24  C   UNL     1      40.800 -13.032   0.392  1.00  0.00     0.021 A 
BRANCH  22  25
HETATM   25  O   UNL     1      40.089 -12.236  -3.167  1.00  0.00    -0.356 OA
HETATM   26  C   UNL     1      39.463 -10.960  -3.207  1.00  0.00     0.210 C 
ENDBRANCH  22  25
ENDBRANCH  18  19
ENDBRANCH   1  18
TORSDOF 6
ENDMDL
MODEL 6
REMARK VINA RESULT:      -6.6      4.607      7.997
REMARK  6 active torsions:
REMARK  status: ('A' for Active; 'I' for Inactive)
REMARK    1  A    between atoms: O_2  and  C_3 
REMARK    2  A    between atoms: C_6  and  S_7 
REMARK    3  A    between atoms: S_7  and  C_8 
REMARK    4  A    between atoms: C_11  and  N_12 
REMARK       I    between atoms: N_12  and  C_13 
REMARK    5  A    between atoms: C_13  and  C_14 
REMARK    6  A    between atoms: C_14  and  C_15 
ROOT
HETATM    1  C   UNL     1      42.039 -12.912   5.111  1.00  0.00     0.005 A 
HETATM    2  C   UNL     1      42.616 -12.196   4.060  1.00  0.00     0.021 A 
HETATM    3  C   UNL     1      41.868 -11.867   2.923  1.00  0.00     0.031 A 
HETATM    4  C   UNL     1      40.534 -12.265   2.813  1.00  0.00     0.034 A 
HETATM    5  C   UNL     1      39.955 -12.975   3.872  1.00  0.00     0.031 A 
HETATM    6  C   UNL     1      40.700 -13.296   5.014  1.00  0.00     0.021 A 
ENDROOT
BRANCH   4   7
HETATM    7  N   UNL     1      39.738 -12.041   1.670  1.00  0.00    -0.327 N 
HETATM    8  C   UNL     1      39.900 -12.595   0.411  1.00  0.00     0.227 C 
HETATM    9  O   UNL     1      40.866 -13.255   0.027  1.00  0.00    -0.273 OA
HETATM   10  H   UNL     1      38.973 -11.389   1.786  1.00  0.00     0.169 HD
BRANCH   8  11
HETATM   11  C   UNL     1      38.730 -12.310  -0.529  1.00  0.00     0.159 C 
BRANCH  11  12
HETATM   12  C   UNL     1      38.617 -13.344  -1.604  1.00  0.00     0.017 A 
HETATM   13  N   UNL     1      38.899 -14.673  -1.376  1.00  0.00    -0.369 N 
HETATM   14  H   UNL     1      39.229 -15.051  -0.492  1.00  0.00     0.165 HD
HETATM   15  C   UNL     1      38.684 -15.391  -2.522  1.00  0.00     0.088 A 
HETATM   16  C   UNL     1      38.243 -14.522  -3.493  1.00  0.00     0.019 A 
HETATM   17  C   UNL     1      38.199 -13.230  -2.916  1.00  0.00     0.027 A 
ENDBRANCH  11  12
ENDBRANCH   8  11
ENDBRANCH   4   7
BRANCH   1  18
HETATM   18  S   UNL     1      43.034 -13.415   6.495  1.00  0.00    -0.091 SA
BRANCH  18  19
HETATM   19  C   UNL     1      43.182 -15.182   6.309  1.00  0.00     0.005 A 
HETATM   20  C   UNL     1      43.390 -15.690   5.023  1.00  0.00     0.021 A 
HETATM   21  C   UNL     1      43.587 -17.059   4.819  1.00  0.00     0.038 A 
HETATM   22  C   UNL     1      43.593 -17.942   5.898  1.00  0.00     0.068 A 
HETATM   23  C   UNL     1      43.374 -17.447   7.183  1.00  0.00     0.038 A 
HETATM   24  C   UNL     1      43.175 -16.074   7.387  1.00  0.00     0.021 A 
BRANCH  22  25
HETATM   25  O   UNL     1      43.820 -19.249   5.568  1.00  0.00    -0.356 OA
HETATM   26  C   UNL     1      44.221 -19.508   4.228  1.00  0.00     0.210 C 
ENDBRANCH  22  25
ENDBRANCH  18  19
ENDBRANCH   1  18
TORSDOF 6
ENDMDL
MODEL 7
REMARK VINA RESULT:      -6.6      3.971      5.964
REMARK  6 active torsions:
REMARK  status: ('A' for Active; 'I' for Inactive)
REMARK    1  A    between atoms: O_2  and  C_3 
REMARK    2  A    between atoms: C_6  and  S_7 
REMARK    3  A    between atoms: S_7  and  C_8 
REMARK    4  A    between atoms: C_11  and  N_12 
REMARK       I    between atoms: N_12  and  C_13 
REMARK    5  A    between atoms: C_13  and  C_14 
REMARK    6  A    between atoms: C_14  and  C_15 
ROOT
HETATM    1  C   UNL     1      42.737 -15.770   6.609  1.00  0.00     0.005 A 
HETATM    2  C   UNL     1      41.343 -15.831   6.556  1.00  0.00     0.021 A 
HETATM    3  C   UNL     1      40.598 -14.755   6.058  1.00  0.00     0.031 A 
HETATM    4  C   UNL     1      41.237 -13.594   5.621  1.00  0.00     0.034 A 
HETATM    5  C   UNL     1      42.636 -13.538   5.667  1.00  0.00     0.031 A 
HETATM    6  C   UNL     1      43.382 -14.617   6.156  1.00  0.00     0.021 A 
ENDROOT
BRANCH   4   7
HETATM    7  N   UNL     1      40.556 -12.440   5.180  1.00  0.00    -0.327 N 
HETATM    8  C   UNL     1      39.871 -12.272   3.989  1.00  0.00     0.227 C 
HETATM    9  O   UNL     1      39.875 -13.048   3.033  1.00  0.00    -0.273 OA
HETATM   10  H   UNL     1      40.588 -11.643   5.804  1.00  0.00     0.169 HD
BRANCH   8  11
HETATM   11  C   UNL     1      39.063 -10.976   3.933  1.00  0.00     0.159 C 
BRANCH  11  12
HETATM   12  C   UNL     1      38.857 -10.510   2.528  1.00  0.00     0.017 A 
HETATM   13  N   UNL     1      39.908 -10.310   1.659  1.00  0.00    -0.369 N 
HETATM   14  H   UNL     1      40.888 -10.429   1.900  1.00  0.00     0.165 HD
HETATM   15  C   UNL     1      39.426  -9.914   0.440  1.00  0.00     0.088 A 
HETATM   16  C   UNL     1      38.053  -9.873   0.516  1.00  0.00     0.019 A 
HETATM   17  C   UNL     1      37.692 -10.249   1.832  1.00  0.00     0.027 A 
ENDBRANCH  11  12
ENDBRANCH   8  11
ENDBRANCH   4   7
BRANCH   1  18
HETATM   18  S   UNL     1      43.657 -17.100   7.347  1.00  0.00    -0.091 SA
BRANCH  18  19
HETATM   19  C   UNL     1      43.682 -18.365   6.089  1.00  0.00     0.005 A 
HETATM   20  C   UNL     1      43.853 -17.963   4.761  1.00  0.00     0.021 A 
HETATM   21  C   UNL     1      43.955 -18.910   3.737  1.00  0.00     0.038 A 
HETATM   22  C   UNL     1      43.901 -20.274   4.025  1.00  0.00     0.068 A 
HETATM   23  C   UNL     1      43.718 -20.683   5.345  1.00  0.00     0.038 A 
HETATM   24  C   UNL     1      43.615 -19.733   6.371  1.00  0.00     0.021 A 
BRANCH  22  25
HETATM   25  O   UNL     1      44.037 -21.094   2.940  1.00  0.00    -0.356 OA
HETATM   26  C   UNL     1      43.643 -20.560   1.682  1.00  0.00     0.210 C 
ENDBRANCH  22  25
ENDBRANCH  18  19
ENDBRANCH   1  18
TORSDOF 6
ENDMDL
MODEL 8
REMARK VINA RESULT:      -6.5      2.889      8.911
REMARK  6 active torsions:
REMARK  status: ('A' for Active; 'I' for Inactive)
REMARK    1  A    between atoms: O_2  and  C_3 
REMARK    2  A    between atoms: C_6  and  S_7 
REMARK    3  A    between atoms: S_7  and  C_8 
REMARK    4  A    between atoms: C_11  and  N_12 
REMARK       I    between atoms: N_12  and  C_13 
REMARK    5  A    between atoms: C_13  and  C_14 
REMARK    6  A    between atoms: C_14  and  C_15 
ROOT
HETATM    1  C   UNL     1      41.900 -12.106   5.138  1.00  0.00     0.005 A 
HETATM    2  C   UNL     1      41.774 -13.290   5.867  1.00  0.00     0.021 A 
HETATM    3  C   UNL     1      42.270 -14.498   5.361  1.00  0.00     0.031 A 
HETATM    4  C   UNL     1      42.886 -14.541   4.109  1.00  0.00     0.034 A 
HETATM    5  C   UNL     1      43.020 -13.350   3.384  1.00  0.00     0.031 A 
HETATM    6  C   UNL     1      42.532 -12.140   3.894  1.00  0.00     0.021 A 
ENDROOT
BRANCH   4   7
HETATM    7  N   UNL     1      43.341 -15.728   3.497  1.00  0.00    -0.327 N 
HETATM    8  C   UNL     1      42.581 -16.677   2.835  1.00  0.00     0.227 C 
HETATM    9  O   UNL     1      41.351 -16.732   2.807  1.00  0.00    -0.273 OA
HETATM   10  H   UNL     1      44.335 -15.907   3.567  1.00  0.00     0.169 HD
BRANCH   8  11
HETATM   11  C   UNL     1      43.422 -17.721   2.101  1.00  0.00     0.159 C 
BRANCH  11  12
HETATM   12  C   UNL     1      43.682 -18.922   2.952  1.00  0.00     0.017 A 
HETATM   13  N   UNL     1      44.050 -18.819   4.276  1.00  0.00    -0.369 N 
HETATM   14  H   UNL     1      44.203 -17.942   4.766  1.00  0.00     0.165 HD
HETATM   15  C   UNL     1      44.194 -20.071   4.811  1.00  0.00     0.088 A 
HETATM   16  C   UNL     1      43.900 -20.991   3.831  1.00  0.00     0.019 A 
HETATM   17  C   UNL     1      43.576 -20.268   2.658  1.00  0.00     0.027 A 
ENDBRANCH  11  12
ENDBRANCH   8  11
ENDBRANCH   4   7
BRANCH   1  18
HETATM   18  S   UNL     1      41.167 -10.605   5.747  1.00  0.00    -0.091 SA
BRANCH  18  19
HETATM   19  C   UNL     1      42.229 -10.113   7.093  1.00  0.00     0.005 A 
HETATM   20  C   UNL     1      41.674  -9.336   8.114  1.00  0.00     0.021 A 
HETATM   21  C   UNL     1      42.433  -8.979   9.232  1.00  0.00     0.038 A 
HETATM   22  C   UNL     1      43.756  -9.404   9.356  1.00  0.00     0.068 A 
HETATM   23  C   UNL     1      44.322 -10.168   8.336  1.00  0.00     0.038 A 
HETATM   24  C   UNL     1      43.560 -10.525   7.215  1.00  0.00     0.021 A 
BRANCH  22  25
HETATM   25  O   UNL     1      44.380  -9.008  10.506  1.00  0.00    -0.356 OA
HETATM   26  C   UNL     1      43.599  -9.024  11.694  1.00  0.00     0.210 C 
ENDBRANCH  22  25
ENDBRANCH  18  19
ENDBRANCH   1  18
TORSDOF 6
ENDMDL
MODEL 9
REMARK VINA RESULT:      -6.4      4.129      9.079
REMARK  6 active torsions:
REMARK  status: ('A' for Active; 'I' for Inactive)
REMARK    1  A    between atoms: O_2  and  C_3 
REMARK    2  A    between atoms: C_6  and  S_7 
REMARK    3  A    between atoms: S_7  and  C_8 
REMARK    4  A    between atoms: C_11  and  N_12 
REMARK       I    between atoms: N_12  and  C_13 
REMARK    5  A    between atoms: C_13  and  C_14 
REMARK    6  A    between atoms: C_14  and  C_15 
ROOT
HETATM    1  C   UNL     1      44.524 -11.783   6.468  1.00  0.00     0.005 A 
HETATM    2  C   UNL     1      43.984 -12.937   7.039  1.00  0.00     0.021 A 
HETATM    3  C   UNL     1      43.150 -13.780   6.295  1.00  0.00     0.031 A 
HETATM    4  C   UNL     1      42.830 -13.471   4.972  1.00  0.00     0.034 A 
HETATM    5  C   UNL     1      43.379 -12.318   4.398  1.00  0.00     0.031 A 
HETATM    6  C   UNL     1      44.221 -11.479   5.139  1.00  0.00     0.021 A 
ENDROOT
BRANCH   4   7
HETATM    7  N   UNL     1      41.937 -14.226   4.182  1.00  0.00    -0.327 N 
HETATM    8  C   UNL     1      40.702 -13.830   3.697  1.00  0.00     0.227 C 
HETATM    9  O   UNL     1      40.095 -12.805   4.008  1.00  0.00    -0.273 OA
HETATM   10  H   UNL     1      42.232 -15.170   3.961  1.00  0.00     0.169 HD
BRANCH   8  11
HETATM   11  C   UNL     1      40.103 -14.813   2.693  1.00  0.00     0.159 C 
BRANCH  11  12
HETATM   12  C   UNL     1      40.183 -14.295   1.293  1.00  0.00     0.017 A 
HETATM   13  N   UNL     1      40.662 -13.036   1.002  1.00  0.00    -0.369 N 
HETATM   14  H   UNL     1      40.964 -12.359   1.696  1.00  0.00     0.165 HD
HETATM   15  C   UNL     1      40.647 -12.842  -0.353  1.00  0.00     0.088 A 
HETATM   16  C   UNL     1      40.171 -13.990  -0.944  1.00  0.00     0.019 A 
HETATM   17  C   UNL     1      39.879 -14.908   0.092  1.00  0.00     0.027 A 
ENDBRANCH  11  12
ENDBRANCH   8  11
ENDBRANCH   4   7
BRANCH   1  18
HETATM   18  S   UNL     1      45.490 -10.669   7.461  1.00  0.00    -0.091 SA
BRANCH  18  19
HETATM   19  C   UNL     1      44.378 -10.165   8.762  1.00  0.00     0.005 A 
HETATM   20  C   UNL     1      44.881 -10.108  10.066  1.00  0.00     0.021 A 
HETATM   21  C   UNL     1      44.082  -9.651  11.119  1.00  0.00     0.038 A 
HETATM   22  C   UNL     1      42.773  -9.231  10.884  1.00  0.00     0.068 A 
HETATM   23  C   UNL     1      42.260  -9.297   9.590  1.00  0.00     0.038 A 
HETATM   24  C   UNL     1      43.061  -9.756   8.535  1.00  0.00     0.021 A 
BRANCH  22  25
HETATM   25  O   UNL     1      42.108  -8.785  11.992  1.00  0.00    -0.356 OA
HETATM   26  C   UNL     1      40.794  -9.291  12.195  1.00  0.00     0.210 C 
ENDBRANCH  22  25
ENDBRANCH  18  19
ENDBRANCH   1  18
TORSDOF 6
ENDMDL
MODEL 10
REMARK VINA RESULT:      -6.4      5.056      7.679
REMARK  6 active torsions:
REMARK  status: ('A' for Active; 'I' for Inactive)
REMARK    1  A    between atoms: O_2  and  C_3 
REMARK    2  A    between atoms: C_6  and  S_7 
REMARK    3  A    between atoms: S_7  and  C_8 
REMARK    4  A    between atoms: C_11  and  N_12 
REMARK       I    between atoms: N_12  and  C_13 
REMARK    5  A    between atoms: C_13  and  C_14 
REMARK    6  A    between atoms: C_14  and  C_15 
ROOT
HETATM    1  C   UNL     1      42.125 -14.386   4.275  1.00  0.00     0.005 A 
HETATM    2  C   UNL     1      40.829 -14.902   4.228  1.00  0.00     0.021 A 
HETATM    3  C   UNL     1      39.954 -14.543   3.195  1.00  0.00     0.031 A 
HETATM    4  C   UNL     1      40.358 -13.648   2.203  1.00  0.00     0.034 A 
HETATM    5  C   UNL     1      41.662 -13.139   2.248  1.00  0.00     0.031 A 
HETATM    6  C   UNL     1      42.541 -13.505   3.275  1.00  0.00     0.021 A 
ENDROOT
BRANCH   4   7
HETATM    7  N   UNL     1      39.512 -13.178   1.176  1.00  0.00    -0.327 N 
HETATM    8  C   UNL     1      39.182 -11.863   0.896  1.00  0.00     0.227 C 
HETATM    9  O   UNL     1      39.440 -10.884   1.597  1.00  0.00    -0.273 OA
HETATM   10  H   UNL     1      39.091 -13.889   0.592  1.00  0.00     0.169 HD
BRANCH   8  11
HETATM   11  C   UNL     1      38.423 -11.698  -0.420  1.00  0.00     0.159 C 
BRANCH  11  12
HETATM   12  C   UNL     1      38.895 -12.663  -1.459  1.00  0.00     0.017 A 
HETATM   13  N   UNL     1      40.174 -12.624  -1.970  1.00  0.00    -0.369 N 
HETATM   14  H   UNL     1      40.877 -11.936  -1.717  1.00  0.00     0.165 HD
HETATM   15  C   UNL     1      40.336 -13.637  -2.878  1.00  0.00     0.088 A 
HETATM   16  C   UNL     1      39.160 -14.347  -2.940  1.00  0.00     0.019 A 
HETATM   17  C   UNL     1      38.250 -13.735  -2.045  1.00  0.00     0.027 A 
ENDBRANCH  11  12
ENDBRANCH   8  11
ENDBRANCH   4   7
BRANCH   1  18
HETATM   18  S   UNL     1      43.183 -14.767   5.652  1.00  0.00    -0.091 SA
BRANCH  18  19
HETATM   19  C   UNL     1      43.373 -16.539   5.582  1.00  0.00     0.005 A 
HETATM   20  C   UNL     1      43.833 -17.100   4.386  1.00  0.00     0.021 A 
HETATM   21  C   UNL     1      44.073 -18.474   4.289  1.00  0.00     0.038 A 
HETATM   22  C   UNL     1      43.871 -19.308   5.389  1.00  0.00     0.068 A 
HETATM   23  C   UNL     1      43.401 -18.759   6.581  1.00  0.00     0.038 A 
HETATM   24  C   UNL     1      43.159 -17.381   6.677  1.00  0.00     0.021 A 
BRANCH  22  25
HETATM   25  O   UNL     1      44.166 -20.625   5.171  1.00  0.00    -0.356 OA
HETATM   26  C   UNL     1      43.993 -21.106   3.844  1.00  0.00     0.210 C 
ENDBRANCH  22  25
ENDBRANCH  18  19
ENDBRANCH   1  18
TORSDOF 6
ENDMDL
