MODEL 1
REMARK VINA RESULT:      -8.8      0.000      0.000
REMARK  8 active torsions:
REMARK  status: ('A' for Active; 'I' for Inactive)
REMARK    1  A    between atoms: N_2  and  C_4 
REMARK    2  A    between atoms: N_2  and  C_27 
REMARK    3  A    between atoms: C_4  and  C_5 
REMARK    4  A    between atoms: C_8  and  C_9 
REMARK    5  A    between atoms: C_9  and  N_10 
REMARK       I    between atoms: N_10  and  C_11 
REMARK    6  A    between atoms: C_11  and  C_12 
REMARK    7  A    between atoms: C_27  and  C_28 
REMARK    8  A    between atoms: C_28  and  C_29 
ROOT
HETATM    1  C   UNL     1      41.810 -15.203   4.178  1.00  0.00     0.041 C 
HETATM    2  C   UNL     1      42.526 -15.427   2.811  1.00  0.00    -0.004 C 
HETATM    3  C   UNL     1      43.033 -14.074   2.247  1.00  0.00     0.040 C 
HETATM    4  C   UNL     1      41.842 -13.181   1.853  1.00  0.00     0.206 C 
HETATM    5  N   UNL     1      40.615 -13.799   2.519  1.00  0.00    -0.065 N 
HETATM    6  H   UNL     1      39.838 -13.110   2.454  1.00  0.00     0.280 HD
HETATM    7  C   UNL     1      40.801 -14.060   4.001  1.00  0.00     0.242 C 
HETATM    8  C   UNL     1      41.466 -15.986   1.827  1.00  0.00     0.032 C 
HETATM    9  C   UNL     1      40.235 -15.070   1.791  1.00  0.00     0.236 C 
ENDROOT
BRANCH   4  10
HETATM   10  C   UNL     1      42.035 -11.681   2.189  1.00  0.00     0.156 C 
BRANCH  10  11
HETATM   11  N   UNL     1      42.856 -11.434   3.370  1.00  0.00    -0.355 N 
HETATM   12  C   UNL     1      42.338 -10.917   4.538  1.00  0.00     0.251 C 
HETATM   13  O   UNL     1      41.197 -10.464   4.594  1.00  0.00    -0.268 OA
HETATM   14  H   UNL     1      43.738 -11.937   3.438  1.00  0.00     0.162 HD
BRANCH  12  15
HETATM   15  C   UNL     1      43.229 -10.896   5.722  1.00  0.00     0.034 A 
HETATM   16  C   UNL     1      42.853 -10.228   6.894  1.00  0.00     0.056 A 
HETATM   17  C   UNL     1      43.717 -10.298   7.967  1.00  0.00     0.106 A 
HETATM   18  C   UNL     1      44.905 -10.986   7.904  1.00  0.00     0.105 A 
HETATM   19  O   UNL     1      43.508  -9.732   9.184  1.00  0.00    -0.323 OA
HETATM   20  O   UNL     1      45.595 -10.933   9.073  1.00  0.00    -0.323 OA
HETATM   21  C   UNL     1      45.300 -11.653   6.765  1.00  0.00     0.041 A 
HETATM   22  C   UNL     1      44.701 -10.149   9.890  1.00  0.00     0.352 A 
HETATM   23  C   UNL     1      44.444 -11.613   5.659  1.00  0.00     0.020 A 
ENDBRANCH  12  15
ENDBRANCH  10  11
ENDBRANCH   4  10
BRANCH   1  24
HETATM   24  C   UNL     1      42.801 -14.983   5.340  1.00  0.00     0.241 C 
BRANCH  24  25
HETATM   25  N   UNL     1      42.534 -15.826   6.567  1.00  0.00    -0.074 N 
HETATM   26  C   UNL     1      43.067 -15.143   7.812  1.00  0.00     0.269 C 
HETATM   27  H   UNL     1      41.508 -15.917   6.734  1.00  0.00     0.279 HD
BRANCH  25  28
HETATM   28  C   UNL     1      43.012 -17.276   6.477  1.00  0.00     0.240 C 
BRANCH  28  29
HETATM   29  C   UNL     1      44.133 -17.466   5.445  1.00  0.00     0.087 C 
BRANCH  29  30
HETATM   30  C   UNL     1      43.960 -18.677   4.554  1.00  0.00     0.035 A 
HETATM   31  N   UNL     1      44.057 -19.914   5.128  1.00  0.00    -0.266 NA
HETATM   32  C   UNL     1      43.982 -20.980   4.283  1.00  0.00     0.117 A 
HETATM   33  C   UNL     1      43.812 -20.879   2.915  1.00  0.00     0.019 A 
HETATM   34  C   UNL     1      43.721 -19.610   2.358  1.00  0.00     0.003 A 
HETATM   35  C   UNL     1      43.803 -18.493   3.182  1.00  0.00     0.027 A 
ENDBRANCH  29  30
ENDBRANCH  28  29
ENDBRANCH  25  28
ENDBRANCH  24  25
ENDBRANCH   1  24
TORSDOF 8
ENDMDL
MODEL 2
REMARK VINA RESULT:      -8.5      3.216      7.484
REMARK  8 active torsions:
REMARK  status: ('A' for Active; 'I' for Inactive)
REMARK    1  A    between atoms: N_2  and  C_4 
REMARK    2  A    between atoms: N_2  and  C_27 
REMARK    3  A    between atoms: C_4  and  C_5 
REMARK    4  A    between atoms: C_8  and  C_9 
REMARK    5  A    between atoms: C_9  and  N_10 
REMARK       I    between atoms: N_10  and  C_11 
REMARK    6  A    between atoms: C_11  and  C_12 
REMARK    7  A    between atoms: C_27  and  C_28 
REMARK    8  A    between atoms: C_28  and  C_29 
ROOT
HETATM    1  C   UNL     1      41.101 -12.144   3.751  1.00  0.00     0.041 C 
HETATM    2  C   UNL     1      39.709 -12.839   3.638  1.00  0.00    -0.004 C 
HETATM    3  C   UNL     1      39.806 -14.077   2.709  1.00  0.00     0.040 C 
HETATM    4  C   UNL     1      40.073 -13.636   1.257  1.00  0.00     0.206 C 
HETATM    5  N   UNL     1      40.527 -12.180   1.338  1.00  0.00    -0.065 N 
HETATM    6  H   UNL     1      40.918 -11.917   0.411  1.00  0.00     0.280 HD
HETATM    7  C   UNL     1      41.650 -11.952   2.330  1.00  0.00     0.242 C 
HETATM    8  C   UNL     1      38.744 -11.821   2.977  1.00  0.00     0.032 C 
HETATM    9  C   UNL     1      39.337 -11.301   1.659  1.00  0.00     0.236 C 
ENDROOT
BRANCH   4  10
HETATM   10  C   UNL     1      41.063 -14.546   0.489  1.00  0.00     0.156 C 
BRANCH  10  11
HETATM   11  N   UNL     1      41.584 -15.660   1.275  1.00  0.00    -0.355 N 
HETATM   12  C   UNL     1      42.836 -15.637   1.853  1.00  0.00     0.251 C 
HETATM   13  O   UNL     1      43.654 -14.760   1.587  1.00  0.00    -0.268 OA
HETATM   14  H   UNL     1      40.907 -16.314   1.663  1.00  0.00     0.162 HD
BRANCH  12  15
HETATM   15  C   UNL     1      43.170 -16.741   2.784  1.00  0.00     0.034 A 
HETATM   16  C   UNL     1      43.174 -18.072   2.350  1.00  0.00     0.056 A 
HETATM   17  C   UNL     1      43.544 -19.034   3.266  1.00  0.00     0.106 A 
HETATM   18  C   UNL     1      43.892 -18.719   4.557  1.00  0.00     0.105 A 
HETATM   19  O   UNL     1      43.626 -20.368   3.017  1.00  0.00    -0.323 OA
HETATM   20  O   UNL     1      44.230 -19.815   5.284  1.00  0.00    -0.323 OA
HETATM   21  C   UNL     1      43.898 -17.418   5.011  1.00  0.00     0.041 A 
HETATM   22  C   UNL     1      44.075 -20.861   4.301  1.00  0.00     0.352 A 
HETATM   23  C   UNL     1      43.538 -16.413   4.107  1.00  0.00     0.020 A 
ENDBRANCH  12  15
ENDBRANCH  10  11
ENDBRANCH   4  10
BRANCH   1  24
HETATM   24  C   UNL     1      42.065 -12.893   4.695  1.00  0.00     0.241 C 
BRANCH  24  25
HETATM   25  N   UNL     1      42.699 -12.033   5.765  1.00  0.00    -0.074 N 
HETATM   26  C   UNL     1      41.770 -10.902   6.161  1.00  0.00     0.269 C 
HETATM   27  H   UNL     1      42.837 -12.582   6.641  1.00  0.00     0.279 HD
BRANCH  25  28
HETATM   28  C   UNL     1      44.102 -11.519   5.440  1.00  0.00     0.240 C 
BRANCH  28  29
HETATM   29  C   UNL     1      45.135 -11.901   6.510  1.00  0.00     0.087 C 
BRANCH  29  30
HETATM   30  C   UNL     1      45.087 -11.043   7.756  1.00  0.00     0.035 A 
HETATM   31  N   UNL     1      44.155 -11.347   8.709  1.00  0.00    -0.266 NA
HETATM   32  C   UNL     1      44.085 -10.504   9.776  1.00  0.00     0.117 A 
HETATM   33  C   UNL     1      44.888  -9.390   9.943  1.00  0.00     0.019 A 
HETATM   34  C   UNL     1      45.823  -9.102   8.958  1.00  0.00     0.003 A 
HETATM   35  C   UNL     1      45.922  -9.931   7.845  1.00  0.00     0.027 A 
ENDBRANCH  29  30
ENDBRANCH  28  29
ENDBRANCH  25  28
ENDBRANCH  24  25
ENDBRANCH   1  24
TORSDOF 8
ENDMDL
MODEL 3
REMARK VINA RESULT:      -8.3      2.889      4.761
REMARK  8 active torsions:
REMARK  status: ('A' for Active; 'I' for Inactive)
REMARK    1  A    between atoms: N_2  and  C_4 
REMARK    2  A    between atoms: N_2  and  C_27 
REMARK    3  A    between atoms: C_4  and  C_5 
REMARK    4  A    between atoms: C_8  and  C_9 
REMARK    5  A    between atoms: C_9  and  N_10 
REMARK       I    between atoms: N_10  and  C_11 
REMARK    6  A    between atoms: C_11  and  C_12 
REMARK    7  A    between atoms: C_27  and  C_28 
REMARK    8  A    between atoms: C_28  and  C_29 
ROOT
HETATM    1  C   UNL     1      42.148 -12.918   4.760  1.00  0.00     0.041 C 
HETATM    2  C   UNL     1      43.303 -12.008   4.242  1.00  0.00    -0.004 C 
HETATM    3  C   UNL     1      44.320 -11.736   5.381  1.00  0.00     0.040 C 
HETATM    4  C   UNL     1      43.675 -10.861   6.473  1.00  0.00     0.206 C 
HETATM    5  N   UNL     1      42.171 -10.911   6.218  1.00  0.00    -0.065 N 
HETATM    6  H   UNL     1      41.694 -10.514   7.053  1.00  0.00     0.280 HD
HETATM    7  C   UNL     1      41.630 -12.320   6.076  1.00  0.00     0.242 C 
HETATM    8  C   UNL     1      42.669 -10.652   3.836  1.00  0.00     0.032 C 
HETATM    9  C   UNL     1      41.841 -10.081   4.996  1.00  0.00     0.236 C 
ENDROOT
BRANCH   4  10
HETATM   10  C   UNL     1      44.067 -11.259   7.918  1.00  0.00     0.156 C 
BRANCH  10  11
HETATM   11  N   UNL     1      43.302 -10.574   8.955  1.00  0.00    -0.355 N 
HETATM   12  C   UNL     1      43.812 -10.329  10.213  1.00  0.00     0.251 C 
HETATM   13  O   UNL     1      44.867 -10.833  10.591  1.00  0.00    -0.268 OA
HETATM   14  H   UNL     1      42.519  -9.998   8.654  1.00  0.00     0.162 HD
BRANCH  12  15
HETATM   15  C   UNL     1      43.014  -9.458  11.108  1.00  0.00     0.034 A 
HETATM   16  C   UNL     1      41.615  -9.517  11.108  1.00  0.00     0.056 A 
HETATM   17  C   UNL     1      40.949  -8.709  12.005  1.00  0.00     0.106 A 
HETATM   18  C   UNL     1      41.614  -7.870  12.867  1.00  0.00     0.105 A 
HETATM   19  O   UNL     1      39.600  -8.649  12.161  1.00  0.00    -0.323 OA
HETATM   20  O   UNL     1      40.767  -7.173  13.668  1.00  0.00    -0.323 OA
HETATM   21  C   UNL     1      42.990  -7.791  12.888  1.00  0.00     0.041 A 
HETATM   22  C   UNL     1      39.488  -7.680  13.230  1.00  0.00     0.352 A 
HETATM   23  C   UNL     1      43.700  -8.605  11.999  1.00  0.00     0.020 A 
ENDBRANCH  12  15
ENDBRANCH  10  11
ENDBRANCH   4  10
BRANCH   1  24
HETATM   24  C   UNL     1      42.562 -14.400   4.871  1.00  0.00     0.241 C 
BRANCH  24  25
HETATM   25  N   UNL     1      41.480 -15.389   4.500  1.00  0.00    -0.074 N 
HETATM   26  C   UNL     1      41.100 -16.239   5.697  1.00  0.00     0.269 C 
HETATM   27  H   UNL     1      40.601 -14.890   4.240  1.00  0.00     0.279 HD
BRANCH  25  28
HETATM   28  C   UNL     1      41.778 -16.252   3.274  1.00  0.00     0.240 C 
BRANCH  28  29
HETATM   29  C   UNL     1      43.245 -16.704   3.211  1.00  0.00     0.087 C 
BRANCH  29  30
HETATM   30  C   UNL     1      43.440 -18.201   3.321  1.00  0.00     0.035 A 
HETATM   31  N   UNL     1      43.940 -18.697   4.494  1.00  0.00    -0.266 NA
HETATM   32  C   UNL     1      44.183 -20.037   4.527  1.00  0.00     0.117 A 
HETATM   33  C   UNL     1      43.952 -20.897   3.469  1.00  0.00     0.019 A 
HETATM   34  C   UNL     1      43.448 -20.365   2.290  1.00  0.00     0.003 A 
HETATM   35  C   UNL     1      43.195 -19.000   2.207  1.00  0.00     0.027 A 
ENDBRANCH  29  30
ENDBRANCH  28  29
ENDBRANCH  25  28
ENDBRANCH  24  25
ENDBRANCH   1  24
TORSDOF 8
ENDMDL
MODEL 4
REMARK VINA RESULT:      -8.1      3.550      7.439
REMARK  8 active torsions:
REMARK  status: ('A' for Active; 'I' for Inactive)
REMARK    1  A    between atoms: N_2  and  C_4 
REMARK    2  A    between atoms: N_2  and  C_27 
REMARK    3  A    between atoms: C_4  and  C_5 
REMARK    4  A    between atoms: C_8  and  C_9 
REMARK    5  A    between atoms: C_9  and  N_10 
REMARK       I    between atoms: N_10  and  C_11 
REMARK    6  A    between atoms: C_11  and  C_12 
REMARK    7  A    between atoms: C_27  and  C_28 
REMARK    8  A    between atoms: C_28  and  C_29 
ROOT
HETATM    1  C   UNL     1      41.085 -12.326   4.250  1.00  0.00     0.041 C 
HETATM    2  C   UNL     1      42.366 -11.454   4.076  1.00  0.00    -0.004 C 
HETATM    3  C   UNL     1      43.538 -12.061   4.891  1.00  0.00     0.040 C 
HETATM    4  C   UNL     1      43.259 -11.938   6.401  1.00  0.00     0.206 C 
HETATM    5  N   UNL     1      41.770 -11.621   6.527  1.00  0.00    -0.065 N 
HETATM    6  H   UNL     1      41.504 -11.743   7.525  1.00  0.00     0.280 HD
HETATM    7  C   UNL     1      40.882 -12.573   5.752  1.00  0.00     0.242 C 
HETATM    8  C   UNL     1      42.050 -10.055   4.667  1.00  0.00     0.032 C 
HETATM    9  C   UNL     1      41.525 -10.188   6.104  1.00  0.00     0.236 C 
ENDROOT
BRANCH   4  10
HETATM   10  C   UNL     1      43.697 -13.172   7.229  1.00  0.00     0.156 C 
BRANCH  10  11
HETATM   11  N   UNL     1      43.944 -14.370   6.433  1.00  0.00    -0.355 N 
HETATM   12  C   UNL     1      43.321 -15.573   6.691  1.00  0.00     0.251 C 
HETATM   13  O   UNL     1      42.667 -15.754   7.715  1.00  0.00    -0.268 OA
HETATM   14  H   UNL     1      44.326 -14.238   5.499  1.00  0.00     0.162 HD
BRANCH  12  15
HETATM   15  C   UNL     1      43.506 -16.656   5.697  1.00  0.00     0.034 A 
HETATM   16  C   UNL     1      43.740 -17.975   6.106  1.00  0.00     0.056 A 
HETATM   17  C   UNL     1      43.851 -18.932   5.120  1.00  0.00     0.106 A 
HETATM   18  C   UNL     1      43.746 -18.622   3.786  1.00  0.00     0.105 A 
HETATM   19  O   UNL     1      44.057 -20.259   5.330  1.00  0.00    -0.323 OA
HETATM   20  O   UNL     1      43.878 -19.714   2.989  1.00  0.00    -0.323 OA
HETATM   21  C   UNL     1      43.516 -17.334   3.354  1.00  0.00     0.041 A 
HETATM   22  C   UNL     1      44.060 -20.756   3.971  1.00  0.00     0.352 A 
HETATM   23  C   UNL     1      43.386 -16.337   4.328  1.00  0.00     0.020 A 
ENDBRANCH  12  15
ENDBRANCH  10  11
ENDBRANCH   4  10
BRANCH   1  24
HETATM   24  C   UNL     1      41.125 -13.617   3.407  1.00  0.00     0.241 C 
BRANCH  24  25
HETATM   25  N   UNL     1      39.784 -14.066   2.871  1.00  0.00    -0.074 N 
HETATM   26  C   UNL     1      39.829 -15.527   2.472  1.00  0.00     0.269 C 
HETATM   27  H   UNL     1      39.057 -14.018   3.618  1.00  0.00     0.279 HD
BRANCH  25  28
HETATM   28  C   UNL     1      39.206 -13.197   1.753  1.00  0.00     0.240 C 
BRANCH  28  29
HETATM   29  C   UNL     1      40.213 -12.942   0.622  1.00  0.00     0.087 C 
BRANCH  29  30
HETATM   30  C   UNL     1      39.706 -13.309  -0.757  1.00  0.00     0.035 A 
HETATM   31  N   UNL     1      39.387 -12.292  -1.613  1.00  0.00    -0.266 NA
HETATM   32  C   UNL     1      38.855 -12.657  -2.812  1.00  0.00     0.117 A 
HETATM   33  C   UNL     1      38.633 -13.966  -3.200  1.00  0.00     0.019 A 
HETATM   34  C   UNL     1      38.963 -14.978  -2.309  1.00  0.00     0.003 A 
HETATM   35  C   UNL     1      39.499 -14.650  -1.068  1.00  0.00     0.027 A 
ENDBRANCH  29  30
ENDBRANCH  28  29
ENDBRANCH  25  28
ENDBRANCH  24  25
ENDBRANCH   1  24
TORSDOF 8
ENDMDL
MODEL 5
REMARK VINA RESULT:      -8.0      3.433      6.742
REMARK  8 active torsions:
REMARK  status: ('A' for Active; 'I' for Inactive)
REMARK    1  A    between atoms: N_2  and  C_4 
REMARK    2  A    between atoms: N_2  and  C_27 
REMARK    3  A    between atoms: C_4  and  C_5 
REMARK    4  A    between atoms: C_8  and  C_9 
REMARK    5  A    between atoms: C_9  and  N_10 
REMARK       I    between atoms: N_10  and  C_11 
REMARK    6  A    between atoms: C_11  and  C_12 
REMARK    7  A    between atoms: C_27  and  C_28 
REMARK    8  A    between atoms: C_28  and  C_29 
ROOT
HETATM    1  C   UNL     1      40.705 -13.048   4.363  1.00  0.00     0.041 C 
HETATM    2  C   UNL     1      39.461 -12.214   4.798  1.00  0.00    -0.004 C 
HETATM    3  C   UNL     1      39.233 -11.041   3.809  1.00  0.00     0.040 C 
HETATM    4  C   UNL     1      40.375 -10.015   3.927  1.00  0.00     0.206 C 
HETATM    5  N   UNL     1      41.497 -10.720   4.686  1.00  0.00    -0.065 N 
HETATM    6  H   UNL     1      42.355 -10.139   4.597  1.00  0.00     0.280 HD
HETATM    7  C   UNL     1      41.861 -12.072   4.106  1.00  0.00     0.242 C 
HETATM    8  C   UNL     1      39.782 -11.609   6.189  1.00  0.00     0.032 C 
HETATM    9  C   UNL     1      41.113 -10.845   6.145  1.00  0.00     0.236 C 
ENDROOT
BRANCH   4  10
HETATM   10  C   UNL     1      40.832  -9.416   2.573  1.00  0.00     0.156 C 
BRANCH  10  11
HETATM   11  N   UNL     1      40.449 -10.209   1.409  1.00  0.00    -0.355 N 
HETATM   12  C   UNL     1      41.226 -10.280   0.272  1.00  0.00     0.251 C 
HETATM   13  O   UNL     1      42.190  -9.538   0.102  1.00  0.00    -0.268 OA
HETATM   14  H   UNL     1      39.775 -10.957   1.556  1.00  0.00     0.162 HD
BRANCH  12  15
HETATM   15  C   UNL     1      40.828 -11.268  -0.758  1.00  0.00     0.034 A 
HETATM   16  C   UNL     1      40.070 -12.395  -0.418  1.00  0.00     0.056 A 
HETATM   17  C   UNL     1      39.699 -13.240  -1.443  1.00  0.00     0.106 A 
HETATM   18  C   UNL     1      40.055 -13.004  -2.749  1.00  0.00     0.105 A 
HETATM   19  O   UNL     1      38.948 -14.364  -1.305  1.00  0.00    -0.323 OA
HETATM   20  O   UNL     1      39.578 -13.954  -3.595  1.00  0.00    -0.323 OA
HETATM   21  C   UNL     1      40.800 -11.903  -3.112  1.00  0.00     0.041 A 
HETATM   22  C   UNL     1      38.862 -14.810  -2.679  1.00  0.00     0.352 A 
HETATM   23  C   UNL     1      41.186 -11.018  -2.100  1.00  0.00     0.020 A 
ENDBRANCH  12  15
ENDBRANCH  10  11
ENDBRANCH   4  10
BRANCH   1  24
HETATM   24  C   UNL     1      40.406 -13.985   3.174  1.00  0.00     0.241 C 
BRANCH  24  25
HETATM   25  N   UNL     1      41.563 -14.865   2.755  1.00  0.00    -0.074 N 
HETATM   26  C   UNL     1      41.380 -15.347   1.329  1.00  0.00     0.269 C 
HETATM   27  H   UNL     1      42.451 -14.318   2.737  1.00  0.00     0.279 HD
BRANCH  25  28
HETATM   28  C   UNL     1      41.875 -16.024   3.702  1.00  0.00     0.240 C 
BRANCH  28  29
HETATM   29  C   UNL     1      43.317 -16.532   3.560  1.00  0.00     0.087 C 
BRANCH  29  30
HETATM   30  C   UNL     1      43.440 -18.038   3.460  1.00  0.00     0.035 A 
HETATM   31  N   UNL     1      44.032 -18.702   4.498  1.00  0.00    -0.266 NA
HETATM   32  C   UNL     1      44.202 -20.044   4.338  1.00  0.00     0.117 A 
HETATM   33  C   UNL     1      43.813 -20.750   3.214  1.00  0.00     0.019 A 
HETATM   34  C   UNL     1      43.218 -20.049   2.173  1.00  0.00     0.003 A 
HETATM   35  C   UNL     1      43.034 -18.675   2.290  1.00  0.00     0.027 A 
ENDBRANCH  29  30
ENDBRANCH  28  29
ENDBRANCH  25  28
ENDBRANCH  24  25
ENDBRANCH   1  24
TORSDOF 8
ENDMDL
MODEL 6
REMARK VINA RESULT:      -7.9      3.835      7.854
REMARK  8 active torsions:
REMARK  status: ('A' for Active; 'I' for Inactive)
REMARK    1  A    between atoms: N_2  and  C_4 
REMARK    2  A    between atoms: N_2  and  C_27 
REMARK    3  A    between atoms: C_4  and  C_5 
REMARK    4  A    between atoms: C_8  and  C_9 
REMARK    5  A    between atoms: C_9  and  N_10 
REMARK       I    between atoms: N_10  and  C_11 
REMARK    6  A    between atoms: C_11  and  C_12 
REMARK    7  A    between atoms: C_27  and  C_28 
REMARK    8  A    between atoms: C_28  and  C_29 
ROOT
HETATM    1  C   UNL     1      39.494 -10.907   3.550  1.00  0.00     0.041 C 
HETATM    2  C   UNL     1      40.202 -10.504   4.880  1.00  0.00    -0.004 C 
HETATM    3  C   UNL     1      41.685 -10.959   4.854  1.00  0.00     0.040 C 
HETATM    4  C   UNL     1      41.772 -12.496   4.887  1.00  0.00     0.206 C 
HETATM    5  N   UNL     1      40.373 -13.003   4.543  1.00  0.00    -0.065 N 
HETATM    6  H   UNL     1      40.445 -14.023   4.346  1.00  0.00     0.280 HD
HETATM    7  C   UNL     1      39.802 -12.387   3.282  1.00  0.00     0.242 C 
HETATM    8  C   UNL     1      39.489 -11.268   6.026  1.00  0.00     0.032 C 
HETATM    9  C   UNL     1      39.452 -12.773   5.721  1.00  0.00     0.236 C 
ENDROOT
BRANCH   4  10
HETATM   10  C   UNL     1      42.880 -13.089   3.982  1.00  0.00     0.156 C 
BRANCH  10  11
HETATM   11  N   UNL     1      43.014 -14.539   4.070  1.00  0.00    -0.355 N 
HETATM   12  C   UNL     1      42.766 -15.373   3.001  1.00  0.00     0.251 C 
HETATM   13  O   UNL     1      42.242 -14.961   1.969  1.00  0.00    -0.268 OA
HETATM   14  H   UNL     1      43.595 -14.909   4.821  1.00  0.00     0.162 HD
BRANCH  12  15
HETATM   15  C   UNL     1      43.125 -16.802   3.161  1.00  0.00     0.034 A 
HETATM   16  C   UNL     1      43.521 -17.309   4.405  1.00  0.00     0.056 A 
HETATM   17  C   UNL     1      43.790 -18.659   4.480  1.00  0.00     0.106 A 
HETATM   18  C   UNL     1      43.685 -19.487   3.389  1.00  0.00     0.105 A 
HETATM   19  O   UNL     1      44.165 -19.326   5.603  1.00  0.00    -0.323 OA
HETATM   20  O   UNL     1      43.987 -20.777   3.687  1.00  0.00    -0.323 OA
HETATM   21  C   UNL     1      43.298 -19.016   2.153  1.00  0.00     0.041 A 
HETATM   22  C   UNL     1      44.277 -20.678   5.098  1.00  0.00     0.352 A 
HETATM   23  C   UNL     1      43.006 -17.652   2.041  1.00  0.00     0.020 A 
ENDBRANCH  12  15
ENDBRANCH  10  11
ENDBRANCH   4  10
BRANCH   1  24
HETATM   24  C   UNL     1      39.857  -9.973   2.377  1.00  0.00     0.241 C 
BRANCH  24  25
HETATM   25  N   UNL     1      40.052 -10.672   1.049  1.00  0.00    -0.074 N 
HETATM   26  C   UNL     1      41.487 -10.534   0.578  1.00  0.00     0.269 C 
HETATM   27  H   UNL     1      39.905 -11.700   1.151  1.00  0.00     0.279 HD
BRANCH  25  28
HETATM   28  C   UNL     1      39.062 -10.275  -0.046  1.00  0.00     0.240 C 
BRANCH  28  29
HETATM   29  C   UNL     1      37.912 -11.281  -0.197  1.00  0.00     0.087 C 
BRANCH  29  30
HETATM   30  C   UNL     1      38.272 -12.527  -0.977  1.00  0.00     0.035 A 
HETATM   31  N   UNL     1      39.321 -13.281  -0.531  1.00  0.00    -0.266 NA
HETATM   32  C   UNL     1      39.671 -14.347  -1.304  1.00  0.00     0.117 A 
HETATM   33  C   UNL     1      39.034 -14.698  -2.481  1.00  0.00     0.019 A 
HETATM   34  C   UNL     1      37.974 -13.911  -2.912  1.00  0.00     0.003 A 
HETATM   35  C   UNL     1      37.590 -12.807  -2.159  1.00  0.00     0.027 A 
ENDBRANCH  29  30
ENDBRANCH  28  29
ENDBRANCH  25  28
ENDBRANCH  24  25
ENDBRANCH   1  24
TORSDOF 8
ENDMDL
MODEL 7
REMARK VINA RESULT:      -7.9      3.175      7.507
REMARK  8 active torsions:
REMARK  status: ('A' for Active; 'I' for Inactive)
REMARK    1  A    between atoms: N_2  and  C_4 
REMARK    2  A    between atoms: N_2  and  C_27 
REMARK    3  A    between atoms: C_4  and  C_5 
REMARK    4  A    between atoms: C_8  and  C_9 
REMARK    5  A    between atoms: C_9  and  N_10 
REMARK       I    between atoms: N_10  and  C_11 
REMARK    6  A    between atoms: C_11  and  C_12 
REMARK    7  A    between atoms: C_27  and  C_28 
REMARK    8  A    between atoms: C_28  and  C_29 
ROOT
HETATM    1  C   UNL     1      42.836 -14.328   3.858  1.00  0.00     0.041 C 
HETATM    2  C   UNL     1      43.375 -15.351   2.812  1.00  0.00    -0.004 C 
HETATM    3  C   UNL     1      42.344 -15.537   1.668  1.00  0.00     0.040 C 
HETATM    4  C   UNL     1      41.081 -16.242   2.198  1.00  0.00     0.206 C 
HETATM    5  N   UNL     1      41.154 -16.145   3.720  1.00  0.00    -0.065 N 
HETATM    6  H   UNL     1      40.224 -16.416   4.100  1.00  0.00     0.280 HD
HETATM    7  C   UNL     1      41.402 -14.738   4.224  1.00  0.00     0.242 C 
HETATM    8  C   UNL     1      43.528 -16.711   3.541  1.00  0.00     0.032 C 
HETATM    9  C   UNL     1      42.212 -17.097   4.233  1.00  0.00     0.236 C 
ENDROOT
BRANCH   4  10
HETATM   10  C   UNL     1      39.756 -15.695   1.610  1.00  0.00     0.156 C 
BRANCH  10  11
HETATM   11  N   UNL     1      39.925 -14.560   0.709  1.00  0.00    -0.355 N 
HETATM   12  C   UNL     1      39.836 -13.253   1.138  1.00  0.00     0.251 C 
HETATM   13  O   UNL     1      39.429 -12.969   2.262  1.00  0.00    -0.268 OA
HETATM   14  H   UNL     1      40.421 -14.728  -0.165  1.00  0.00     0.162 HD
BRANCH  12  15
HETATM   15  C   UNL     1      40.219 -12.197   0.171  1.00  0.00     0.034 A 
HETATM   16  C   UNL     1      41.114 -11.182   0.533  1.00  0.00     0.056 A 
HETATM   17  C   UNL     1      41.457 -10.266  -0.439  1.00  0.00     0.106 A 
HETATM   18  C   UNL     1      40.947 -10.328  -1.714  1.00  0.00     0.105 A 
HETATM   19  O   UNL     1      42.322  -9.231  -0.276  1.00  0.00    -0.323 OA
HETATM   20  O   UNL     1      41.423  -9.336  -2.510  1.00  0.00    -0.323 OA
HETATM   21  C   UNL     1      40.065 -11.315  -2.097  1.00  0.00     0.041 A 
HETATM   22  C   UNL     1      42.308  -8.648  -1.601  1.00  0.00     0.352 A 
HETATM   23  C   UNL     1      39.703 -12.269  -1.140  1.00  0.00     0.020 A 
ENDBRANCH  12  15
ENDBRANCH  10  11
ENDBRANCH   4  10
BRANCH   1  24
HETATM   24  C   UNL     1      42.963 -12.866   3.380  1.00  0.00     0.241 C 
BRANCH  24  25
HETATM   25  N   UNL     1      42.955 -11.836   4.487  1.00  0.00    -0.074 N 
HETATM   26  C   UNL     1      42.307 -10.549   4.014  1.00  0.00     0.269 C 
HETATM   27  H   UNL     1      42.359 -12.156   5.281  1.00  0.00     0.279 HD
BRANCH  25  28
HETATM   28  C   UNL     1      44.312 -11.572   5.140  1.00  0.00     0.240 C 
BRANCH  28  29
HETATM   29  C   UNL     1      44.428 -12.202   6.536  1.00  0.00     0.087 C 
BRANCH  29  30
HETATM   30  C   UNL     1      44.845 -11.234   7.623  1.00  0.00     0.035 A 
HETATM   31  N   UNL     1      44.175 -11.281   8.814  1.00  0.00    -0.266 NA
HETATM   32  C   UNL     1      44.518 -10.340   9.738  1.00  0.00     0.117 A 
HETATM   33  C   UNL     1      45.485  -9.372   9.540  1.00  0.00     0.019 A 
HETATM   34  C   UNL     1      46.147  -9.345   8.320  1.00  0.00     0.003 A 
HETATM   35  C   UNL     1      45.821 -10.280   7.344  1.00  0.00     0.027 A 
ENDBRANCH  29  30
ENDBRANCH  28  29
ENDBRANCH  25  28
ENDBRANCH  24  25
ENDBRANCH   1  24
TORSDOF 8
ENDMDL
MODEL 8
REMARK VINA RESULT:      -7.9      4.272      9.992
REMARK  8 active torsions:
REMARK  status: ('A' for Active; 'I' for Inactive)
REMARK    1  A    between atoms: N_2  and  C_4 
REMARK    2  A    between atoms: N_2  and  C_27 
REMARK    3  A    between atoms: C_4  and  C_5 
REMARK    4  A    between atoms: C_8  and  C_9 
REMARK    5  A    between atoms: C_9  and  N_10 
REMARK       I    between atoms: N_10  and  C_11 
REMARK    6  A    between atoms: C_11  and  C_12 
REMARK    7  A    between atoms: C_27  and  C_28 
REMARK    8  A    between atoms: C_28  and  C_29 
ROOT
HETATM    1  C   UNL     1      43.276  -8.269   9.468  1.00  0.00     0.041 C 
HETATM    2  C   UNL     1      44.778  -8.685   9.520  1.00  0.00    -0.004 C 
HETATM    3  C   UNL     1      45.164  -9.453   8.230  1.00  0.00     0.040 C 
HETATM    4  C   UNL     1      44.447 -10.816   8.186  1.00  0.00     0.206 C 
HETATM    5  N   UNL     1      43.332 -10.737   9.227  1.00  0.00    -0.065 N 
HETATM    6  H   UNL     1      42.699 -11.549   9.076  1.00  0.00     0.280 HD
HETATM    7  C   UNL     1      42.457  -9.509   9.082  1.00  0.00     0.242 C 
HETATM    8  C   UNL     1      44.942  -9.654  10.719  1.00  0.00     0.032 C 
HETATM    9  C   UNL     1      43.935 -10.809  10.613  1.00  0.00     0.236 C 
ENDROOT
BRANCH   4  10
HETATM   10  C   UNL     1      43.945 -11.224   6.778  1.00  0.00     0.156 C 
BRANCH  10  11
HETATM   11  N   UNL     1      44.080 -12.646   6.484  1.00  0.00    -0.355 N 
HETATM   12  C   UNL     1      43.024 -13.418   6.049  1.00  0.00     0.251 C 
HETATM   13  O   UNL     1      41.870 -12.996   6.062  1.00  0.00    -0.268 OA
HETATM   14  H   UNL     1      45.018 -12.996   6.292  1.00  0.00     0.162 HD
BRANCH  12  15
HETATM   15  C   UNL     1      43.332 -14.796   5.599  1.00  0.00     0.034 A 
HETATM   16  C   UNL     1      42.984 -15.226   4.312  1.00  0.00     0.056 A 
HETATM   17  C   UNL     1      43.351 -16.506   3.954  1.00  0.00     0.106 A 
HETATM   18  C   UNL     1      44.025 -17.340   4.812  1.00  0.00     0.105 A 
HETATM   19  O   UNL     1      43.116 -17.084   2.746  1.00  0.00    -0.323 OA
HETATM   20  O   UNL     1      44.294 -18.549   4.255  1.00  0.00    -0.323 OA
HETATM   21  C   UNL     1      44.381 -16.943   6.083  1.00  0.00     0.041 A 
HETATM   22  C   UNL     1      43.730 -18.380   2.937  1.00  0.00     0.352 A 
HETATM   23  C   UNL     1      44.035 -15.646   6.478  1.00  0.00     0.020 A 
ENDBRANCH  12  15
ENDBRANCH  10  11
ENDBRANCH   4  10
BRANCH   1  24
HETATM   24  C   UNL     1      43.027  -7.050   8.556  1.00  0.00     0.241 C 
BRANCH  24  25
HETATM   25  N   UNL     1      42.086  -6.013   9.127  1.00  0.00    -0.074 N 
HETATM   26  C   UNL     1      41.480  -5.174   8.019  1.00  0.00     0.269 C 
HETATM   27  H   UNL     1      41.271  -6.473   9.587  1.00  0.00     0.279 HD
BRANCH  25  28
HETATM   28  C   UNL     1      42.676  -5.138  10.234  1.00  0.00     0.240 C 
BRANCH  28  29
HETATM   29  C   UNL     1      41.908  -5.263  11.558  1.00  0.00     0.087 C 
BRANCH  29  30
HETATM   30  C   UNL     1      41.852  -6.669  12.116  1.00  0.00     0.035 A 
HETATM   31  N   UNL     1      40.758  -7.433  11.820  1.00  0.00    -0.266 NA
HETATM   32  C   UNL     1      40.701  -8.660  12.408  1.00  0.00     0.117 A 
HETATM   33  C   UNL     1      41.668  -9.161  13.260  1.00  0.00     0.019 A 
HETATM   34  C   UNL     1      42.767  -8.362  13.547  1.00  0.00     0.003 A 
HETATM   35  C   UNL     1      42.861  -7.097  12.977  1.00  0.00     0.027 A 
ENDBRANCH  29  30
ENDBRANCH  28  29
ENDBRANCH  25  28
ENDBRANCH  24  25
ENDBRANCH   1  24
TORSDOF 8
ENDMDL
MODEL 9
REMARK VINA RESULT:      -7.8      3.376      7.838
REMARK  8 active torsions:
REMARK  status: ('A' for Active; 'I' for Inactive)
REMARK    1  A    between atoms: N_2  and  C_4 
REMARK    2  A    between atoms: N_2  and  C_27 
REMARK    3  A    between atoms: C_4  and  C_5 
REMARK    4  A    between atoms: C_8  and  C_9 
REMARK    5  A    between atoms: C_9  and  N_10 
REMARK       I    between atoms: N_10  and  C_11 
REMARK    6  A    between atoms: C_11  and  C_12 
REMARK    7  A    between atoms: C_27  and  C_28 
REMARK    8  A    between atoms: C_28  and  C_29 
ROOT
HETATM    1  C   UNL     1      43.508 -11.216   4.964  1.00  0.00     0.041 C 
HETATM    2  C   UNL     1      44.743 -11.972   5.543  1.00  0.00    -0.004 C 
HETATM    3  C   UNL     1      44.368 -13.445   5.855  1.00  0.00     0.040 C 
HETATM    4  C   UNL     1      43.367 -13.504   7.024  1.00  0.00     0.206 C 
HETATM    5  N   UNL     1      42.822 -12.086   7.183  1.00  0.00    -0.065 N 
HETATM    6  H   UNL     1      41.995 -12.133   7.812  1.00  0.00     0.280 HD
HETATM    7  C   UNL     1      42.312 -11.487   5.888  1.00  0.00     0.242 C 
HETATM    8  C   UNL     1      45.114 -11.281   6.881  1.00  0.00     0.032 C 
HETATM    9  C   UNL     1      43.887 -11.206   7.802  1.00  0.00     0.236 C 
ENDROOT
BRANCH   4  10
HETATM   10  C   UNL     1      42.258 -14.573   6.856  1.00  0.00     0.156 C 
BRANCH  10  11
HETATM   11  N   UNL     1      42.642 -15.708   6.023  1.00  0.00    -0.355 N 
HETATM   12  C   UNL     1      43.276 -16.821   6.532  1.00  0.00     0.251 C 
HETATM   13  O   UNL     1      43.718 -16.843   7.678  1.00  0.00    -0.268 OA
HETATM   14  H   UNL     1      42.160 -15.817   5.132  1.00  0.00     0.162 HD
BRANCH  12  15
HETATM   15  C   UNL     1      43.437 -17.982   5.625  1.00  0.00     0.034 A 
HETATM   16  C   UNL     1      43.372 -17.823   4.235  1.00  0.00     0.056 A 
HETATM   17  C   UNL     1      43.581 -18.944   3.461  1.00  0.00     0.106 A 
HETATM   18  C   UNL     1      43.836 -20.176   4.013  1.00  0.00     0.105 A 
HETATM   19  O   UNL     1      43.577 -18.975   2.102  1.00  0.00    -0.323 OA
HETATM   20  O   UNL     1      44.019 -21.138   3.071  1.00  0.00    -0.323 OA
HETATM   21  C   UNL     1      43.905 -20.362   5.377  1.00  0.00     0.041 A 
HETATM   22  C   UNL     1      43.869 -20.371   1.857  1.00  0.00     0.352 A 
HETATM   23  C   UNL     1      43.710 -19.244   6.195  1.00  0.00     0.020 A 
ENDBRANCH  12  15
ENDBRANCH  10  11
ENDBRANCH   4  10
BRANCH   1  24
HETATM   24  C   UNL     1      43.241 -11.559   3.483  1.00  0.00     0.241 C 
BRANCH  24  25
HETATM   25  N   UNL     1      42.239 -12.670   3.262  1.00  0.00    -0.074 N 
HETATM   26  C   UNL     1      42.926 -13.911   2.726  1.00  0.00     0.269 C 
HETATM   27  H   UNL     1      41.819 -12.971   4.169  1.00  0.00     0.279 HD
BRANCH  25  28
HETATM   28  C   UNL     1      41.024 -12.291   2.414  1.00  0.00     0.240 C 
BRANCH  28  29
HETATM   29  C   UNL     1      41.413 -11.793   1.014  1.00  0.00     0.087 C 
BRANCH  29  30
HETATM   30  C   UNL     1      40.844 -12.617  -0.121  1.00  0.00     0.035 A 
HETATM   31  N   UNL     1      40.854 -12.073  -1.375  1.00  0.00    -0.266 NA
HETATM   32  C   UNL     1      40.258 -12.806  -2.356  1.00  0.00     0.117 A 
HETATM   33  C   UNL     1      39.665 -14.039  -2.155  1.00  0.00     0.019 A 
HETATM   34  C   UNL     1      39.666 -14.566  -0.871  1.00  0.00     0.003 A 
HETATM   35  C   UNL     1      40.255 -13.847   0.164  1.00  0.00     0.027 A 
ENDBRANCH  29  30
ENDBRANCH  28  29
ENDBRANCH  25  28
ENDBRANCH  24  25
ENDBRANCH   1  24
TORSDOF 8
ENDMDL
MODEL 10
REMARK VINA RESULT:      -7.8      3.257      6.716
REMARK  8 active torsions:
REMARK  status: ('A' for Active; 'I' for Inactive)
REMARK    1  A    between atoms: N_2  and  C_4 
REMARK    2  A    between atoms: N_2  and  C_27 
REMARK    3  A    between atoms: C_4  and  C_5 
REMARK    4  A    between atoms: C_8  and  C_9 
REMARK    5  A    between atoms: C_9  and  N_10 
REMARK       I    between atoms: N_10  and  C_11 
REMARK    6  A    between atoms: C_11  and  C_12 
REMARK    7  A    between atoms: C_27  and  C_28 
REMARK    8  A    between atoms: C_28  and  C_29 
ROOT
HETATM    1  C   UNL     1      42.460 -13.338   3.550  1.00  0.00     0.041 C 
HETATM    2  C   UNL     1      41.549 -12.902   4.738  1.00  0.00    -0.004 C 
HETATM    3  C   UNL     1      40.716 -11.655   4.342  1.00  0.00     0.040 C 
HETATM    4  C   UNL     1      41.637 -10.433   4.167  1.00  0.00     0.206 C 
HETATM    5  N   UNL     1      43.056 -10.987   4.068  1.00  0.00    -0.065 N 
HETATM    6  H   UNL     1      43.675 -10.219   3.737  1.00  0.00     0.280 HD
HETATM    7  C   UNL     1      43.201 -12.094   3.042  1.00  0.00     0.242 C 
HETATM    8  C   UNL     1      42.486 -12.499   5.906  1.00  0.00     0.032 C 
HETATM    9  C   UNL     1      43.509 -11.455   5.434  1.00  0.00     0.236 C 
ENDROOT
BRANCH   4  10
HETATM   10  C   UNL     1      41.252  -9.513   2.981  1.00  0.00     0.156 C 
BRANCH  10  11
HETATM   11  N   UNL     1      40.442 -10.166   1.957  1.00  0.00    -0.355 N 
HETATM   12  C   UNL     1      40.934 -10.470   0.706  1.00  0.00     0.251 C 
HETATM   13  O   UNL     1      42.020 -10.046   0.319  1.00  0.00    -0.268 OA
HETATM   14  H   UNL     1      39.622 -10.682   2.270  1.00  0.00     0.162 HD
BRANCH  12  15
HETATM   15  C   UNL     1      40.080 -11.304  -0.172  1.00  0.00     0.034 A 
HETATM   16  C   UNL     1      40.647 -12.163  -1.122  1.00  0.00     0.056 A 
HETATM   17  C   UNL     1      39.784 -12.941  -1.865  1.00  0.00     0.106 A 
HETATM   18  C   UNL     1      38.421 -12.884  -1.698  1.00  0.00     0.105 A 
HETATM   19  O   UNL     1      40.154 -13.843  -2.812  1.00  0.00    -0.323 OA
HETATM   20  O   UNL     1      37.763 -13.738  -2.524  1.00  0.00    -0.323 OA
HETATM   21  C   UNL     1      37.836 -12.049  -0.772  1.00  0.00     0.041 A 
HETATM   22  C   UNL     1      38.865 -14.358  -3.221  1.00  0.00     0.352 A 
HETATM   23  C   UNL     1      38.681 -11.252   0.009  1.00  0.00     0.020 A 
ENDBRANCH  12  15
ENDBRANCH  10  11
ENDBRANCH   4  10
BRANCH   1  24
HETATM   24  C   UNL     1      41.682 -14.091   2.450  1.00  0.00     0.241 C 
BRANCH  24  25
HETATM   25  N   UNL     1      41.765 -15.599   2.535  1.00  0.00    -0.074 N 
HETATM   26  C   UNL     1      40.764 -16.133   3.541  1.00  0.00     0.269 C 
HETATM   27  H   UNL     1      41.486 -16.032   1.629  1.00  0.00     0.279 HD
BRANCH  25  28
HETATM   28  C   UNL     1      43.165 -16.160   2.786  1.00  0.00     0.240 C 
BRANCH  28  29
HETATM   29  C   UNL     1      43.378 -17.532   2.130  1.00  0.00     0.087 C 
BRANCH  29  30
HETATM   30  C   UNL     1      43.668 -18.651   3.107  1.00  0.00     0.035 A 
HETATM   31  N   UNL     1      43.677 -19.933   2.630  1.00  0.00    -0.266 NA
HETATM   32  C   UNL     1      43.857 -20.919   3.552  1.00  0.00     0.117 A 
HETATM   33  C   UNL     1      44.032 -20.697   4.906  1.00  0.00     0.019 A 
HETATM   34  C   UNL     1      44.014 -19.387   5.363  1.00  0.00     0.003 A 
HETATM   35  C   UNL     1      43.823 -18.348   4.458  1.00  0.00     0.027 A 
ENDBRANCH  29  30
ENDBRANCH  28  29
ENDBRANCH  25  28
ENDBRANCH  24  25
ENDBRANCH   1  24
TORSDOF 8
ENDMDL
