MODEL 1
REMARK VINA RESULT:      -8.5      0.000      0.000
REMARK  10 active torsions:
REMARK  status: ('A' for Active; 'I' for Inactive)
REMARK    1  A    between atoms: N_7  and  C_8 
REMARK    2  A    between atoms: C_8  and  C_9 
REMARK       I    between atoms: C_9  and  N_10 
REMARK    3  A    between atoms: N_10  and  C_11 
REMARK    4  A    between atoms: C_11  and  C_12 
REMARK    5  A    between atoms: C_12  and  C_13 
REMARK    6  A    between atoms: C_13  and  C_14 
REMARK       I    between atoms: C_14  and  N_15 
REMARK    7  A    between atoms: N_15  and  C_16 
REMARK    8  A    between atoms: C_16  and  C_17 
REMARK    9  A    between atoms: C_17  and  C_18 
REMARK   10  A    between atoms: C_18  and  N_19 
ROOT
HETATM    1  C   UNL     1      44.893 -11.428   5.582  1.00  0.00     0.123 C 
ENDROOT
BRANCH   1   2
HETATM    2  N   UNL     1      43.697 -12.174   5.253  1.00  0.00    -0.360 N 
HETATM    3  C   UNL     1      43.237 -12.271   3.953  1.00  0.00     0.235 C 
HETATM    4  O   UNL     1      43.798 -11.720   3.010  1.00  0.00    -0.272 OA
HETATM    5  H   UNL     1      43.157 -12.578   6.009  1.00  0.00     0.162 HD
BRANCH   3   6
HETATM    6  C   UNL     1      42.023 -13.183   3.786  1.00  0.00     0.235 C 
BRANCH   6   7
HETATM    7  N   UNL     1      42.448 -14.554   3.575  1.00  0.00    -0.299 N 
HETATM    8  C   UNL     1      42.637 -15.033   2.293  1.00  0.00     0.214 A 
HETATM    9  N   UNL     1      43.040 -16.223   1.988  1.00  0.00    -0.235 NA
HETATM   10  C   UNL     1      43.281 -17.023   3.056  1.00  0.00     0.115 A 
HETATM   11  C   UNL     1      43.092 -16.707   4.384  1.00  0.00     0.075 A 
HETATM   12  S   UNL     1      43.885 -18.599   2.864  1.00  0.00    -0.074 SA
HETATM   13  C   UNL     1      43.438 -17.788   5.273  1.00  0.00    -0.031 A 
HETATM   14  C   UNL     1      42.599 -15.373   4.691  1.00  0.00     0.262 A 
HETATM   15  C   UNL     1      43.317 -17.722   6.761  1.00  0.00     0.050 C 
HETATM   16  C   UNL     1      43.923 -18.873   4.555  1.00  0.00    -0.012 A 
HETATM   17  C   UNL     1      44.436 -20.182   5.063  1.00  0.00     0.057 C 
HETATM   18  O   UNL     1      42.340 -15.001   5.834  1.00  0.00    -0.267 OA
ENDBRANCH   6   7
ENDBRANCH   3   6
ENDBRANCH   1   2
BRANCH   1  19
HETATM   19  C   UNL     1      45.173 -11.416   7.083  1.00  0.00     0.029 C 
BRANCH  19  20
HETATM   20  C   UNL     1      46.164 -10.313   7.436  1.00  0.00     0.104 C 
BRANCH  20  21
HETATM   21  C   UNL     1      45.639  -9.408   8.527  1.00  0.00     0.217 C 
HETATM   22  N   UNL     1      45.261 -10.054   9.683  1.00  0.00    -0.361 N 
HETATM   23  H   UNL     1      45.235 -11.070   9.666  1.00  0.00     0.162 HD
HETATM   24  O   UNL     1      45.570  -8.189   8.398  1.00  0.00    -0.274 OA
BRANCH  22  25
HETATM   25  C   UNL     1      44.531  -9.381  10.738  1.00  0.00     0.124 C 
BRANCH  25  26
HETATM   26  C   UNL     1      43.424 -10.232  11.369  1.00  0.00     0.047 C 
BRANCH  26  27
HETATM   27  C   UNL     1      42.036  -9.620  11.190  1.00  0.00     0.236 C 
BRANCH  27  28
HETATM   28  N   UNL     1      41.719  -8.621  12.300  1.00  0.00    -0.070 N 
HETATM   29  H   UNL     1      42.275  -7.778  12.110  1.00  0.00     0.279 HD
HETATM   30  C   UNL     1      40.259  -8.228  12.337  1.00  0.00     0.239 C 
HETATM   31  C   UNL     1      40.032  -7.176  13.425  1.00  0.00     0.008 C 
HETATM   32  C   UNL     1      40.518  -7.678  14.789  1.00  0.00     0.011 C 
HETATM   33  C   UNL     1      38.553  -6.797  13.491  1.00  0.00     0.011 C 
HETATM   34  C   UNL     1      41.973  -8.162  14.755  1.00  0.00     0.008 C 
HETATM   35  C   UNL     1      42.180  -9.180  13.632  1.00  0.00     0.239 C 
HETATM   36  C   UNL     1      42.959  -6.995  14.664  1.00  0.00     0.011 C 
ENDBRANCH  27  28
ENDBRANCH  26  27
ENDBRANCH  25  26
ENDBRANCH  22  25
ENDBRANCH  20  21
ENDBRANCH  19  20
ENDBRANCH   1  19
TORSDOF 10
ENDMDL
MODEL 2
REMARK VINA RESULT:      -8.4      1.994      2.972
REMARK  10 active torsions:
REMARK  status: ('A' for Active; 'I' for Inactive)
REMARK    1  A    between atoms: N_7  and  C_8 
REMARK    2  A    between atoms: C_8  and  C_9 
REMARK       I    between atoms: C_9  and  N_10 
REMARK    3  A    between atoms: N_10  and  C_11 
REMARK    4  A    between atoms: C_11  and  C_12 
REMARK    5  A    between atoms: C_12  and  C_13 
REMARK    6  A    between atoms: C_13  and  C_14 
REMARK       I    between atoms: C_14  and  N_15 
REMARK    7  A    between atoms: N_15  and  C_16 
REMARK    8  A    between atoms: C_16  and  C_17 
REMARK    9  A    between atoms: C_17  and  C_18 
REMARK   10  A    between atoms: C_18  and  N_19 
ROOT
HETATM    1  C   UNL     1      46.092 -10.775   7.291  1.00  0.00     0.123 C 
ENDROOT
BRANCH   1   2
HETATM    2  N   UNL     1      44.826 -11.467   7.166  1.00  0.00    -0.360 N 
HETATM    3  C   UNL     1      44.250 -11.708   5.933  1.00  0.00     0.235 C 
HETATM    4  O   UNL     1      44.761 -11.336   4.879  1.00  0.00    -0.272 OA
HETATM    5  H   UNL     1      44.330 -11.721   8.012  1.00  0.00     0.162 HD
BRANCH   3   6
HETATM    6  C   UNL     1      42.971 -12.541   5.993  1.00  0.00     0.235 C 
BRANCH   6   7
HETATM    7  N   UNL     1      43.255 -13.925   5.666  1.00  0.00    -0.299 N 
HETATM    8  C   UNL     1      43.794 -14.768   6.619  1.00  0.00     0.214 A 
HETATM    9  N   UNL     1      44.060 -16.022   6.450  1.00  0.00    -0.235 NA
HETATM   10  C   UNL     1      43.766 -16.492   5.212  1.00  0.00     0.115 A 
HETATM   11  C   UNL     1      43.276 -15.769   4.148  1.00  0.00     0.075 A 
HETATM   12  S   UNL     1      43.977 -18.131   4.815  1.00  0.00    -0.074 SA
HETATM   13  C   UNL     1      43.079 -16.572   2.966  1.00  0.00    -0.031 A 
HETATM   14  C   UNL     1      43.025 -14.351   4.361  1.00  0.00     0.262 A 
HETATM   15  C   UNL     1      42.571 -16.039   1.665  1.00  0.00     0.050 C 
HETATM   16  C   UNL     1      43.396 -17.899   3.220  1.00  0.00    -0.012 A 
HETATM   17  C   UNL     1      43.302 -19.079   2.307  1.00  0.00     0.057 C 
HETATM   18  O   UNL     1      42.643 -13.597   3.467  1.00  0.00    -0.267 OA
ENDBRANCH   6   7
ENDBRANCH   3   6
ENDBRANCH   1   2
BRANCH   1  19
HETATM   19  C   UNL     1      46.019  -9.610   8.275  1.00  0.00     0.029 C 
BRANCH  19  20
HETATM   20  C   UNL     1      44.838  -9.780   9.223  1.00  0.00     0.104 C 
BRANCH  20  21
HETATM   21  C   UNL     1      43.620  -9.017   8.754  1.00  0.00     0.217 C 
HETATM   22  N   UNL     1      43.798  -7.656   8.641  1.00  0.00    -0.361 N 
HETATM   23  H   UNL     1      44.664  -7.264   9.003  1.00  0.00     0.162 HD
HETATM   24  O   UNL     1      42.559  -9.569   8.477  1.00  0.00    -0.274 OA
BRANCH  22  25
HETATM   25  C   UNL     1      42.690  -6.749   8.426  1.00  0.00     0.124 C 
BRANCH  25  26
HETATM   26  C   UNL     1      42.240  -6.004   9.688  1.00  0.00     0.047 C 
BRANCH  26  27
HETATM   27  C   UNL     1      41.191  -6.776  10.485  1.00  0.00     0.236 C 
BRANCH  27  28
HETATM   28  N   UNL     1      41.832  -7.602  11.597  1.00  0.00    -0.070 N 
HETATM   29  H   UNL     1      42.769  -7.866  11.270  1.00  0.00     0.279 HD
HETATM   30  C   UNL     1      41.978  -6.832  12.891  1.00  0.00     0.239 C 
HETATM   31  C   UNL     1      42.688  -7.699  13.933  1.00  0.00     0.008 C 
HETATM   32  C   UNL     1      41.950  -9.025  14.145  1.00  0.00     0.011 C 
HETATM   33  C   UNL     1      42.812  -6.939  15.254  1.00  0.00     0.011 C 
HETATM   34  C   UNL     1      41.715  -9.784  12.833  1.00  0.00     0.008 C 
HETATM   35  C   UNL     1      41.042  -8.882  11.797  1.00  0.00     0.239 C 
HETATM   36  C   UNL     1      43.005 -10.413  12.300  1.00  0.00     0.011 C 
ENDBRANCH  27  28
ENDBRANCH  26  27
ENDBRANCH  25  26
ENDBRANCH  22  25
ENDBRANCH  20  21
ENDBRANCH  19  20
ENDBRANCH   1  19
TORSDOF 10
ENDMDL
MODEL 3
REMARK VINA RESULT:      -8.3      1.788      2.823
REMARK  10 active torsions:
REMARK  status: ('A' for Active; 'I' for Inactive)
REMARK    1  A    between atoms: N_7  and  C_8 
REMARK    2  A    between atoms: C_8  and  C_9 
REMARK       I    between atoms: C_9  and  N_10 
REMARK    3  A    between atoms: N_10  and  C_11 
REMARK    4  A    between atoms: C_11  and  C_12 
REMARK    5  A    between atoms: C_12  and  C_13 
REMARK    6  A    between atoms: C_13  and  C_14 
REMARK       I    between atoms: C_14  and  N_15 
REMARK    7  A    between atoms: N_15  and  C_16 
REMARK    8  A    between atoms: C_16  and  C_17 
REMARK    9  A    between atoms: C_17  and  C_18 
REMARK   10  A    between atoms: C_18  and  N_19 
ROOT
HETATM    1  C   UNL     1      43.326 -11.512   5.427  1.00  0.00     0.123 C 
ENDROOT
BRANCH   1   2
HETATM    2  N   UNL     1      42.595 -12.718   5.754  1.00  0.00    -0.360 N 
HETATM    3  C   UNL     1      43.189 -13.765   6.434  1.00  0.00     0.235 C 
HETATM    4  O   UNL     1      44.367 -13.744   6.782  1.00  0.00    -0.272 OA
HETATM    5  H   UNL     1      41.644 -12.813   5.416  1.00  0.00     0.162 HD
BRANCH   3   6
HETATM    6  C   UNL     1      42.235 -14.906   6.780  1.00  0.00     0.235 C 
BRANCH   6   7
HETATM    7  N   UNL     1      42.720 -16.154   6.223  1.00  0.00    -0.299 N 
HETATM    8  C   UNL     1      43.151 -17.168   7.058  1.00  0.00     0.214 A 
HETATM    9  N   UNL     1      43.574 -18.328   6.675  1.00  0.00    -0.235 NA
HETATM   10  C   UNL     1      43.574 -18.507   5.331  1.00  0.00     0.115 A 
HETATM   11  C   UNL     1      43.224 -17.580   4.374  1.00  0.00     0.075 A 
HETATM   12  S   UNL     1      44.028 -19.990   4.635  1.00  0.00    -0.074 SA
HETATM   13  C   UNL     1      43.343 -18.089   3.030  1.00  0.00    -0.031 A 
HETATM   14  C   UNL     1      42.791 -16.271   4.837  1.00  0.00     0.262 A 
HETATM   15  C   UNL     1      43.041 -17.293   1.801  1.00  0.00     0.050 C 
HETATM   16  C   UNL     1      43.742 -19.419   3.046  1.00  0.00    -0.012 A 
HETATM   17  C   UNL     1      43.949 -20.351   1.896  1.00  0.00     0.057 C 
HETATM   18  O   UNL     1      42.510 -15.349   4.073  1.00  0.00    -0.267 OA
ENDBRANCH   6   7
ENDBRANCH   3   6
ENDBRANCH   1   2
BRANCH   1  19
HETATM   19  C   UNL     1      43.694 -10.704   6.669  1.00  0.00     0.029 C 
BRANCH  19  20
HETATM   20  C   UNL     1      45.206 -10.545   6.779  1.00  0.00     0.104 C 
BRANCH  20  21
HETATM   21  C   UNL     1      45.603  -9.737   7.992  1.00  0.00     0.217 C 
HETATM   22  N   UNL     1      45.462 -10.392   9.196  1.00  0.00    -0.361 N 
HETATM   23  H   UNL     1      44.987 -11.291   9.188  1.00  0.00     0.162 HD
HETATM   24  O   UNL     1      46.034  -8.590   7.911  1.00  0.00    -0.274 OA
BRANCH  22  25
HETATM   25  C   UNL     1      45.577  -9.705  10.466  1.00  0.00     0.124 C 
BRANCH  25  26
HETATM   26  C   UNL     1      44.233  -9.284  11.071  1.00  0.00     0.047 C 
BRANCH  26  27
HETATM   27  C   UNL     1      43.216 -10.423  11.092  1.00  0.00     0.236 C 
BRANCH  27  28
HETATM   28  N   UNL     1      42.080 -10.139  12.072  1.00  0.00    -0.070 N 
HETATM   29  H   UNL     1      41.854 -11.029  12.532  1.00  0.00     0.279 HD
HETATM   30  C   UNL     1      42.461  -9.136  13.138  1.00  0.00     0.239 C 
HETATM   31  C   UNL     1      41.302  -8.956  14.120  1.00  0.00     0.008 C 
HETATM   32  C   UNL     1      40.019  -8.544  13.390  1.00  0.00     0.011 C 
HETATM   33  C   UNL     1      41.667  -7.920  15.183  1.00  0.00     0.011 C 
HETATM   34  C   UNL     1      39.658  -9.502  12.247  1.00  0.00     0.008 C 
HETATM   35  C   UNL     1      40.848  -9.696  11.306  1.00  0.00     0.239 C 
HETATM   36  C   UNL     1      39.113 -10.834  12.771  1.00  0.00     0.011 C 
ENDBRANCH  27  28
ENDBRANCH  26  27
ENDBRANCH  25  26
ENDBRANCH  22  25
ENDBRANCH  20  21
ENDBRANCH  19  20
ENDBRANCH   1  19
TORSDOF 10
ENDMDL
MODEL 4
REMARK VINA RESULT:      -8.1      1.820      2.183
REMARK  10 active torsions:
REMARK  status: ('A' for Active; 'I' for Inactive)
REMARK    1  A    between atoms: N_7  and  C_8 
REMARK    2  A    between atoms: C_8  and  C_9 
REMARK       I    between atoms: C_9  and  N_10 
REMARK    3  A    between atoms: N_10  and  C_11 
REMARK    4  A    between atoms: C_11  and  C_12 
REMARK    5  A    between atoms: C_12  and  C_13 
REMARK    6  A    between atoms: C_13  and  C_14 
REMARK       I    between atoms: C_14  and  N_15 
REMARK    7  A    between atoms: N_15  and  C_16 
REMARK    8  A    between atoms: C_16  and  C_17 
REMARK    9  A    between atoms: C_17  and  C_18 
REMARK   10  A    between atoms: C_18  and  N_19 
ROOT
HETATM    1  C   UNL     1      45.407 -11.129   6.213  1.00  0.00     0.123 C 
ENDROOT
BRANCH   1   2
HETATM    2  N   UNL     1      44.225 -11.923   6.469  1.00  0.00    -0.360 N 
HETATM    3  C   UNL     1      42.981 -11.544   6.000  1.00  0.00     0.235 C 
HETATM    4  O   UNL     1      42.801 -10.510   5.362  1.00  0.00    -0.272 OA
HETATM    5  H   UNL     1      44.312 -12.742   7.059  1.00  0.00     0.162 HD
BRANCH   3   6
HETATM    6  C   UNL     1      41.873 -12.558   6.278  1.00  0.00     0.235 C 
BRANCH   6   7
HETATM    7  N   UNL     1      41.892 -13.612   5.282  1.00  0.00    -0.299 N 
HETATM    8  C   UNL     1      41.171 -13.475   4.111  1.00  0.00     0.214 A 
HETATM    9  N   UNL     1      41.138 -14.332   3.144  1.00  0.00    -0.235 NA
HETATM   10  C   UNL     1      41.892 -15.440   3.354  1.00  0.00     0.115 A 
HETATM   11  C   UNL     1      42.621 -15.741   4.483  1.00  0.00     0.075 A 
HETATM   12  S   UNL     1      42.035 -16.651   2.170  1.00  0.00    -0.074 SA
HETATM   13  C   UNL     1      43.307 -17.006   4.387  1.00  0.00    -0.031 A 
HETATM   14  C   UNL     1      42.605 -14.773   5.569  1.00  0.00     0.262 A 
HETATM   15  C   UNL     1      44.157 -17.584   5.473  1.00  0.00     0.050 C 
HETATM   16  C   UNL     1      43.092 -17.585   3.144  1.00  0.00    -0.012 A 
HETATM   17  C   UNL     1      43.637 -18.863   2.595  1.00  0.00     0.057 C 
HETATM   18  O   UNL     1      43.171 -14.963   6.644  1.00  0.00    -0.267 OA
ENDBRANCH   6   7
ENDBRANCH   3   6
ENDBRANCH   1   2
BRANCH   1  19
HETATM   19  C   UNL     1      46.202 -10.849   7.485  1.00  0.00     0.029 C 
BRANCH  19  20
HETATM   20  C   UNL     1      45.279 -10.377   8.603  1.00  0.00     0.104 C 
BRANCH  20  21
HETATM   21  C   UNL     1      44.747  -8.985   8.349  1.00  0.00     0.217 C 
HETATM   22  N   UNL     1      43.379  -8.905   8.211  1.00  0.00    -0.361 N 
HETATM   23  H   UNL     1      42.861  -9.778   8.154  1.00  0.00     0.162 HD
HETATM   24  O   UNL     1      45.476  -7.999   8.287  1.00  0.00    -0.274 OA
BRANCH  22  25
HETATM   25  C   UNL     1      42.721  -7.703   7.742  1.00  0.00     0.124 C 
BRANCH  25  26
HETATM   26  C   UNL     1      41.822  -7.036   8.789  1.00  0.00     0.047 C 
BRANCH  26  27
HETATM   27  C   UNL     1      42.618  -6.291   9.859  1.00  0.00     0.236 C 
BRANCH  27  28
HETATM   28  N   UNL     1      42.208  -6.725  11.263  1.00  0.00    -0.070 N 
HETATM   29  H   UNL     1      42.384  -5.927  11.885  1.00  0.00     0.279 HD
HETATM   30  C   UNL     1      40.743  -7.089  11.362  1.00  0.00     0.239 C 
HETATM   31  C   UNL     1      40.392  -7.444  12.808  1.00  0.00     0.008 C 
HETATM   32  C   UNL     1      41.290  -8.569  13.334  1.00  0.00     0.011 C 
HETATM   33  C   UNL     1      38.920  -7.844  12.910  1.00  0.00     0.011 C 
HETATM   34  C   UNL     1      42.783  -8.258  13.167  1.00  0.00     0.008 C 
HETATM   35  C   UNL     1      43.097  -7.865  11.722  1.00  0.00     0.239 C 
HETATM   36  C   UNL     1      43.260  -7.202  14.168  1.00  0.00     0.011 C 
ENDBRANCH  27  28
ENDBRANCH  26  27
ENDBRANCH  25  26
ENDBRANCH  22  25
ENDBRANCH  20  21
ENDBRANCH  19  20
ENDBRANCH   1  19
TORSDOF 10
ENDMDL
MODEL 5
REMARK VINA RESULT:      -8.1      3.342      5.289
REMARK  10 active torsions:
REMARK  status: ('A' for Active; 'I' for Inactive)
REMARK    1  A    between atoms: N_7  and  C_8 
REMARK    2  A    between atoms: C_8  and  C_9 
REMARK       I    between atoms: C_9  and  N_10 
REMARK    3  A    between atoms: N_10  and  C_11 
REMARK    4  A    between atoms: C_11  and  C_12 
REMARK    5  A    between atoms: C_12  and  C_13 
REMARK    6  A    between atoms: C_13  and  C_14 
REMARK       I    between atoms: C_14  and  N_15 
REMARK    7  A    between atoms: N_15  and  C_16 
REMARK    8  A    between atoms: C_16  and  C_17 
REMARK    9  A    between atoms: C_17  and  C_18 
REMARK   10  A    between atoms: C_18  and  N_19 
ROOT
HETATM    1  C   UNL     1      39.665 -11.300   2.704  1.00  0.00     0.123 C 
ENDROOT
BRANCH   1   2
HETATM    2  N   UNL     1      40.957 -11.942   2.593  1.00  0.00    -0.360 N 
HETATM    3  C   UNL     1      41.075 -13.300   2.359  1.00  0.00     0.235 C 
HETATM    4  O   UNL     1      40.100 -14.040   2.253  1.00  0.00    -0.272 OA
HETATM    5  H   UNL     1      41.789 -11.386   2.753  1.00  0.00     0.162 HD
BRANCH   3   6
HETATM    6  C   UNL     1      42.512 -13.779   2.168  1.00  0.00     0.235 C 
BRANCH   6   7
HETATM    7  N   UNL     1      42.841 -14.791   3.153  1.00  0.00    -0.299 N 
HETATM    8  C   UNL     1      42.876 -14.469   4.496  1.00  0.00     0.214 A 
HETATM    9  N   UNL     1      43.127 -15.292   5.461  1.00  0.00    -0.235 NA
HETATM   10  C   UNL     1      43.370 -16.564   5.059  1.00  0.00     0.115 A 
HETATM   11  C   UNL     1      43.420 -17.027   3.763  1.00  0.00     0.075 A 
HETATM   12  S   UNL     1      43.650 -17.809   6.182  1.00  0.00    -0.074 SA
HETATM   13  C   UNL     1      43.711 -18.437   3.680  1.00  0.00    -0.031 A 
HETATM   14  C   UNL     1      43.173 -16.065   2.699  1.00  0.00     0.262 A 
HETATM   15  C   UNL     1      43.837 -19.194   2.397  1.00  0.00     0.050 C 
HETATM   16  C   UNL     1      43.822 -18.987   4.950  1.00  0.00    -0.012 A 
HETATM   17  C   UNL     1      44.071 -20.408   5.340  1.00  0.00     0.057 C 
HETATM   18  O   UNL     1      43.249 -16.352   1.506  1.00  0.00    -0.267 OA
ENDBRANCH   6   7
ENDBRANCH   3   6
ENDBRANCH   1   2
BRANCH   1  19
HETATM   19  C   UNL     1      39.088 -11.401   4.114  1.00  0.00     0.029 C 
BRANCH  19  20
HETATM   20  C   UNL     1      39.035 -10.028   4.774  1.00  0.00     0.104 C 
BRANCH  20  21
HETATM   21  C   UNL     1      38.876 -10.127   6.274  1.00  0.00     0.217 C 
HETATM   22  N   UNL     1      39.384  -9.060   6.982  1.00  0.00    -0.361 N 
HETATM   23  H   UNL     1      39.933  -8.375   6.469  1.00  0.00     0.162 HD
HETATM   24  O   UNL     1      38.321 -11.077   6.819  1.00  0.00    -0.274 OA
BRANCH  22  25
HETATM   25  C   UNL     1      39.523  -9.087   8.423  1.00  0.00     0.124 C 
BRANCH  25  26
HETATM   26  C   UNL     1      40.815  -8.444   8.937  1.00  0.00     0.047 C 
BRANCH  26  27
HETATM   27  C   UNL     1      41.908  -8.387   7.872  1.00  0.00     0.236 C 
BRANCH  27  28
HETATM   28  N   UNL     1      43.103  -9.259   8.251  1.00  0.00    -0.070 N 
HETATM   29  H   UNL     1      42.856  -9.738   9.126  1.00  0.00     0.279 HD
HETATM   30  C   UNL     1      43.420 -10.307   7.208  1.00  0.00     0.239 C 
HETATM   31  C   UNL     1      44.580 -11.183   7.688  1.00  0.00     0.008 C 
HETATM   32  C   UNL     1      45.809 -10.334   8.029  1.00  0.00     0.011 C 
HETATM   33  C   UNL     1      44.928 -12.225   6.626  1.00  0.00     0.011 C 
HETATM   34  C   UNL     1      45.492  -9.209   9.022  1.00  0.00     0.008 C 
HETATM   35  C   UNL     1      44.303  -8.376   8.538  1.00  0.00     0.239 C 
HETATM   36  C   UNL     1      45.280  -9.745  10.441  1.00  0.00     0.011 C 
ENDBRANCH  27  28
ENDBRANCH  26  27
ENDBRANCH  25  26
ENDBRANCH  22  25
ENDBRANCH  20  21
ENDBRANCH  19  20
ENDBRANCH   1  19
TORSDOF 10
ENDMDL
MODEL 6
REMARK VINA RESULT:      -8.1      2.289      3.227
REMARK  10 active torsions:
REMARK  status: ('A' for Active; 'I' for Inactive)
REMARK    1  A    between atoms: N_7  and  C_8 
REMARK    2  A    between atoms: C_8  and  C_9 
REMARK       I    between atoms: C_9  and  N_10 
REMARK    3  A    between atoms: N_10  and  C_11 
REMARK    4  A    between atoms: C_11  and  C_12 
REMARK    5  A    between atoms: C_12  and  C_13 
REMARK    6  A    between atoms: C_13  and  C_14 
REMARK       I    between atoms: C_14  and  N_15 
REMARK    7  A    between atoms: N_15  and  C_16 
REMARK    8  A    between atoms: C_16  and  C_17 
REMARK    9  A    between atoms: C_17  and  C_18 
REMARK   10  A    between atoms: C_18  and  N_19 
ROOT
HETATM    1  C   UNL     1      40.604  -9.895   5.975  1.00  0.00     0.123 C 
ENDROOT
BRANCH   1   2
HETATM    2  N   UNL     1      40.574 -11.096   5.168  1.00  0.00    -0.360 N 
HETATM    3  C   UNL     1      39.642 -12.093   5.384  1.00  0.00     0.235 C 
HETATM    4  O   UNL     1      38.802 -12.031   6.278  1.00  0.00    -0.272 OA
HETATM    5  H   UNL     1      41.298 -11.227   4.471  1.00  0.00     0.162 HD
BRANCH   3   6
HETATM    6  C   UNL     1      39.699 -13.234   4.369  1.00  0.00     0.235 C 
BRANCH   6   7
HETATM    7  N   UNL     1      40.612 -14.266   4.823  1.00  0.00    -0.299 N 
HETATM    8  C   UNL     1      40.771 -14.508   6.174  1.00  0.00     0.214 A 
HETATM    9  N   UNL     1      41.531 -15.418   6.690  1.00  0.00    -0.235 NA
HETATM   10  C   UNL     1      42.204 -16.165   5.780  1.00  0.00     0.115 A 
HETATM   11  C   UNL     1      42.188 -16.012   4.411  1.00  0.00     0.075 A 
HETATM   12  S   UNL     1      43.199 -17.458   6.258  1.00  0.00    -0.074 SA
HETATM   13  C   UNL     1      43.024 -16.970   3.729  1.00  0.00    -0.031 A 
HETATM   14  C   UNL     1      41.354 -14.953   3.866  1.00  0.00     0.262 A 
HETATM   15  C   UNL     1      43.203 -17.022   2.246  1.00  0.00     0.050 C 
HETATM   16  C   UNL     1      43.605 -17.844   4.639  1.00  0.00    -0.012 A 
HETATM   17  C   UNL     1      44.502 -19.011   4.378  1.00  0.00     0.057 C 
HETATM   18  O   UNL     1      41.306 -14.688   2.665  1.00  0.00    -0.267 OA
ENDBRANCH   6   7
ENDBRANCH   3   6
ENDBRANCH   1   2
BRANCH   1  19
HETATM   19  C   UNL     1      41.763  -9.894   6.968  1.00  0.00     0.029 C 
BRANCH  19  20
HETATM   20  C   UNL     1      42.877 -10.821   6.496  1.00  0.00     0.104 C 
BRANCH  20  21
HETATM   21  C   UNL     1      44.016 -10.888   7.487  1.00  0.00     0.217 C 
HETATM   22  N   UNL     1      44.136  -9.788   8.306  1.00  0.00    -0.361 N 
HETATM   23  H   UNL     1      43.554  -8.980   8.096  1.00  0.00     0.162 HD
HETATM   24  O   UNL     1      44.767 -11.856   7.568  1.00  0.00    -0.274 OA
BRANCH  22  25
HETATM   25  C   UNL     1      45.293  -9.579   9.152  1.00  0.00     0.124 C 
BRANCH  25  26
HETATM   26  C   UNL     1      44.990  -9.657  10.653  1.00  0.00     0.047 C 
BRANCH  26  27
HETATM   27  C   UNL     1      43.842 -10.612  10.972  1.00  0.00     0.236 C 
BRANCH  27  28
HETATM   28  N   UNL     1      42.848  -9.984  11.945  1.00  0.00    -0.070 N 
HETATM   29  H   UNL     1      42.658 -10.685  12.671  1.00  0.00     0.279 HD
HETATM   30  C   UNL     1      43.388  -8.741  12.616  1.00  0.00     0.239 C 
HETATM   31  C   UNL     1      42.368  -8.210  13.625  1.00  0.00     0.008 C 
HETATM   32  C   UNL     1      41.014  -7.948  12.956  1.00  0.00     0.011 C 
HETATM   33  C   UNL     1      42.893  -6.935  14.285  1.00  0.00     0.011 C 
HETATM   34  C   UNL     1      40.486  -9.172  12.197  1.00  0.00     0.008 C 
HETATM   35  C   UNL     1      41.541  -9.706  11.227  1.00  0.00     0.239 C 
HETATM   36  C   UNL     1      39.976 -10.257  13.149  1.00  0.00     0.011 C 
ENDBRANCH  27  28
ENDBRANCH  26  27
ENDBRANCH  25  26
ENDBRANCH  22  25
ENDBRANCH  20  21
ENDBRANCH  19  20
ENDBRANCH   1  19
TORSDOF 10
ENDMDL
MODEL 7
REMARK VINA RESULT:      -8.0      3.227     11.190
REMARK  10 active torsions:
REMARK  status: ('A' for Active; 'I' for Inactive)
REMARK    1  A    between atoms: N_7  and  C_8 
REMARK    2  A    between atoms: C_8  and  C_9 
REMARK       I    between atoms: C_9  and  N_10 
REMARK    3  A    between atoms: N_10  and  C_11 
REMARK    4  A    between atoms: C_11  and  C_12 
REMARK    5  A    between atoms: C_12  and  C_13 
REMARK    6  A    between atoms: C_13  and  C_14 
REMARK       I    between atoms: C_14  and  N_15 
REMARK    7  A    between atoms: N_15  and  C_16 
REMARK    8  A    between atoms: C_16  and  C_17 
REMARK    9  A    between atoms: C_17  and  C_18 
REMARK   10  A    between atoms: C_18  and  N_19 
ROOT
HETATM    1  C   UNL     1      45.989 -10.102   7.829  1.00  0.00     0.123 C 
ENDROOT
BRANCH   1   2
HETATM    2  N   UNL     1      44.634  -9.762   8.211  1.00  0.00    -0.360 N 
HETATM    3  C   UNL     1      44.261  -8.459   8.478  1.00  0.00     0.235 C 
HETATM    4  O   UNL     1      45.051  -7.520   8.428  1.00  0.00    -0.272 OA
HETATM    5  H   UNL     1      43.968 -10.514   8.343  1.00  0.00     0.162 HD
BRANCH   3   6
HETATM    6  C   UNL     1      42.770  -8.282   8.762  1.00  0.00     0.235 C 
BRANCH   6   7
HETATM    7  N   UNL     1      42.514  -8.374  10.187  1.00  0.00    -0.299 N 
HETATM    8  C   UNL     1      42.284  -9.605  10.773  1.00  0.00     0.214 A 
HETATM    9  N   UNL     1      42.075  -9.810  12.032  1.00  0.00    -0.235 NA
HETATM   10  C   UNL     1      42.093  -8.687  12.791  1.00  0.00     0.115 A 
HETATM   11  C   UNL     1      42.258  -7.392  12.349  1.00  0.00     0.075 A 
HETATM   12  S   UNL     1      41.908  -8.756  14.479  1.00  0.00    -0.074 SA
HETATM   13  C   UNL     1      42.219  -6.424  13.417  1.00  0.00    -0.031 A 
HETATM   14  C   UNL     1      42.451  -7.193  10.921  1.00  0.00     0.262 A 
HETATM   15  C   UNL     1      42.357  -4.949  13.219  1.00  0.00     0.050 C 
HETATM   16  C   UNL     1      42.068  -7.058  14.644  1.00  0.00    -0.012 A 
HETATM   17  C   UNL     1      42.021  -6.458  16.012  1.00  0.00     0.057 C 
HETATM   18  O   UNL     1      42.551  -6.080  10.407  1.00  0.00    -0.267 OA
ENDBRANCH   6   7
ENDBRANCH   3   6
ENDBRANCH   1   2
BRANCH   1  19
HETATM   19  C   UNL     1      46.039 -11.275   6.854  1.00  0.00     0.029 C 
BRANCH  19  20
HETATM   20  C   UNL     1      44.824 -11.262   5.934  1.00  0.00     0.104 C 
BRANCH  20  21
HETATM   21  C   UNL     1      43.733 -12.188   6.422  1.00  0.00     0.217 C 
HETATM   22  N   UNL     1      42.644 -12.291   5.586  1.00  0.00    -0.361 N 
HETATM   23  H   UNL     1      42.595 -11.651   4.796  1.00  0.00     0.162 HD
HETATM   24  O   UNL     1      43.818 -12.813   7.475  1.00  0.00    -0.274 OA
BRANCH  22  25
HETATM   25  C   UNL     1      41.418 -12.946   5.993  1.00  0.00     0.124 C 
BRANCH  25  26
HETATM   26  C   UNL     1      41.143 -14.264   5.262  1.00  0.00     0.047 C 
BRANCH  26  27
HETATM   27  C   UNL     1      42.035 -15.404   5.748  1.00  0.00     0.236 C 
BRANCH  27  28
HETATM   28  N   UNL     1      42.688 -16.139   4.580  1.00  0.00    -0.070 N 
HETATM   29  H   UNL     1      43.502 -15.581   4.295  1.00  0.00     0.279 HD
HETATM   30  C   UNL     1      43.168 -17.524   4.952  1.00  0.00     0.239 C 
HETATM   31  C   UNL     1      43.871 -18.169   3.756  1.00  0.00     0.008 C 
HETATM   32  C   UNL     1      42.955 -18.199   2.527  1.00  0.00     0.011 C 
HETATM   33  C   UNL     1      44.332 -19.582   4.114  1.00  0.00     0.011 C 
HETATM   34  C   UNL     1      42.388 -16.817   2.181  1.00  0.00     0.008 C 
HETATM   35  C   UNL     1      41.729 -16.179   3.406  1.00  0.00     0.239 C 
HETATM   36  C   UNL     1      43.448 -15.905   1.557  1.00  0.00     0.011 C 
ENDBRANCH  27  28
ENDBRANCH  26  27
ENDBRANCH  25  26
ENDBRANCH  22  25
ENDBRANCH  20  21
ENDBRANCH  19  20
ENDBRANCH   1  19
TORSDOF 10
ENDMDL
MODEL 8
REMARK VINA RESULT:      -7.8      3.788     11.463
REMARK  10 active torsions:
REMARK  status: ('A' for Active; 'I' for Inactive)
REMARK    1  A    between atoms: N_7  and  C_8 
REMARK    2  A    between atoms: C_8  and  C_9 
REMARK       I    between atoms: C_9  and  N_10 
REMARK    3  A    between atoms: N_10  and  C_11 
REMARK    4  A    between atoms: C_11  and  C_12 
REMARK    5  A    between atoms: C_12  and  C_13 
REMARK    6  A    between atoms: C_13  and  C_14 
REMARK       I    between atoms: C_14  and  N_15 
REMARK    7  A    between atoms: N_15  and  C_16 
REMARK    8  A    between atoms: C_16  and  C_17 
REMARK    9  A    between atoms: C_17  and  C_18 
REMARK   10  A    between atoms: C_18  and  N_19 
ROOT
HETATM    1  C   UNL     1      41.850 -10.398   5.906  1.00  0.00     0.123 C 
ENDROOT
BRANCH   1   2
HETATM    2  N   UNL     1      42.834  -9.885   6.836  1.00  0.00    -0.360 N 
HETATM    3  C   UNL     1      42.487  -9.492   8.115  1.00  0.00     0.235 C 
HETATM    4  O   UNL     1      41.332  -9.533   8.530  1.00  0.00    -0.272 OA
HETATM    5  H   UNL     1      43.786  -9.758   6.511  1.00  0.00     0.162 HD
BRANCH   3   6
HETATM    6  C   UNL     1      43.673  -9.078   8.985  1.00  0.00     0.235 C 
BRANCH   6   7
HETATM    7  N   UNL     1      43.277  -8.037   9.914  1.00  0.00    -0.299 N 
HETATM    8  C   UNL     1      43.188  -6.725   9.490  1.00  0.00     0.214 A 
HETATM    9  N   UNL     1      42.818  -5.722  10.219  1.00  0.00    -0.235 NA
HETATM   10  C   UNL     1      42.508  -6.048  11.498  1.00  0.00     0.115 A 
HETATM   11  C   UNL     1      42.596  -7.294  12.079  1.00  0.00     0.075 A 
HETATM   12  S   UNL     1      41.933  -4.882  12.594  1.00  0.00    -0.074 SA
HETATM   13  C   UNL     1      42.196  -7.297  13.464  1.00  0.00    -0.031 A 
HETATM   14  C   UNL     1      43.053  -8.392  11.241  1.00  0.00     0.262 A 
HETATM   15  C   UNL     1      42.207  -8.510  14.338  1.00  0.00     0.050 C 
HETATM   16  C   UNL     1      41.774  -6.033  13.853  1.00  0.00    -0.012 A 
HETATM   17  C   UNL     1      41.238  -5.586  15.175  1.00  0.00     0.057 C 
HETATM   18  O   UNL     1      43.224  -9.533  11.667  1.00  0.00    -0.267 OA
ENDBRANCH   6   7
ENDBRANCH   3   6
ENDBRANCH   1   2
BRANCH   1  19
HETATM   19  C   UNL     1      42.437 -11.443   4.961  1.00  0.00     0.029 C 
BRANCH  19  20
HETATM   20  C   UNL     1      43.347 -12.403   5.719  1.00  0.00     0.104 C 
BRANCH  20  21
HETATM   21  C   UNL     1      42.573 -13.542   6.344  1.00  0.00     0.217 C 
HETATM   22  N   UNL     1      43.281 -14.288   7.261  1.00  0.00    -0.361 N 
HETATM   23  H   UNL     1      44.279 -14.108   7.342  1.00  0.00     0.162 HD
HETATM   24  O   UNL     1      41.400 -13.774   6.069  1.00  0.00    -0.274 OA
BRANCH  22  25
HETATM   25  C   UNL     1      42.780 -15.542   7.785  1.00  0.00     0.124 C 
BRANCH  25  26
HETATM   26  C   UNL     1      42.824 -16.699   6.782  1.00  0.00     0.047 C 
BRANCH  26  27
HETATM   27  C   UNL     1      44.150 -16.775   6.029  1.00  0.00     0.236 C 
BRANCH  27  28
HETATM   28  N   UNL     1      43.935 -17.088   4.550  1.00  0.00    -0.070 N 
HETATM   29  H   UNL     1      44.713 -16.654   4.038  1.00  0.00     0.279 HD
HETATM   30  C   UNL     1      43.942 -18.572   4.257  1.00  0.00     0.239 C 
HETATM   31  C   UNL     1      43.792 -18.804   2.752  1.00  0.00     0.008 C 
HETATM   32  C   UNL     1      42.528 -18.127   2.211  1.00  0.00     0.011 C 
HETATM   33  C   UNL     1      43.766 -20.303   2.450  1.00  0.00     0.011 C 
HETATM   34  C   UNL     1      42.459 -16.637   2.570  1.00  0.00     0.008 C 
HETATM   35  C   UNL     1      42.653 -16.432   4.074  1.00  0.00     0.239 C 
HETATM   36  C   UNL     1      43.442 -15.805   1.742  1.00  0.00     0.011 C 
ENDBRANCH  27  28
ENDBRANCH  26  27
ENDBRANCH  25  26
ENDBRANCH  22  25
ENDBRANCH  20  21
ENDBRANCH  19  20
ENDBRANCH   1  19
TORSDOF 10
ENDMDL
MODEL 9
REMARK VINA RESULT:      -7.7      3.359     10.377
REMARK  10 active torsions:
REMARK  status: ('A' for Active; 'I' for Inactive)
REMARK    1  A    between atoms: N_7  and  C_8 
REMARK    2  A    between atoms: C_8  and  C_9 
REMARK       I    between atoms: C_9  and  N_10 
REMARK    3  A    between atoms: N_10  and  C_11 
REMARK    4  A    between atoms: C_11  and  C_12 
REMARK    5  A    between atoms: C_12  and  C_13 
REMARK    6  A    between atoms: C_13  and  C_14 
REMARK       I    between atoms: C_14  and  N_15 
REMARK    7  A    between atoms: N_15  and  C_16 
REMARK    8  A    between atoms: C_16  and  C_17 
REMARK    9  A    between atoms: C_17  and  C_18 
REMARK   10  A    between atoms: C_18  and  N_19 
ROOT
HETATM    1  C   UNL     1      43.320 -12.274   6.199  1.00  0.00     0.123 C 
ENDROOT
BRANCH   1   2
HETATM    2  N   UNL     1      44.040 -11.814   7.367  1.00  0.00    -0.360 N 
HETATM    3  C   UNL     1      45.278 -11.207   7.264  1.00  0.00     0.235 C 
HETATM    4  O   UNL     1      45.845 -11.040   6.187  1.00  0.00    -0.272 OA
HETATM    5  H   UNL     1      43.647 -12.003   8.282  1.00  0.00     0.162 HD
BRANCH   3   6
HETATM    6  C   UNL     1      45.836 -10.696   8.590  1.00  0.00     0.235 C 
BRANCH   6   7
HETATM    7  N   UNL     1      45.016  -9.612   9.098  1.00  0.00    -0.299 N 
HETATM    8  C   UNL     1      44.901  -8.435   8.384  1.00  0.00     0.214 A 
HETATM    9  N   UNL     1      44.178  -7.417   8.722  1.00  0.00    -0.235 NA
HETATM   10  C   UNL     1      43.501  -7.577   9.886  1.00  0.00     0.115 A 
HETATM   11  C   UNL     1      43.552  -8.665  10.730  1.00  0.00     0.075 A 
HETATM   12  S   UNL     1      42.442  -6.381  10.465  1.00  0.00    -0.074 SA
HETATM   13  C   UNL     1      42.712  -8.514  11.893  1.00  0.00    -0.031 A 
HETATM   14  C   UNL     1      44.406  -9.776  10.338  1.00  0.00     0.262 A 
HETATM   15  C   UNL     1      42.589  -9.535  12.977  1.00  0.00     0.050 C 
HETATM   16  C   UNL     1      42.021  -7.311  11.841  1.00  0.00    -0.012 A 
HETATM   17  C   UNL     1      41.017  -6.763  12.803  1.00  0.00     0.057 C 
HETATM   18  O   UNL     1      44.573 -10.772  11.041  1.00  0.00    -0.267 OA
ENDBRANCH   6   7
ENDBRANCH   3   6
ENDBRANCH   1   2
BRANCH   1  19
HETATM   19  C   UNL     1      42.470 -11.172   5.572  1.00  0.00     0.029 C 
BRANCH  19  20
HETATM   20  C   UNL     1      41.073 -11.157   6.182  1.00  0.00     0.104 C 
BRANCH  20  21
HETATM   21  C   UNL     1      40.033 -11.699   5.228  1.00  0.00     0.217 C 
HETATM   22  N   UNL     1      40.307 -11.491   3.895  1.00  0.00    -0.361 N 
HETATM   23  H   UNL     1      41.093 -10.887   3.665  1.00  0.00     0.162 HD
HETATM   24  O   UNL     1      39.029 -12.293   5.611  1.00  0.00    -0.274 OA
BRANCH  22  25
HETATM   25  C   UNL     1      39.325 -11.736   2.858  1.00  0.00     0.124 C 
BRANCH  25  26
HETATM   26  C   UNL     1      39.662 -12.921   1.948  1.00  0.00     0.047 C 
BRANCH  26  27
HETATM   27  C   UNL     1      39.541 -14.265   2.662  1.00  0.00     0.236 C 
BRANCH  27  28
HETATM   28  N   UNL     1      40.911 -14.891   2.911  1.00  0.00    -0.070 N 
HETATM   29  H   UNL     1      41.609 -14.237   2.537  1.00  0.00     0.279 HD
HETATM   30  C   UNL     1      41.200 -15.107   4.380  1.00  0.00     0.239 C 
HETATM   31  C   UNL     1      42.612 -15.670   4.554  1.00  0.00     0.008 C 
HETATM   32  C   UNL     1      42.797 -16.959   3.746  1.00  0.00     0.011 C 
HETATM   33  C   UNL     1      42.901 -15.921   6.034  1.00  0.00     0.011 C 
HETATM   34  C   UNL     1      42.428 -16.785   2.267  1.00  0.00     0.008 C 
HETATM   35  C   UNL     1      41.029 -16.183   2.124  1.00  0.00     0.239 C 
HETATM   36  C   UNL     1      43.484 -15.978   1.507  1.00  0.00     0.011 C 
ENDBRANCH  27  28
ENDBRANCH  26  27
ENDBRANCH  25  26
ENDBRANCH  22  25
ENDBRANCH  20  21
ENDBRANCH  19  20
ENDBRANCH   1  19
TORSDOF 10
ENDMDL
MODEL 10
REMARK VINA RESULT:      -7.7      2.216      3.174
REMARK  10 active torsions:
REMARK  status: ('A' for Active; 'I' for Inactive)
REMARK    1  A    between atoms: N_7  and  C_8 
REMARK    2  A    between atoms: C_8  and  C_9 
REMARK       I    between atoms: C_9  and  N_10 
REMARK    3  A    between atoms: N_10  and  C_11 
REMARK    4  A    between atoms: C_11  and  C_12 
REMARK    5  A    between atoms: C_12  and  C_13 
REMARK    6  A    between atoms: C_13  and  C_14 
REMARK       I    between atoms: C_14  and  N_15 
REMARK    7  A    between atoms: N_15  and  C_16 
REMARK    8  A    between atoms: C_16  and  C_17 
REMARK    9  A    between atoms: C_17  and  C_18 
REMARK   10  A    between atoms: C_18  and  N_19 
ROOT
HETATM    1  C   UNL     1      39.507 -12.560   4.692  1.00  0.00     0.123 C 
ENDROOT
BRANCH   1   2
HETATM    2  N   UNL     1      40.879 -12.972   4.486  1.00  0.00    -0.360 N 
HETATM    3  C   UNL     1      41.380 -13.222   3.222  1.00  0.00     0.235 C 
HETATM    4  O   UNL     1      40.693 -13.130   2.208  1.00  0.00    -0.272 OA
HETATM    5  H   UNL     1      41.460 -13.139   5.300  1.00  0.00     0.162 HD
BRANCH   3   6
HETATM    6  C   UNL     1      42.873 -13.544   3.194  1.00  0.00     0.235 C 
BRANCH   6   7
HETATM    7  N   UNL     1      43.078 -14.979   3.146  1.00  0.00    -0.299 N 
HETATM    8  C   UNL     1      43.133 -15.633   1.930  1.00  0.00     0.214 A 
HETATM    9  N   UNL     1      43.340 -16.899   1.766  1.00  0.00    -0.235 NA
HETATM   10  C   UNL     1      43.508 -17.591   2.920  1.00  0.00     0.115 A 
HETATM   11  C   UNL     1      43.431 -17.092   4.202  1.00  0.00     0.075 A 
HETATM   12  S   UNL     1      43.861 -19.253   2.912  1.00  0.00    -0.074 SA
HETATM   13  C   UNL     1      43.653 -18.098   5.211  1.00  0.00    -0.031 A 
HETATM   14  C   UNL     1      43.157 -15.671   4.352  1.00  0.00     0.262 A 
HETATM   15  C   UNL     1      43.612 -17.836   6.682  1.00  0.00     0.050 C 
HETATM   16  C   UNL     1      43.937 -19.324   4.622  1.00  0.00    -0.012 A 
HETATM   17  C   UNL     1      44.271 -20.625   5.277  1.00  0.00     0.057 C 
HETATM   18  O   UNL     1      43.009 -15.129   5.446  1.00  0.00    -0.267 OA
ENDBRANCH   6   7
ENDBRANCH   3   6
ENDBRANCH   1   2
BRANCH   1  19
HETATM   19  C   UNL     1      39.347 -11.676   5.926  1.00  0.00     0.029 C 
BRANCH  19  20
HETATM   20  C   UNL     1      40.108 -10.366   5.752  1.00  0.00     0.104 C 
BRANCH  20  21
HETATM   21  C   UNL     1      40.550  -9.788   7.076  1.00  0.00     0.217 C 
HETATM   22  N   UNL     1      39.734 -10.094   8.142  1.00  0.00    -0.361 N 
HETATM   23  H   UNL     1      38.850 -10.554   7.940  1.00  0.00     0.162 HD
HETATM   24  O   UNL     1      41.567  -9.111   7.196  1.00  0.00    -0.274 OA
BRANCH  22  25
HETATM   25  C   UNL     1      39.873  -9.446   9.431  1.00  0.00     0.124 C 
BRANCH  25  26
HETATM   26  C   UNL     1      39.062 -10.106  10.551  1.00  0.00     0.047 C 
BRANCH  26  27
HETATM   27  C   UNL     1      39.797 -10.102  11.890  1.00  0.00     0.236 C 
BRANCH  27  28
HETATM   28  N   UNL     1      41.011  -9.178  11.857  1.00  0.00    -0.070 N 
HETATM   29  H   UNL     1      41.082  -8.812  10.900  1.00  0.00     0.279 HD
HETATM   30  C   UNL     1      40.884  -8.007  12.805  1.00  0.00     0.239 C 
HETATM   31  C   UNL     1      42.102  -7.091  12.666  1.00  0.00     0.008 C 
HETATM   32  C   UNL     1      43.405  -7.866  12.896  1.00  0.00     0.011 C 
HETATM   33  C   UNL     1      41.997  -5.921  13.644  1.00  0.00     0.011 C 
HETATM   34  C   UNL     1      43.517  -9.108  12.003  1.00  0.00     0.008 C 
HETATM   35  C   UNL     1      42.268  -9.982  12.131  1.00  0.00     0.239 C 
HETATM   36  C   UNL     1      43.816  -8.738  10.548  1.00  0.00     0.011 C 
ENDBRANCH  27  28
ENDBRANCH  26  27
ENDBRANCH  25  26
ENDBRANCH  22  25
ENDBRANCH  20  21
ENDBRANCH  19  20
ENDBRANCH   1  19
TORSDOF 10
ENDMDL
