MODEL 1
REMARK VINA RESULT:      -9.5      0.000      0.000
REMARK  6 active torsions:
REMARK  status: ('A' for Active; 'I' for Inactive)
REMARK    1  A    between atoms: C_6  and  O_7 
REMARK    2  A    between atoms: O_7  and  C_8 
REMARK    3  A    between atoms: C_8  and  C_9 
REMARK       I    between atoms: C_9  and  N_10 
REMARK    4  A    between atoms: N_10  and  N_11 
REMARK       I    between atoms: N_11  and  C_12 
REMARK    5  A    between atoms: C_12  and  C_13 
REMARK    6  A    between atoms: C_17  and  C_18 
ROOT
HETATM    1  N   UNL     1      43.313 -12.689   7.334  1.00  0.00    -0.262 N 
HETATM    2  C   UNL     1      44.400 -11.837   7.262  1.00  0.00     0.288 C 
HETATM    3  O   UNL     1      45.280 -11.958   6.414  1.00  0.00    -0.264 OA
HETATM    4  H   UNL     1      42.456 -12.371   7.778  1.00  0.00     0.190 HD
ENDROOT
BRANCH   1   5
HETATM    5  N   UNL     1      43.157 -13.651   6.329  1.00  0.00    -0.265 N 
HETATM    6  C   UNL     1      41.890 -13.899   5.836  1.00  0.00     0.260 C 
HETATM    7  O   UNL     1      40.868 -13.446   6.347  1.00  0.00    -0.269 OA
HETATM    8  H   UNL     1      43.968 -13.847   5.745  1.00  0.00     0.190 HD
BRANCH   6   9
HETATM    9  C   UNL     1      41.883 -14.754   4.571  1.00  0.00     0.280 C 
BRANCH   9  10
HETATM   10  O   UNL     1      43.234 -15.089   4.240  1.00  0.00    -0.341 OA
BRANCH  10  11
HETATM   11  C   UNL     1      43.334 -16.392   3.825  1.00  0.00     0.081 A 
HETATM   12  C   UNL     1      43.058 -16.693   2.481  1.00  0.00    -0.028 A 
HETATM   13  C   UNL     1      43.197 -18.017   2.042  1.00  0.00     0.016 A 
HETATM   14  C   UNL     1      42.601 -15.633   1.519  1.00  0.00     0.051 C 
HETATM   15  C   UNL     1      43.636 -19.020   2.912  1.00  0.00    -0.061 A 
HETATM   16  C   UNL     1      43.800 -20.436   2.440  1.00  0.00     0.048 C 
HETATM   17  C   UNL     1      43.941 -18.691   4.239  1.00  0.00     0.016 A 
HETATM   18  C   UNL     1      43.819 -17.373   4.703  1.00  0.00    -0.028 A 
HETATM   19  C   UNL     1      44.178 -17.065   6.129  1.00  0.00     0.051 C 
ENDBRANCH  10  11
ENDBRANCH   9  10
ENDBRANCH   6   9
ENDBRANCH   1   5
BRANCH   2  20
HETATM   20  C   UNL     1      44.427 -10.810   8.268  1.00  0.00     0.121 A 
HETATM   21  N   UNL     1      45.578 -10.444   8.903  1.00  0.00    -0.272 N 
HETATM   22  H   UNL     1      46.512 -10.807   8.733  1.00  0.00     0.189 HD
HETATM   23  N   UNL     1      45.407  -9.520   9.858  1.00  0.00    -0.174 NA
HETATM   24  C   UNL     1      44.087  -9.275   9.869  1.00  0.00     0.089 A 
HETATM   25  C   UNL     1      43.442 -10.046   8.859  1.00  0.00     0.071 A 
BRANCH  24  26
HETATM   26  C   UNL     1      43.477  -8.361  10.844  1.00  0.00    -0.006 A 
HETATM   27  C   UNL     1      43.521  -8.627  12.222  1.00  0.00     0.014 A 
HETATM   28  C   UNL     1      42.970  -7.729  13.142  1.00  0.00     0.001 A 
HETATM   29  C   UNL     1      42.369  -6.554  12.699  1.00  0.00     0.000 A 
HETATM   30  C   UNL     1      42.310  -6.277  11.335  1.00  0.00     0.001 A 
HETATM   31  C   UNL     1      42.859  -7.175  10.416  1.00  0.00     0.014 A 
ENDBRANCH  24  26
ENDBRANCH   2  20
TORSDOF 6
ENDMDL
MODEL 2
REMARK VINA RESULT:      -9.4      0.126      1.643
REMARK  6 active torsions:
REMARK  status: ('A' for Active; 'I' for Inactive)
REMARK    1  A    between atoms: C_6  and  O_7 
REMARK    2  A    between atoms: O_7  and  C_8 
REMARK    3  A    between atoms: C_8  and  C_9 
REMARK       I    between atoms: C_9  and  N_10 
REMARK    4  A    between atoms: N_10  and  N_11 
REMARK       I    between atoms: N_11  and  C_12 
REMARK    5  A    between atoms: C_12  and  C_13 
REMARK    6  A    between atoms: C_17  and  C_18 
ROOT
HETATM    1  N   UNL     1      43.365 -12.850   7.494  1.00  0.00    -0.262 N 
HETATM    2  C   UNL     1      44.281 -11.844   7.248  1.00  0.00     0.288 C 
HETATM    3  O   UNL     1      45.002 -11.834   6.253  1.00  0.00    -0.264 OA
HETATM    4  H   UNL     1      42.564 -12.664   8.091  1.00  0.00     0.190 HD
ENDROOT
BRANCH   1   5
HETATM    5  N   UNL     1      43.176 -13.829   6.511  1.00  0.00    -0.265 N 
HETATM    6  C   UNL     1      41.929 -13.952   5.926  1.00  0.00     0.260 C 
HETATM    7  O   UNL     1      40.931 -13.367   6.339  1.00  0.00    -0.269 OA
HETATM    8  H   UNL     1      44.001 -14.138   6.000  1.00  0.00     0.190 HD
BRANCH   6   9
HETATM    9  C   UNL     1      41.919 -14.852   4.693  1.00  0.00     0.280 C 
BRANCH   9  10
HETATM   10  O   UNL     1      43.273 -15.099   4.298  1.00  0.00    -0.341 OA
BRANCH  10  11
HETATM   11  C   UNL     1      43.418 -16.365   3.792  1.00  0.00     0.081 A 
HETATM   12  C   UNL     1      43.855 -17.386   4.650  1.00  0.00    -0.028 A 
HETATM   13  C   UNL     1      43.967 -18.691   4.148  1.00  0.00     0.016 A 
HETATM   14  C   UNL     1      44.219 -17.105   6.081  1.00  0.00     0.051 C 
HETATM   15  C   UNL     1      43.620 -18.983   2.825  1.00  0.00    -0.061 A 
HETATM   16  C   UNL     1      43.725 -20.382   2.290  1.00  0.00     0.048 C 
HETATM   17  C   UNL     1      43.152 -17.955   1.997  1.00  0.00     0.016 A 
HETATM   18  C   UNL     1      43.021 -16.643   2.476  1.00  0.00    -0.028 A 
HETATM   19  C   UNL     1      42.494 -15.579   1.555  1.00  0.00     0.051 C 
ENDBRANCH  10  11
ENDBRANCH   9  10
ENDBRANCH   6   9
ENDBRANCH   1   5
BRANCH   2  20
HETATM   20  C   UNL     1      44.336 -10.821   8.256  1.00  0.00     0.121 A 
HETATM   21  N   UNL     1      45.495 -10.491   8.897  1.00  0.00    -0.272 N 
HETATM   22  H   UNL     1      46.418 -10.882   8.730  1.00  0.00     0.189 HD
HETATM   23  N   UNL     1      45.348  -9.565   9.854  1.00  0.00    -0.174 NA
HETATM   24  C   UNL     1      44.036  -9.279   9.860  1.00  0.00     0.089 A 
HETATM   25  C   UNL     1      43.372 -10.027   8.845  1.00  0.00     0.071 A 
BRANCH  24  26
HETATM   26  C   UNL     1      43.450  -8.349  10.834  1.00  0.00    -0.006 A 
HETATM   27  C   UNL     1      43.525  -8.594  12.215  1.00  0.00     0.014 A 
HETATM   28  C   UNL     1      42.997  -7.681  13.134  1.00  0.00     0.001 A 
HETATM   29  C   UNL     1      42.389  -6.511  12.686  1.00  0.00     0.000 A 
HETATM   30  C   UNL     1      42.300  -6.255  11.320  1.00  0.00     0.001 A 
HETATM   31  C   UNL     1      42.826  -7.168  10.402  1.00  0.00     0.014 A 
ENDBRANCH  24  26
ENDBRANCH   2  20
TORSDOF 6
ENDMDL
MODEL 3
REMARK VINA RESULT:      -9.1      1.640     10.728
REMARK  6 active torsions:
REMARK  status: ('A' for Active; 'I' for Inactive)
REMARK    1  A    between atoms: C_6  and  O_7 
REMARK    2  A    between atoms: O_7  and  C_8 
REMARK    3  A    between atoms: C_8  and  C_9 
REMARK       I    between atoms: C_9  and  N_10 
REMARK    4  A    between atoms: N_10  and  N_11 
REMARK       I    between atoms: N_11  and  C_12 
REMARK    5  A    between atoms: C_12  and  C_13 
REMARK    6  A    between atoms: C_17  and  C_18 
ROOT
HETATM    1  N   UNL     1      43.135 -13.064   6.553  1.00  0.00    -0.262 N 
HETATM    2  C   UNL     1      42.303 -13.480   5.530  1.00  0.00     0.288 C 
HETATM    3  O   UNL     1      41.256 -12.901   5.252  1.00  0.00    -0.264 OA
HETATM    4  H   UNL     1      44.120 -13.313   6.531  1.00  0.00     0.190 HD
ENDROOT
BRANCH   1   5
HETATM    5  N   UNL     1      42.824 -11.871   7.217  1.00  0.00    -0.265 N 
HETATM    6  C   UNL     1      43.632 -10.767   7.014  1.00  0.00     0.260 C 
HETATM    7  O   UNL     1      44.707 -10.819   6.420  1.00  0.00    -0.269 OA
HETATM    8  H   UNL     1      41.855 -11.736   7.499  1.00  0.00     0.190 HD
BRANCH   6   9
HETATM    9  C   UNL     1      43.044  -9.471   7.564  1.00  0.00     0.280 C 
BRANCH   9  10
HETATM   10  O   UNL     1      44.081  -8.748   8.235  1.00  0.00    -0.341 OA
BRANCH  10  11
HETATM   11  C   UNL     1      43.708  -8.418   9.513  1.00  0.00     0.081 A 
HETATM   12  C   UNL     1      44.222  -9.171  10.580  1.00  0.00    -0.028 A 
HETATM   13  C   UNL     1      43.875  -8.812  11.891  1.00  0.00     0.016 A 
HETATM   14  C   UNL     1      45.115 -10.356  10.344  1.00  0.00     0.051 C 
HETATM   15  C   UNL     1      43.059  -7.703  12.140  1.00  0.00    -0.061 A 
HETATM   16  C   UNL     1      42.699  -7.309  13.542  1.00  0.00     0.048 C 
HETATM   17  C   UNL     1      42.587  -6.945  11.061  1.00  0.00     0.016 A 
HETATM   18  C   UNL     1      42.925  -7.276   9.741  1.00  0.00    -0.028 A 
HETATM   19  C   UNL     1      42.412  -6.418   8.619  1.00  0.00     0.051 C 
ENDBRANCH  10  11
ENDBRANCH   9  10
ENDBRANCH   6   9
ENDBRANCH   1   5
BRANCH   2  20
HETATM   20  C   UNL     1      42.752 -14.652   4.829  1.00  0.00     0.121 A 
HETATM   21  N   UNL     1      42.964 -14.658   3.481  1.00  0.00    -0.272 N 
HETATM   22  H   UNL     1      42.869 -13.872   2.844  1.00  0.00     0.189 HD
HETATM   23  N   UNL     1      43.314 -15.853   2.986  1.00  0.00    -0.174 NA
HETATM   24  C   UNL     1      43.318 -16.677   4.045  1.00  0.00     0.089 A 
HETATM   25  C   UNL     1      43.000 -15.950   5.228  1.00  0.00     0.071 A 
BRANCH  24  26
HETATM   26  C   UNL     1      43.582 -18.116   3.906  1.00  0.00    -0.006 A 
HETATM   27  C   UNL     1      43.975 -18.896   5.005  1.00  0.00     0.014 A 
HETATM   28  C   UNL     1      44.185 -20.272   4.867  1.00  0.00     0.001 A 
HETATM   29  C   UNL     1      44.007 -20.887   3.630  1.00  0.00     0.000 A 
HETATM   30  C   UNL     1      43.625 -20.127   2.527  1.00  0.00     0.001 A 
HETATM   31  C   UNL     1      43.416 -18.752   2.665  1.00  0.00     0.014 A 
ENDBRANCH  24  26
ENDBRANCH   2  20
TORSDOF 6
ENDMDL
MODEL 4
REMARK VINA RESULT:      -9.0      1.692     10.705
REMARK  6 active torsions:
REMARK  status: ('A' for Active; 'I' for Inactive)
REMARK    1  A    between atoms: C_6  and  O_7 
REMARK    2  A    between atoms: O_7  and  C_8 
REMARK    3  A    between atoms: C_8  and  C_9 
REMARK       I    between atoms: C_9  and  N_10 
REMARK    4  A    between atoms: N_10  and  N_11 
REMARK       I    between atoms: N_11  and  C_12 
REMARK    5  A    between atoms: C_12  and  C_13 
REMARK    6  A    between atoms: C_17  and  C_18 
ROOT
HETATM    1  N   UNL     1      43.145 -12.783   6.600  1.00  0.00    -0.262 N 
HETATM    2  C   UNL     1      42.446 -12.967   5.420  1.00  0.00     0.288 C 
HETATM    3  O   UNL     1      41.561 -12.200   5.049  1.00  0.00    -0.264 OA
HETATM    4  H   UNL     1      44.070 -13.190   6.703  1.00  0.00     0.190 HD
ENDROOT
BRANCH   1   5
HETATM    5  N   UNL     1      42.909 -11.614   7.334  1.00  0.00    -0.265 N 
HETATM    6  C   UNL     1      43.982 -10.969   7.921  1.00  0.00     0.260 C 
HETATM    7  O   UNL     1      45.109 -11.455   7.979  1.00  0.00    -0.269 OA
HETATM    8  H   UNL     1      42.071 -11.083   7.104  1.00  0.00     0.190 HD
BRANCH   6   9
HETATM    9  C   UNL     1      43.643  -9.579   8.453  1.00  0.00     0.280 C 
BRANCH   9  10
HETATM   10  O   UNL     1      42.474  -9.678   9.273  1.00  0.00    -0.341 OA
BRANCH  10  11
HETATM   11  C   UNL     1      42.616  -8.954  10.428  1.00  0.00     0.081 A 
HETATM   12  C   UNL     1      42.090  -7.653  10.477  1.00  0.00    -0.028 A 
HETATM   13  C   UNL     1      42.198  -6.923  11.670  1.00  0.00     0.016 A 
HETATM   14  C   UNL     1      41.434  -7.028   9.278  1.00  0.00     0.051 C 
HETATM   15  C   UNL     1      42.789  -7.487  12.806  1.00  0.00    -0.061 A 
HETATM   16  C   UNL     1      42.892  -6.713  14.087  1.00  0.00     0.048 C 
HETATM   17  C   UNL     1      43.275  -8.799  12.745  1.00  0.00     0.016 A 
HETATM   18  C   UNL     1      43.172  -9.555  11.568  1.00  0.00    -0.028 A 
HETATM   19  C   UNL     1      43.689 -10.966  11.558  1.00  0.00     0.051 C 
ENDBRANCH  10  11
ENDBRANCH   9  10
ENDBRANCH   6   9
ENDBRANCH   1   5
BRANCH   2  20
HETATM   20  C   UNL     1      42.825 -14.135   4.673  1.00  0.00     0.121 A 
HETATM   21  N   UNL     1      42.990 -14.110   3.319  1.00  0.00    -0.272 N 
HETATM   22  H   UNL     1      42.902 -13.304   2.706  1.00  0.00     0.189 HD
HETATM   23  N   UNL     1      43.277 -15.303   2.779  1.00  0.00    -0.174 NA
HETATM   24  C   UNL     1      43.287 -16.157   3.816  1.00  0.00     0.089 A 
HETATM   25  C   UNL     1      43.038 -15.451   5.029  1.00  0.00     0.071 A 
BRANCH  24  26
HETATM   26  C   UNL     1      43.491 -17.600   3.629  1.00  0.00    -0.006 A 
HETATM   27  C   UNL     1      44.010 -18.403   4.656  1.00  0.00     0.014 A 
HETATM   28  C   UNL     1      44.164 -19.782   4.479  1.00  0.00     0.001 A 
HETATM   29  C   UNL     1      43.801 -20.377   3.273  1.00  0.00     0.000 A 
HETATM   30  C   UNL     1      43.292 -19.594   2.240  1.00  0.00     0.001 A 
HETATM   31  C   UNL     1      43.139 -18.216   2.417  1.00  0.00     0.014 A 
ENDBRANCH  24  26
ENDBRANCH   2  20
TORSDOF 6
ENDMDL
MODEL 5
REMARK VINA RESULT:      -8.5      1.803      2.650
REMARK  6 active torsions:
REMARK  status: ('A' for Active; 'I' for Inactive)
REMARK    1  A    between atoms: C_6  and  O_7 
REMARK    2  A    between atoms: O_7  and  C_8 
REMARK    3  A    between atoms: C_8  and  C_9 
REMARK       I    between atoms: C_9  and  N_10 
REMARK    4  A    between atoms: N_10  and  N_11 
REMARK       I    between atoms: N_11  and  C_12 
REMARK    5  A    between atoms: C_12  and  C_13 
REMARK    6  A    between atoms: C_17  and  C_18 
ROOT
HETATM    1  N   UNL     1      43.009 -11.254   7.412  1.00  0.00    -0.262 N 
HETATM    2  C   UNL     1      42.741  -9.977   7.872  1.00  0.00     0.288 C 
HETATM    3  O   UNL     1      42.370  -9.071   7.130  1.00  0.00    -0.264 OA
HETATM    4  H   UNL     1      42.957 -12.039   8.055  1.00  0.00     0.190 HD
ENDROOT
BRANCH   1   5
HETATM    5  N   UNL     1      42.732 -11.547   6.071  1.00  0.00    -0.265 N 
HETATM    6  C   UNL     1      43.783 -11.618   5.175  1.00  0.00     0.260 C 
HETATM    7  O   UNL     1      44.929 -11.270   5.453  1.00  0.00    -0.269 OA
HETATM    8  H   UNL     1      41.873 -12.058   5.876  1.00  0.00     0.190 HD
BRANCH   6   9
HETATM    9  C   UNL     1      43.393 -12.207   3.822  1.00  0.00     0.280 C 
BRANCH   9  10
HETATM   10  O   UNL     1      42.225 -13.016   3.997  1.00  0.00    -0.341 OA
BRANCH  10  11
HETATM   11  C   UNL     1      42.445 -14.301   3.572  1.00  0.00     0.081 A 
HETATM   12  C   UNL     1      42.251 -14.604   2.215  1.00  0.00    -0.028 A 
HETATM   13  C   UNL     1      42.512 -15.907   1.768  1.00  0.00     0.016 A 
HETATM   14  C   UNL     1      41.754 -13.570   1.244  1.00  0.00     0.051 C 
HETATM   15  C   UNL     1      42.991 -16.885   2.647  1.00  0.00    -0.061 A 
HETATM   16  C   UNL     1      43.286 -18.277   2.167  1.00  0.00     0.048 C 
HETATM   17  C   UNL     1      43.212 -16.551   3.989  1.00  0.00     0.016 A 
HETATM   18  C   UNL     1      42.967 -15.253   4.461  1.00  0.00    -0.028 A 
HETATM   19  C   UNL     1      43.240 -14.937   5.904  1.00  0.00     0.051 C 
ENDBRANCH  10  11
ENDBRANCH   9  10
ENDBRANCH   6   9
ENDBRANCH   1   5
BRANCH   2  20
HETATM   20  C   UNL     1      42.949  -9.790   9.282  1.00  0.00     0.121 A 
HETATM   21  N   UNL     1      43.722 -10.636  10.022  1.00  0.00    -0.272 N 
HETATM   22  H   UNL     1      44.243 -11.441   9.686  1.00  0.00     0.189 HD
HETATM   23  N   UNL     1      43.750 -10.350  11.331  1.00  0.00    -0.174 NA
HETATM   24  C   UNL     1      42.950  -9.279  11.467  1.00  0.00     0.089 A 
HETATM   25  C   UNL     1      42.454  -8.879  10.193  1.00  0.00     0.071 A 
BRANCH  24  26
HETATM   26  C   UNL     1      42.653  -8.696  12.783  1.00  0.00    -0.006 A 
HETATM   27  C   UNL     1      43.387  -7.608  13.282  1.00  0.00     0.014 A 
HETATM   28  C   UNL     1      43.069  -7.038  14.519  1.00  0.00     0.001 A 
HETATM   29  C   UNL     1      42.014  -7.546  15.273  1.00  0.00     0.000 A 
HETATM   30  C   UNL     1      41.281  -8.630  14.797  1.00  0.00     0.001 A 
HETATM   31  C   UNL     1      41.600  -9.201  13.561  1.00  0.00     0.014 A 
ENDBRANCH  24  26
ENDBRANCH   2  20
TORSDOF 6
ENDMDL
MODEL 6
REMARK VINA RESULT:      -8.4      7.708     11.371
REMARK  6 active torsions:
REMARK  status: ('A' for Active; 'I' for Inactive)
REMARK    1  A    between atoms: C_6  and  O_7 
REMARK    2  A    between atoms: O_7  and  C_8 
REMARK    3  A    between atoms: C_8  and  C_9 
REMARK       I    between atoms: C_9  and  N_10 
REMARK    4  A    between atoms: N_10  and  N_11 
REMARK       I    between atoms: N_11  and  C_12 
REMARK    5  A    between atoms: C_12  and  C_13 
REMARK    6  A    between atoms: C_17  and  C_18 
ROOT
HETATM    1  N   UNL     1      40.674 -13.894  -0.222  1.00  0.00    -0.262 N 
HETATM    2  C   UNL     1      40.576 -14.258   1.109  1.00  0.00     0.288 C 
HETATM    3  O   UNL     1      39.727 -13.788   1.862  1.00  0.00    -0.264 OA
HETATM    4  H   UNL     1      41.112 -14.528  -0.884  1.00  0.00     0.190 HD
ENDROOT
BRANCH   1   5
HETATM    5  N   UNL     1      39.694 -13.045  -0.751  1.00  0.00    -0.265 N 
HETATM    6  C   UNL     1      38.780 -13.562  -1.651  1.00  0.00     0.260 C 
HETATM    7  O   UNL     1      38.884 -14.682  -2.146  1.00  0.00    -0.269 OA
HETATM    8  H   UNL     1      39.443 -12.226  -0.199  1.00  0.00     0.190 HD
BRANCH   6   9
HETATM    9  C   UNL     1      37.611 -12.625  -1.941  1.00  0.00     0.280 C 
BRANCH   9  10
HETATM   10  O   UNL     1      38.004 -11.289  -1.612  1.00  0.00    -0.341 OA
BRANCH  10  11
HETATM   11  C   UNL     1      36.932 -10.547  -1.189  1.00  0.00     0.081 A 
HETATM   12  C   UNL     1      36.101  -9.955  -2.154  1.00  0.00    -0.028 A 
HETATM   13  C   UNL     1      34.980  -9.228  -1.727  1.00  0.00     0.016 A 
HETATM   14  C   UNL     1      36.399 -10.071  -3.622  1.00  0.00     0.051 C 
HETATM   15  C   UNL     1      34.670  -9.119  -0.368  1.00  0.00    -0.061 A 
HETATM   16  C   UNL     1      33.462  -8.353   0.090  1.00  0.00     0.048 C 
HETATM   17  C   UNL     1      35.493  -9.747   0.575  1.00  0.00     0.016 A 
HETATM   18  C   UNL     1      36.615 -10.488   0.176  1.00  0.00    -0.028 A 
HETATM   19  C   UNL     1      37.455 -11.163   1.224  1.00  0.00     0.051 C 
ENDBRANCH  10  11
ENDBRANCH   9  10
ENDBRANCH   6   9
ENDBRANCH   1   5
BRANCH   2  20
HETATM   20  C   UNL     1      41.555 -15.216   1.544  1.00  0.00     0.121 A 
HETATM   21  N   UNL     1      42.857 -15.161   1.138  1.00  0.00    -0.272 N 
HETATM   22  H   UNL     1      43.281 -14.460   0.537  1.00  0.00     0.189 HD
HETATM   23  N   UNL     1      43.614 -16.172   1.586  1.00  0.00    -0.174 NA
HETATM   24  C   UNL     1      42.777 -16.937   2.305  1.00  0.00     0.089 A 
HETATM   25  C   UNL     1      41.479 -16.349   2.328  1.00  0.00     0.071 A 
BRANCH  24  26
HETATM   26  C   UNL     1      43.213 -18.203   2.911  1.00  0.00    -0.006 A 
HETATM   27  C   UNL     1      43.187 -19.406   2.187  1.00  0.00     0.014 A 
HETATM   28  C   UNL     1      43.641 -20.597   2.763  1.00  0.00     0.001 A 
HETATM   29  C   UNL     1      44.126 -20.603   4.069  1.00  0.00     0.000 A 
HETATM   30  C   UNL     1      44.151 -19.420   4.804  1.00  0.00     0.001 A 
HETATM   31  C   UNL     1      43.697 -18.230   4.229  1.00  0.00     0.014 A 
ENDBRANCH  24  26
ENDBRANCH   2  20
TORSDOF 6
ENDMDL
MODEL 7
REMARK VINA RESULT:      -8.2      2.392     10.290
REMARK  6 active torsions:
REMARK  status: ('A' for Active; 'I' for Inactive)
REMARK    1  A    between atoms: C_6  and  O_7 
REMARK    2  A    between atoms: O_7  and  C_8 
REMARK    3  A    between atoms: C_8  and  C_9 
REMARK       I    between atoms: C_9  and  N_10 
REMARK    4  A    between atoms: N_10  and  N_11 
REMARK       I    between atoms: N_11  and  C_12 
REMARK    5  A    between atoms: C_12  and  C_13 
REMARK    6  A    between atoms: C_17  and  C_18 
ROOT
HETATM    1  N   UNL     1      41.943 -13.003   4.648  1.00  0.00    -0.262 N 
HETATM    2  C   UNL     1      42.356 -13.160   3.337  1.00  0.00     0.288 C 
HETATM    3  O   UNL     1      42.338 -12.241   2.523  1.00  0.00    -0.264 OA
HETATM    4  H   UNL     1      42.293 -13.635   5.363  1.00  0.00     0.190 HD
ENDROOT
BRANCH   1   5
HETATM    5  N   UNL     1      41.604 -11.717   5.086  1.00  0.00    -0.265 N 
HETATM    6  C   UNL     1      40.616 -11.580   6.043  1.00  0.00     0.260 C 
HETATM    7  O   UNL     1      39.898 -12.508   6.408  1.00  0.00    -0.269 OA
HETATM    8  H   UNL     1      42.314 -10.994   4.993  1.00  0.00     0.190 HD
BRANCH   6   9
HETATM    9  C   UNL     1      40.529 -10.175   6.633  1.00  0.00     0.280 C 
BRANCH   9  10
HETATM   10  O   UNL     1      41.845  -9.615   6.675  1.00  0.00    -0.341 OA
BRANCH  10  11
HETATM   11  C   UNL     1      42.245  -9.384   7.966  1.00  0.00     0.081 A 
HETATM   12  C   UNL     1      43.277 -10.169   8.502  1.00  0.00    -0.028 A 
HETATM   13  C   UNL     1      43.717  -9.910   9.808  1.00  0.00     0.016 A 
HETATM   14  C   UNL     1      43.901 -11.287   7.714  1.00  0.00     0.051 C 
HETATM   15  C   UNL     1      43.165  -8.866  10.557  1.00  0.00    -0.061 A 
HETATM   16  C   UNL     1      43.645  -8.577  11.950  1.00  0.00     0.048 C 
HETATM   17  C   UNL     1      42.161  -8.071   9.989  1.00  0.00     0.016 A 
HETATM   18  C   UNL     1      41.709  -8.303   8.682  1.00  0.00    -0.028 A 
HETATM   19  C   UNL     1      40.646  -7.409   8.108  1.00  0.00     0.051 C 
ENDBRANCH  10  11
ENDBRANCH   9  10
ENDBRANCH   6   9
ENDBRANCH   1   5
BRANCH   2  20
HETATM   20  C   UNL     1      42.789 -14.488   2.998  1.00  0.00     0.121 A 
HETATM   21  N   UNL     1      43.133 -14.839   1.725  1.00  0.00    -0.272 N 
HETATM   22  H   UNL     1      43.155 -14.234   0.909  1.00  0.00     0.189 HD
HETATM   23  N   UNL     1      43.447 -16.134   1.578  1.00  0.00    -0.174 NA
HETATM   24  C   UNL     1      43.290 -16.667   2.801  1.00  0.00     0.089 A 
HETATM   25  C   UNL     1      42.908 -15.654   3.727  1.00  0.00     0.071 A 
BRANCH  24  26
HETATM   26  C   UNL     1      43.467 -18.105   3.047  1.00  0.00    -0.006 A 
HETATM   27  C   UNL     1      43.151 -19.058   2.066  1.00  0.00     0.014 A 
HETATM   28  C   UNL     1      43.361 -20.421   2.299  1.00  0.00     0.001 A 
HETATM   29  C   UNL     1      43.890 -20.850   3.514  1.00  0.00     0.000 A 
HETATM   30  C   UNL     1      44.202 -19.919   4.501  1.00  0.00     0.001 A 
HETATM   31  C   UNL     1      43.992 -18.557   4.268  1.00  0.00     0.014 A 
ENDBRANCH  24  26
ENDBRANCH   2  20
TORSDOF 6
ENDMDL
MODEL 8
REMARK VINA RESULT:      -8.1      2.275     10.543
REMARK  6 active torsions:
REMARK  status: ('A' for Active; 'I' for Inactive)
REMARK    1  A    between atoms: C_6  and  O_7 
REMARK    2  A    between atoms: O_7  and  C_8 
REMARK    3  A    between atoms: C_8  and  C_9 
REMARK       I    between atoms: C_9  and  N_10 
REMARK    4  A    between atoms: N_10  and  N_11 
REMARK       I    between atoms: N_11  and  C_12 
REMARK    5  A    between atoms: C_12  and  C_13 
REMARK    6  A    between atoms: C_17  and  C_18 
ROOT
HETATM    1  N   UNL     1      40.865 -11.831   6.429  1.00  0.00    -0.262 N 
HETATM    2  C   UNL     1      42.027 -12.101   5.729  1.00  0.00     0.288 C 
HETATM    3  O   UNL     1      42.982 -11.329   5.710  1.00  0.00    -0.264 OA
HETATM    4  H   UNL     1      40.267 -12.599   6.722  1.00  0.00     0.190 HD
ENDROOT
BRANCH   1   5
HETATM    5  N   UNL     1      40.829 -10.689   7.238  1.00  0.00    -0.265 N 
HETATM    6  C   UNL     1      39.619 -10.295   7.779  1.00  0.00     0.260 C 
HETATM    7  O   UNL     1      38.542 -10.791   7.453  1.00  0.00    -0.269 OA
HETATM    8  H   UNL     1      41.695 -10.421   7.702  1.00  0.00     0.190 HD
BRANCH   6   9
HETATM    9  C   UNL     1      39.751  -9.215   8.849  1.00  0.00     0.280 C 
BRANCH   9  10
HETATM   10  O   UNL     1      41.054  -8.630   8.748  1.00  0.00    -0.341 OA
BRANCH  10  11
HETATM   11  C   UNL     1      41.564  -8.340   9.987  1.00  0.00     0.081 A 
HETATM   12  C   UNL     1      42.706  -9.030  10.423  1.00  0.00    -0.028 A 
HETATM   13  C   UNL     1      43.256  -8.708  11.672  1.00  0.00     0.016 A 
HETATM   14  C   UNL     1      43.335 -10.111   9.589  1.00  0.00     0.051 C 
HETATM   15  C   UNL     1      42.701  -7.695  12.462  1.00  0.00    -0.061 A 
HETATM   16  C   UNL     1      43.296  -7.340  13.793  1.00  0.00     0.048 C 
HETATM   17  C   UNL     1      41.582  -6.995  11.991  1.00  0.00     0.016 A 
HETATM   18  C   UNL     1      41.018  -7.290  10.741  1.00  0.00    -0.028 A 
HETATM   19  C   UNL     1      39.832  -6.497  10.270  1.00  0.00     0.051 C 
ENDBRANCH  10  11
ENDBRANCH   9  10
ENDBRANCH   6   9
ENDBRANCH   1   5
BRANCH   2  20
HETATM   20  C   UNL     1      42.022 -13.346   5.011  1.00  0.00     0.121 A 
HETATM   21  N   UNL     1      40.916 -13.802   4.353  1.00  0.00    -0.272 N 
HETATM   22  H   UNL     1      40.019 -13.333   4.266  1.00  0.00     0.189 HD
HETATM   23  N   UNL     1      41.069 -15.012   3.797  1.00  0.00    -0.174 NA
HETATM   24  C   UNL     1      42.322 -15.380   4.112  1.00  0.00     0.089 A 
HETATM   25  C   UNL     1      42.963 -14.343   4.848  1.00  0.00     0.071 A 
BRANCH  24  26
HETATM   26  C   UNL     1      42.857 -16.699   3.744  1.00  0.00    -0.006 A 
HETATM   27  C   UNL     1      42.464 -17.342   2.559  1.00  0.00     0.014 A 
HETATM   28  C   UNL     1      43.010 -18.579   2.201  1.00  0.00     0.001 A 
HETATM   29  C   UNL     1      43.956 -19.190   3.022  1.00  0.00     0.000 A 
HETATM   30  C   UNL     1      44.350 -18.569   4.205  1.00  0.00     0.001 A 
HETATM   31  C   UNL     1      43.804 -17.334   4.563  1.00  0.00     0.014 A 
ENDBRANCH  24  26
ENDBRANCH   2  20
TORSDOF 6
ENDMDL
MODEL 9
REMARK VINA RESULT:      -7.8      7.568     11.289
REMARK  6 active torsions:
REMARK  status: ('A' for Active; 'I' for Inactive)
REMARK    1  A    between atoms: C_6  and  O_7 
REMARK    2  A    between atoms: O_7  and  C_8 
REMARK    3  A    between atoms: C_8  and  C_9 
REMARK       I    between atoms: C_9  and  N_10 
REMARK    4  A    between atoms: N_10  and  N_11 
REMARK       I    between atoms: N_11  and  C_12 
REMARK    5  A    between atoms: C_12  and  C_13 
REMARK    6  A    between atoms: C_17  and  C_18 
ROOT
HETATM    1  N   UNL     1      39.708 -13.672   1.692  1.00  0.00    -0.262 N 
HETATM    2  C   UNL     1      40.290 -14.540   0.786  1.00  0.00     0.288 C 
HETATM    3  O   UNL     1      39.935 -14.606  -0.388  1.00  0.00    -0.264 OA
HETATM    4  H   UNL     1      40.230 -13.381   2.514  1.00  0.00     0.190 HD
ENDROOT
BRANCH   1   5
HETATM    5  N   UNL     1      38.761 -12.756   1.218  1.00  0.00    -0.265 N 
HETATM    6  C   UNL     1      39.097 -11.416   1.171  1.00  0.00     0.260 C 
HETATM    7  O   UNL     1      40.118 -10.959   1.681  1.00  0.00    -0.269 OA
HETATM    8  H   UNL     1      38.043 -13.114   0.590  1.00  0.00     0.190 HD
BRANCH   6   9
HETATM    9  C   UNL     1      38.100 -10.563   0.390  1.00  0.00     0.280 C 
BRANCH   9  10
HETATM   10  O   UNL     1      38.522 -10.507  -0.977  1.00  0.00    -0.341 OA
BRANCH  10  11
HETATM   11  C   UNL     1      37.450 -10.368  -1.821  1.00  0.00     0.081 A 
HETATM   12  C   UNL     1      36.972  -9.077  -2.096  1.00  0.00    -0.028 A 
HETATM   13  C   UNL     1      35.902  -8.927  -2.989  1.00  0.00     0.016 A 
HETATM   14  C   UNL     1      37.571  -7.864  -1.440  1.00  0.00     0.051 C 
HETATM   15  C   UNL     1      35.337 -10.037  -3.626  1.00  0.00    -0.061 A 
HETATM   16  C   UNL     1      34.201  -9.877  -4.594  1.00  0.00     0.048 C 
HETATM   17  C   UNL     1      35.853 -11.312  -3.365  1.00  0.00     0.016 A 
HETATM   18  C   UNL     1      36.929 -11.490  -2.482  1.00  0.00    -0.028 A 
HETATM   19  C   UNL     1      37.462 -12.876  -2.251  1.00  0.00     0.051 C 
ENDBRANCH  10  11
ENDBRANCH   9  10
ENDBRANCH   6   9
ENDBRANCH   1   5
BRANCH   2  20
HETATM   20  C   UNL     1      41.328 -15.371   1.331  1.00  0.00     0.121 A 
HETATM   21  N   UNL     1      42.651 -15.134   1.091  1.00  0.00    -0.272 N 
HETATM   22  H   UNL     1      43.047 -14.368   0.554  1.00  0.00     0.189 HD
HETATM   23  N   UNL     1      43.476 -16.047   1.621  1.00  0.00    -0.174 NA
HETATM   24  C   UNL     1      42.669 -16.934   2.224  1.00  0.00     0.089 A 
HETATM   25  C   UNL     1      41.311 -16.524   2.090  1.00  0.00     0.071 A 
BRANCH  24  26
HETATM   26  C   UNL     1      43.193 -18.146   2.869  1.00  0.00    -0.006 A 
HETATM   27  C   UNL     1      43.696 -18.117   4.179  1.00  0.00     0.014 A 
HETATM   28  C   UNL     1      44.156 -19.285   4.795  1.00  0.00     0.001 A 
HETATM   29  C   UNL     1      44.120 -20.498   4.111  1.00  0.00     0.000 A 
HETATM   30  C   UNL     1      43.632 -20.543   2.807  1.00  0.00     0.001 A 
HETATM   31  C   UNL     1      43.173 -19.376   2.192  1.00  0.00     0.014 A 
ENDBRANCH  24  26
ENDBRANCH   2  20
TORSDOF 6
ENDMDL
MODEL 10
REMARK VINA RESULT:      -7.8      7.470     11.336
REMARK  6 active torsions:
REMARK  status: ('A' for Active; 'I' for Inactive)
REMARK    1  A    between atoms: C_6  and  O_7 
REMARK    2  A    between atoms: O_7  and  C_8 
REMARK    3  A    between atoms: C_8  and  C_9 
REMARK       I    between atoms: C_9  and  N_10 
REMARK    4  A    between atoms: N_10  and  N_11 
REMARK       I    between atoms: N_11  and  C_12 
REMARK    5  A    between atoms: C_12  and  C_13 
REMARK    6  A    between atoms: C_17  and  C_18 
ROOT
HETATM    1  N   UNL     1      40.971 -13.073  -0.335  1.00  0.00    -0.262 N 
HETATM    2  C   UNL     1      40.139 -13.370   0.729  1.00  0.00     0.288 C 
HETATM    3  O   UNL     1      39.134 -12.712   0.987  1.00  0.00    -0.264 OA
HETATM    4  H   UNL     1      41.554 -13.803  -0.735  1.00  0.00     0.190 HD
ENDROOT
BRANCH   1   5
HETATM    5  N   UNL     1      40.583 -12.054  -1.214  1.00  0.00    -0.265 N 
HETATM    6  C   UNL     1      40.419 -12.358  -2.553  1.00  0.00     0.260 C 
HETATM    7  O   UNL     1      40.758 -13.431  -3.047  1.00  0.00    -0.269 OA
HETATM    8  H   UNL     1      40.081 -11.263  -0.815  1.00  0.00     0.190 HD
BRANCH   6   9
HETATM    9  C   UNL     1      39.738 -11.249  -3.352  1.00  0.00     0.280 C 
BRANCH   9  10
HETATM   10  O   UNL     1      39.792 -10.039  -2.589  1.00  0.00    -0.341 OA
BRANCH  10  11
HETATM   11  C   UNL     1      40.509  -9.071  -3.245  1.00  0.00     0.081 A 
HETATM   12  C   UNL     1      39.961  -8.498  -4.404  1.00  0.00    -0.028 A 
HETATM   13  C   UNL     1      40.671  -7.480  -5.056  1.00  0.00     0.016 A 
HETATM   14  C   UNL     1      38.648  -8.966  -4.964  1.00  0.00     0.051 C 
HETATM   15  C   UNL     1      41.888  -7.014  -4.547  1.00  0.00    -0.061 A 
HETATM   16  C   UNL     1      42.643  -5.914  -5.235  1.00  0.00     0.048 C 
HETATM   17  C   UNL     1      42.398  -7.575  -3.369  1.00  0.00     0.016 A 
HETATM   18  C   UNL     1      41.704  -8.588  -2.692  1.00  0.00    -0.028 A 
HETATM   19  C   UNL     1      42.281  -9.143  -1.420  1.00  0.00     0.051 C 
ENDBRANCH  10  11
ENDBRANCH   9  10
ENDBRANCH   6   9
ENDBRANCH   1   5
BRANCH   2  20
HETATM   20  C   UNL     1      40.552 -14.498   1.518  1.00  0.00     0.121 A 
HETATM   21  N   UNL     1      39.798 -14.980   2.549  1.00  0.00    -0.272 N 
HETATM   22  H   UNL     1      38.889 -14.644   2.851  1.00  0.00     0.189 HD
HETATM   23  N   UNL     1      40.368 -15.992   3.218  1.00  0.00    -0.174 NA
HETATM   24  C   UNL     1      41.555 -16.178   2.618  1.00  0.00     0.089 A 
HETATM   25  C   UNL     1      41.692 -15.277   1.523  1.00  0.00     0.071 A 
BRANCH  24  26
HETATM   26  C   UNL     1      42.527 -17.163   3.112  1.00  0.00    -0.006 A 
HETATM   27  C   UNL     1      42.942 -18.242   2.315  1.00  0.00     0.014 A 
HETATM   28  C   UNL     1      43.897 -19.151   2.783  1.00  0.00     0.001 A 
HETATM   29  C   UNL     1      44.450 -18.994   4.052  1.00  0.00     0.000 A 
HETATM   30  C   UNL     1      44.044 -17.933   4.858  1.00  0.00     0.001 A 
HETATM   31  C   UNL     1      43.089 -17.026   4.391  1.00  0.00     0.014 A 
ENDBRANCH  24  26
ENDBRANCH   2  20
TORSDOF 6
ENDMDL
