MODEL 1
REMARK VINA RESULT:      -8.7      0.000      0.000
REMARK  6 active torsions:
REMARK  status: ('A' for Active; 'I' for Inactive)
REMARK    1  A    between atoms: C_3  and  N_4 
REMARK       I    between atoms: N_4  and  C_5 
REMARK    2  A    between atoms: C_5  and  C_6 
REMARK    3  A    between atoms: C_14  and  N_15 
REMARK       I    between atoms: N_15  and  C_16 
REMARK       I    between atoms: C_16  and  N_17 
REMARK    4  A    between atoms: N_17  and  C_18 
REMARK    5  A    between atoms: C_18  and  C_19 
REMARK    6  A    between atoms: C_19  and  N_20 
ROOT
HETATM    1  N   UNL     1      44.444 -10.857   7.191  1.00  0.00    -0.309 N 
HETATM    2  C   UNL     1      44.065 -11.988   6.541  1.00  0.00     0.321 C 
HETATM    3  N   UNL     1      43.486 -12.978   7.284  1.00  0.00    -0.337 N 
HETATM    4  O   UNL     1      44.268 -12.116   5.337  1.00  0.00    -0.247 OA
HETATM    5  H   UNL     1      45.076 -10.294   6.630  1.00  0.00     0.170 HD
HETATM    6  H   UNL     1      43.852 -12.964   8.232  1.00  0.00     0.164 HD
ENDROOT
BRANCH   1   7
HETATM    7  C   UNL     1      44.139 -10.355   8.470  1.00  0.00     0.036 A 
HETATM    8  C   UNL     1      44.974 -10.478   9.575  1.00  0.00     0.032 A 
HETATM    9  C   UNL     1      44.601  -9.938  10.812  1.00  0.00     0.032 A 
HETATM   10  C   UNL     1      43.385  -9.268  10.975  1.00  0.00     0.041 A 
HETATM   11  C   UNL     1      42.512  -9.176   9.874  1.00  0.00    -0.033 A 
HETATM   12  C   UNL     1      41.172  -8.493   9.963  1.00  0.00     0.050 C 
HETATM   13  C   UNL     1      42.897  -9.733   8.637  1.00  0.00     0.038 A 
BRANCH  10  14
HETATM   14  N   UNL     1      43.014  -8.664  12.194  1.00  0.00    -0.321 N 
HETATM   15  C   UNL     1      42.176  -9.152  13.185  1.00  0.00     0.279 C 
HETATM   16  O   UNL     1      41.532 -10.194  13.120  1.00  0.00    -0.265 OA
HETATM   17  H   UNL     1      43.408  -7.754  12.409  1.00  0.00     0.169 HD
BRANCH  15  18
HETATM   18  C   UNL     1      42.127  -8.283  14.347  1.00  0.00     0.142 A 
HETATM   19  O   UNL     1      41.245  -8.568  15.361  1.00  0.00    -0.317 OA
HETATM   20  C   UNL     1      41.383  -7.591  16.295  1.00  0.00     0.143 A 
HETATM   21  C   UNL     1      42.345  -6.688  15.912  1.00  0.00     0.027 A 
HETATM   22  C   UNL     1      42.825  -7.133  14.657  1.00  0.00     0.045 A 
ENDBRANCH  15  18
ENDBRANCH  10  14
ENDBRANCH   1   7
BRANCH   3  23
HETATM   23  C   UNL     1      43.305 -14.317   6.723  1.00  0.00     0.108 C 
HETATM   24  C   UNL     1      43.054 -15.319   7.849  1.00  0.00     0.034 C 
BRANCH  23  25
HETATM   25  C   UNL     1      42.290 -14.443   5.547  1.00  0.00     0.259 C 
BRANCH  25  26
HETATM   26  N   UNL     1      42.780 -14.988   4.214  1.00  0.00    -0.069 N 
HETATM   27  H   UNL     1      43.802 -14.966   4.334  1.00  0.00     0.280 HD
HETATM   28  C   UNL     1      42.438 -16.421   3.916  1.00  0.00     0.239 C 
HETATM   29  C   UNL     1      43.330 -16.917   2.774  1.00  0.00     0.007 C 
HETATM   30  C   UNL     1      43.167 -16.027   1.534  1.00  0.00     0.007 C 
HETATM   31  C   UNL     1      43.010 -18.373   2.441  1.00  0.00     0.011 C 
HETATM   32  C   UNL     1      43.399 -14.554   1.866  1.00  0.00     0.028 C 
HETATM   33  C   UNL     1      42.529 -14.087   3.028  1.00  0.00     0.235 C 
ENDBRANCH  25  26
ENDBRANCH  23  25
ENDBRANCH   3  23
TORSDOF 6
ENDMDL
MODEL 2
REMARK VINA RESULT:      -8.4      2.640     10.963
REMARK  6 active torsions:
REMARK  status: ('A' for Active; 'I' for Inactive)
REMARK    1  A    between atoms: C_3  and  N_4 
REMARK       I    between atoms: N_4  and  C_5 
REMARK    2  A    between atoms: C_5  and  C_6 
REMARK    3  A    between atoms: C_14  and  N_15 
REMARK       I    between atoms: N_15  and  C_16 
REMARK       I    between atoms: C_16  and  N_17 
REMARK    4  A    between atoms: N_17  and  C_18 
REMARK    5  A    between atoms: C_18  and  C_19 
REMARK    6  A    between atoms: C_19  and  N_20 
ROOT
HETATM    1  N   UNL     1      41.625 -11.156   5.756  1.00  0.00    -0.309 N 
HETATM    2  C   UNL     1      42.196 -10.333   6.674  1.00  0.00     0.321 C 
HETATM    3  N   UNL     1      43.045 -10.896   7.585  1.00  0.00    -0.337 N 
HETATM    4  O   UNL     1      41.927  -9.135   6.693  1.00  0.00    -0.247 OA
HETATM    5  H   UNL     1      40.836 -10.715   5.294  1.00  0.00     0.170 HD
HETATM    6  H   UNL     1      42.766 -11.854   7.778  1.00  0.00     0.164 HD
ENDROOT
BRANCH   1   7
HETATM    7  C   UNL     1      41.914 -12.476   5.363  1.00  0.00     0.036 A 
HETATM    8  C   UNL     1      41.683 -13.595   6.157  1.00  0.00     0.032 A 
HETATM    9  C   UNL     1      41.987 -14.877   5.684  1.00  0.00     0.032 A 
HETATM   10  C   UNL     1      42.532 -15.072   4.412  1.00  0.00     0.041 A 
HETATM   11  C   UNL     1      42.810 -13.943   3.616  1.00  0.00    -0.033 A 
HETATM   12  C   UNL     1      43.418 -14.057   2.242  1.00  0.00     0.050 C 
HETATM   13  C   UNL     1      42.507 -12.657   4.109  1.00  0.00     0.038 A 
BRANCH  10  14
HETATM   14  N   UNL     1      42.791 -16.356   3.890  1.00  0.00    -0.321 N 
HETATM   15  C   UNL     1      43.737 -17.284   4.296  1.00  0.00     0.279 C 
HETATM   16  O   UNL     1      44.592 -17.095   5.156  1.00  0.00    -0.265 OA
HETATM   17  H   UNL     1      42.213 -16.678   3.120  1.00  0.00     0.169 HD
BRANCH  15  18
HETATM   18  C   UNL     1      43.623 -18.542   3.582  1.00  0.00     0.142 A 
HETATM   19  O   UNL     1      44.010 -19.705   4.203  1.00  0.00    -0.317 OA
HETATM   20  C   UNL     1      43.830 -20.713   3.311  1.00  0.00     0.143 A 
HETATM   21  C   UNL     1      43.323 -20.229   2.130  1.00  0.00     0.027 A 
HETATM   22  C   UNL     1      43.188 -18.830   2.303  1.00  0.00     0.045 A 
ENDBRANCH  15  18
ENDBRANCH  10  14
ENDBRANCH   1   7
BRANCH   3  23
HETATM   23  C   UNL     1      43.478 -10.141   8.760  1.00  0.00     0.108 C 
HETATM   24  C   UNL     1      44.798  -9.430   8.459  1.00  0.00     0.034 C 
BRANCH  23  25
HETATM   25  C   UNL     1      42.414  -9.211   9.416  1.00  0.00     0.259 C 
BRANCH  25  26
HETATM   26  N   UNL     1      42.237  -9.254  10.926  1.00  0.00    -0.069 N 
HETATM   27  H   UNL     1      42.866 -10.023  11.195  1.00  0.00     0.280 HD
HETATM   28  C   UNL     1      42.721  -8.052  11.687  1.00  0.00     0.239 C 
HETATM   29  C   UNL     1      42.851  -8.421  13.168  1.00  0.00     0.007 C 
HETATM   30  C   UNL     1      41.514  -8.937  13.717  1.00  0.00     0.007 C 
HETATM   31  C   UNL     1      43.340  -7.220  13.976  1.00  0.00     0.011 C 
HETATM   32  C   UNL     1      40.965 -10.084  12.870  1.00  0.00     0.028 C 
HETATM   33  C   UNL     1      40.875  -9.711  11.394  1.00  0.00     0.235 C 
ENDBRANCH  25  26
ENDBRANCH  23  25
ENDBRANCH   3  23
TORSDOF 6
ENDMDL
MODEL 3
REMARK VINA RESULT:      -8.3      2.566      4.329
REMARK  6 active torsions:
REMARK  status: ('A' for Active; 'I' for Inactive)
REMARK    1  A    between atoms: C_3  and  N_4 
REMARK       I    between atoms: N_4  and  C_5 
REMARK    2  A    between atoms: C_5  and  C_6 
REMARK    3  A    between atoms: C_14  and  N_15 
REMARK       I    between atoms: N_15  and  C_16 
REMARK       I    between atoms: C_16  and  N_17 
REMARK    4  A    between atoms: N_17  and  C_18 
REMARK    5  A    between atoms: C_18  and  C_19 
REMARK    6  A    between atoms: C_19  and  N_20 
ROOT
HETATM    1  N   UNL     1      43.306 -12.267   3.573  1.00  0.00    -0.309 N 
HETATM    2  C   UNL     1      42.887 -13.501   3.187  1.00  0.00     0.321 C 
HETATM    3  N   UNL     1      42.563 -14.393   4.170  1.00  0.00    -0.337 N 
HETATM    4  O   UNL     1      42.836 -13.800   1.998  1.00  0.00    -0.247 OA
HETATM    5  H   UNL     1      43.756 -11.767   2.813  1.00  0.00     0.170 HD
HETATM    6  H   UNL     1      43.122 -14.218   5.000  1.00  0.00     0.164 HD
ENDROOT
BRANCH   1   7
HETATM    7  C   UNL     1      43.245 -11.593   4.807  1.00  0.00     0.036 A 
HETATM    8  C   UNL     1      42.114 -10.939   5.284  1.00  0.00     0.032 A 
HETATM    9  C   UNL     1      42.133 -10.302   6.530  1.00  0.00     0.032 A 
HETATM   10  C   UNL     1      43.282 -10.298   7.326  1.00  0.00     0.041 A 
HETATM   11  C   UNL     1      44.447 -10.918   6.834  1.00  0.00    -0.033 A 
HETATM   12  C   UNL     1      45.736 -10.943   7.613  1.00  0.00     0.050 C 
HETATM   13  C   UNL     1      44.415 -11.548   5.573  1.00  0.00     0.038 A 
BRANCH  10  14
HETATM   14  N   UNL     1      43.309  -9.715   8.610  1.00  0.00    -0.321 N 
HETATM   15  C   UNL     1      43.381  -8.374   8.954  1.00  0.00     0.279 C 
HETATM   16  O   UNL     1      43.524  -7.446   8.164  1.00  0.00    -0.265 OA
HETATM   17  H   UNL     1      43.256 -10.336   9.411  1.00  0.00     0.169 HD
BRANCH  15  18
HETATM   18  C   UNL     1      43.274  -8.161  10.385  1.00  0.00     0.142 A 
HETATM   19  O   UNL     1      42.637  -7.037  10.852  1.00  0.00    -0.317 OA
HETATM   20  C   UNL     1      42.707  -7.072  12.208  1.00  0.00     0.143 A 
HETATM   21  C   UNL     1      43.365  -8.203  12.629  1.00  0.00     0.027 A 
HETATM   22  C   UNL     1      43.730  -8.906  11.455  1.00  0.00     0.045 A 
ENDBRANCH  15  18
ENDBRANCH  10  14
ENDBRANCH   1   7
BRANCH   3  23
HETATM   23  C   UNL     1      42.372 -15.808   3.852  1.00  0.00     0.108 C 
HETATM   24  C   UNL     1      40.955 -16.032   3.325  1.00  0.00     0.034 C 
BRANCH  23  25
HETATM   25  C   UNL     1      43.470 -16.474   2.970  1.00  0.00     0.259 C 
BRANCH  25  26
HETATM   26  N   UNL     1      43.714 -17.968   3.111  1.00  0.00    -0.069 N 
HETATM   27  H   UNL     1      44.712 -18.048   2.875  1.00  0.00     0.280 HD
HETATM   28  C   UNL     1      43.579 -18.537   4.496  1.00  0.00     0.239 C 
HETATM   29  C   UNL     1      44.243 -19.916   4.533  1.00  0.00     0.007 C 
HETATM   30  C   UNL     1      43.623 -20.844   3.480  1.00  0.00     0.007 C 
HETATM   31  C   UNL     1      44.124 -20.527   5.928  1.00  0.00     0.011 C 
HETATM   32  C   UNL     1      43.654 -20.213   2.089  1.00  0.00     0.028 C 
HETATM   33  C   UNL     1      43.021 -18.825   2.077  1.00  0.00     0.235 C 
ENDBRANCH  25  26
ENDBRANCH  23  25
ENDBRANCH   3  23
TORSDOF 6
ENDMDL
MODEL 4
REMARK VINA RESULT:      -8.2      1.199      1.953
REMARK  6 active torsions:
REMARK  status: ('A' for Active; 'I' for Inactive)
REMARK    1  A    between atoms: C_3  and  N_4 
REMARK       I    between atoms: N_4  and  C_5 
REMARK    2  A    between atoms: C_5  and  C_6 
REMARK    3  A    between atoms: C_14  and  N_15 
REMARK       I    between atoms: N_15  and  C_16 
REMARK       I    between atoms: C_16  and  N_17 
REMARK    4  A    between atoms: N_17  and  C_18 
REMARK    5  A    between atoms: C_18  and  C_19 
REMARK    6  A    between atoms: C_19  and  N_20 
ROOT
HETATM    1  N   UNL     1      43.414 -11.281   6.271  1.00  0.00    -0.309 N 
HETATM    2  C   UNL     1      43.147 -12.556   5.881  1.00  0.00     0.321 C 
HETATM    3  N   UNL     1      42.830 -13.459   6.856  1.00  0.00    -0.337 N 
HETATM    4  O   UNL     1      43.221 -12.876   4.699  1.00  0.00    -0.247 OA
HETATM    5  H   UNL     1      43.875 -10.752   5.537  1.00  0.00     0.170 HD
HETATM    6  H   UNL     1      43.301 -13.218   7.724  1.00  0.00     0.164 HD
ENDROOT
BRANCH   1   7
HETATM    7  C   UNL     1      43.190 -10.597   7.480  1.00  0.00     0.036 A 
HETATM    8  C   UNL     1      42.051  -9.846   7.751  1.00  0.00     0.032 A 
HETATM    9  C   UNL     1      41.900  -9.205   8.987  1.00  0.00     0.032 A 
HETATM   10  C   UNL     1      42.882  -9.294   9.977  1.00  0.00     0.041 A 
HETATM   11  C   UNL     1      44.059 -10.015   9.696  1.00  0.00    -0.033 A 
HETATM   12  C   UNL     1      45.180 -10.146  10.695  1.00  0.00     0.050 C 
HETATM   13  C   UNL     1      44.202 -10.648   8.444  1.00  0.00     0.038 A 
BRANCH  10  14
HETATM   14  N   UNL     1      42.726  -8.708  11.250  1.00  0.00    -0.321 N 
HETATM   15  C   UNL     1      42.110  -9.229  12.376  1.00  0.00     0.279 C 
HETATM   16  O   UNL     1      41.504 -10.294  12.424  1.00  0.00    -0.265 OA
HETATM   17  H   UNL     1      43.121  -7.784  11.394  1.00  0.00     0.169 HD
BRANCH  15  18
HETATM   18  C   UNL     1      42.250  -8.366  13.535  1.00  0.00     0.142 A 
HETATM   19  O   UNL     1      41.321  -8.439  14.544  1.00  0.00    -0.317 OA
HETATM   20  C   UNL     1      41.668  -7.514  15.475  1.00  0.00     0.143 A 
HETATM   21  C   UNL     1      42.812  -6.853  15.097  1.00  0.00     0.027 A 
HETATM   22  C   UNL     1      43.189  -7.401  13.847  1.00  0.00     0.045 A 
ENDBRANCH  15  18
ENDBRANCH  10  14
ENDBRANCH   1   7
BRANCH   3  23
HETATM   23  C   UNL     1      42.800 -14.891   6.558  1.00  0.00     0.108 C 
HETATM   24  C   UNL     1      43.041 -15.690   7.838  1.00  0.00     0.034 C 
BRANCH  23  25
HETATM   25  C   UNL     1      41.581 -15.401   5.733  1.00  0.00     0.259 C 
BRANCH  25  26
HETATM   26  N   UNL     1      41.802 -15.828   4.290  1.00  0.00    -0.069 N 
HETATM   27  H   UNL     1      41.444 -16.793   4.293  1.00  0.00     0.280 HD
HETATM   28  C   UNL     1      40.996 -15.102   3.250  1.00  0.00     0.239 C 
HETATM   29  C   UNL     1      41.024 -15.908   1.948  1.00  0.00     0.007 C 
HETATM   30  C   UNL     1      42.469 -16.137   1.484  1.00  0.00     0.007 C 
HETATM   31  C   UNL     1      40.215 -15.198   0.864  1.00  0.00     0.011 C 
HETATM   32  C   UNL     1      43.318 -16.769   2.586  1.00  0.00     0.028 C 
HETATM   33  C   UNL     1      43.250 -15.973   3.886  1.00  0.00     0.235 C 
ENDBRANCH  25  26
ENDBRANCH  23  25
ENDBRANCH   3  23
TORSDOF 6
ENDMDL
MODEL 5
REMARK VINA RESULT:      -8.2      3.304      9.793
REMARK  6 active torsions:
REMARK  status: ('A' for Active; 'I' for Inactive)
REMARK    1  A    between atoms: C_3  and  N_4 
REMARK       I    between atoms: N_4  and  C_5 
REMARK    2  A    between atoms: C_5  and  C_6 
REMARK    3  A    between atoms: C_14  and  N_15 
REMARK       I    between atoms: N_15  and  C_16 
REMARK       I    between atoms: C_16  and  N_17 
REMARK    4  A    between atoms: N_17  and  C_18 
REMARK    5  A    between atoms: C_18  and  C_19 
REMARK    6  A    between atoms: C_19  and  N_20 
ROOT
HETATM    1  N   UNL     1      39.310 -10.286   5.852  1.00  0.00    -0.309 N 
HETATM    2  C   UNL     1      39.384  -9.433   6.907  1.00  0.00     0.321 C 
HETATM    3  N   UNL     1      40.018  -9.876   8.034  1.00  0.00    -0.337 N 
HETATM    4  O   UNL     1      38.869  -8.320   6.848  1.00  0.00    -0.247 OA
HETATM    5  H   UNL     1      38.623  -9.982   5.169  1.00  0.00     0.170 HD
HETATM    6  H   UNL     1      39.908 -10.882   8.124  1.00  0.00     0.164 HD
ENDROOT
BRANCH   1   7
HETATM    7  C   UNL     1      39.983 -11.487   5.561  1.00  0.00     0.036 A 
HETATM    8  C   UNL     1      39.627 -12.727   6.080  1.00  0.00     0.032 A 
HETATM    9  C   UNL     1      40.342 -13.878   5.729  1.00  0.00     0.032 A 
HETATM   10  C   UNL     1      41.432 -13.818   4.855  1.00  0.00     0.041 A 
HETATM   11  C   UNL     1      41.829 -12.561   4.358  1.00  0.00    -0.033 A 
HETATM   12  C   UNL     1      43.004 -12.398   3.429  1.00  0.00     0.050 C 
HETATM   13  C   UNL     1      41.104 -11.410   4.728  1.00  0.00     0.038 A 
BRANCH  10  14
HETATM   14  N   UNL     1      42.131 -14.970   4.439  1.00  0.00    -0.321 N 
HETATM   15  C   UNL     1      43.149 -15.649   5.089  1.00  0.00     0.279 C 
HETATM   16  O   UNL     1      43.685 -15.293   6.133  1.00  0.00    -0.265 OA
HETATM   17  H   UNL     1      41.864 -15.389   3.554  1.00  0.00     0.169 HD
BRANCH  15  18
HETATM   18  C   UNL     1      43.541 -16.860   4.391  1.00  0.00     0.142 A 
HETATM   19  O   UNL     1      44.342 -17.775   5.031  1.00  0.00    -0.317 OA
HETATM   20  C   UNL     1      44.578 -18.783   4.152  1.00  0.00     0.143 A 
HETATM   21  C   UNL     1      43.936 -18.546   2.961  1.00  0.00     0.027 A 
HETATM   22  C   UNL     1      43.266 -17.307   3.114  1.00  0.00     0.045 A 
ENDBRANCH  15  18
ENDBRANCH  10  14
ENDBRANCH   1   7
BRANCH   3  23
HETATM   23  C   UNL     1      39.900  -9.136   9.290  1.00  0.00     0.108 C 
HETATM   24  C   UNL     1      39.310 -10.042  10.370  1.00  0.00     0.034 C 
BRANCH  23  25
HETATM   25  C   UNL     1      41.170  -8.363   9.760  1.00  0.00     0.259 C 
BRANCH  25  26
HETATM   26  N   UNL     1      42.483  -9.121   9.880  1.00  0.00    -0.069 N 
HETATM   27  H   UNL     1      42.268 -10.004   9.397  1.00  0.00     0.280 HD
HETATM   28  C   UNL     1      43.658  -8.536   9.149  1.00  0.00     0.239 C 
HETATM   29  C   UNL     1      44.751  -9.602   9.031  1.00  0.00     0.007 C 
HETATM   30  C   UNL     1      45.151 -10.123  10.418  1.00  0.00     0.007 C 
HETATM   31  C   UNL     1      45.965  -9.042   8.293  1.00  0.00     0.011 C 
HETATM   32  C   UNL     1      43.937 -10.609  11.206  1.00  0.00     0.028 C 
HETATM   33  C   UNL     1      42.844  -9.547  11.284  1.00  0.00     0.235 C 
ENDBRANCH  25  26
ENDBRANCH  23  25
ENDBRANCH   3  23
TORSDOF 6
ENDMDL
MODEL 6
REMARK VINA RESULT:      -8.2      1.144      1.481
REMARK  6 active torsions:
REMARK  status: ('A' for Active; 'I' for Inactive)
REMARK    1  A    between atoms: C_3  and  N_4 
REMARK       I    between atoms: N_4  and  C_5 
REMARK    2  A    between atoms: C_5  and  C_6 
REMARK    3  A    between atoms: C_14  and  N_15 
REMARK       I    between atoms: N_15  and  C_16 
REMARK       I    between atoms: C_16  and  N_17 
REMARK    4  A    between atoms: N_17  and  C_18 
REMARK    5  A    between atoms: C_18  and  C_19 
REMARK    6  A    between atoms: C_19  and  N_20 
ROOT
HETATM    1  N   UNL     1      44.915 -10.568   7.649  1.00  0.00    -0.309 N 
HETATM    2  C   UNL     1      44.489 -11.558   6.820  1.00  0.00     0.321 C 
HETATM    3  N   UNL     1      43.630 -12.486   7.337  1.00  0.00    -0.337 N 
HETATM    4  O   UNL     1      44.891 -11.621   5.663  1.00  0.00    -0.247 OA
HETATM    5  H   UNL     1      45.723 -10.084   7.271  1.00  0.00     0.170 HD
HETATM    6  H   UNL     1      43.809 -12.615   8.329  1.00  0.00     0.164 HD
ENDROOT
BRANCH   1   7
HETATM    7  C   UNL     1      44.460 -10.127   8.905  1.00  0.00     0.036 A 
HETATM    8  C   UNL     1      44.492 -10.899  10.062  1.00  0.00     0.032 A 
HETATM    9  C   UNL     1      44.031 -10.379  11.277  1.00  0.00     0.032 A 
HETATM   10  C   UNL     1      43.523  -9.079  11.365  1.00  0.00     0.041 A 
HETATM   11  C   UNL     1      43.445  -8.304  10.191  1.00  0.00    -0.033 A 
HETATM   12  C   UNL     1      42.891  -6.903  10.188  1.00  0.00     0.050 C 
HETATM   13  C   UNL     1      43.905  -8.845   8.973  1.00  0.00     0.038 A 
BRANCH  10  14
HETATM   14  N   UNL     1      43.108  -8.512  12.588  1.00  0.00    -0.321 N 
HETATM   15  C   UNL     1      41.960  -8.771  13.319  1.00  0.00     0.279 C 
HETATM   16  O   UNL     1      41.042  -9.504  12.964  1.00  0.00    -0.265 OA
HETATM   17  H   UNL     1      43.719  -7.828  13.021  1.00  0.00     0.169 HD
BRANCH  15  18
HETATM   18  C   UNL     1      41.939  -8.066  14.588  1.00  0.00     0.142 A 
HETATM   19  O   UNL     1      41.030  -8.436  15.548  1.00  0.00    -0.317 OA
HETATM   20  C   UNL     1      41.205  -7.604  16.607  1.00  0.00     0.143 A 
HETATM   21  C   UNL     1      42.220  -6.711  16.357  1.00  0.00     0.027 A 
HETATM   22  C   UNL     1      42.694  -7.008  15.056  1.00  0.00     0.045 A 
ENDBRANCH  15  18
ENDBRANCH  10  14
ENDBRANCH   1   7
BRANCH   3  23
HETATM   23  C   UNL     1      43.345 -13.721   6.606  1.00  0.00     0.108 C 
HETATM   24  C   UNL     1      43.103 -14.862   7.593  1.00  0.00     0.034 C 
BRANCH  23  25
HETATM   25  C   UNL     1      42.261 -13.630   5.490  1.00  0.00     0.259 C 
BRANCH  25  26
HETATM   26  N   UNL     1      42.054 -14.827   4.575  1.00  0.00    -0.069 N 
HETATM   27  H   UNL     1      41.516 -15.467   5.174  1.00  0.00     0.280 HD
HETATM   28  C   UNL     1      41.197 -14.596   3.361  1.00  0.00     0.239 C 
HETATM   29  C   UNL     1      40.760 -15.950   2.796  1.00  0.00     0.007 C 
HETATM   30  C   UNL     1      41.982 -16.819   2.468  1.00  0.00     0.007 C 
HETATM   31  C   UNL     1      39.887 -15.755   1.558  1.00  0.00     0.011 C 
HETATM   32  C   UNL     1      42.913 -16.956   3.671  1.00  0.00     0.028 C 
HETATM   33  C   UNL     1      43.310 -15.598   4.243  1.00  0.00     0.235 C 
ENDBRANCH  25  26
ENDBRANCH  23  25
ENDBRANCH   3  23
TORSDOF 6
ENDMDL
MODEL 7
REMARK VINA RESULT:      -8.1      1.724      2.164
REMARK  6 active torsions:
REMARK  status: ('A' for Active; 'I' for Inactive)
REMARK    1  A    between atoms: C_3  and  N_4 
REMARK       I    between atoms: N_4  and  C_5 
REMARK    2  A    between atoms: C_5  and  C_6 
REMARK    3  A    between atoms: C_14  and  N_15 
REMARK       I    between atoms: N_15  and  C_16 
REMARK       I    between atoms: C_16  and  N_17 
REMARK    4  A    between atoms: N_17  and  C_18 
REMARK    5  A    between atoms: C_18  and  C_19 
REMARK    6  A    between atoms: C_19  and  N_20 
ROOT
HETATM    1  N   UNL     1      44.285 -10.827   7.419  1.00  0.00    -0.309 N 
HETATM    2  C   UNL     1      44.179 -12.019   6.775  1.00  0.00     0.321 C 
HETATM    3  N   UNL     1      43.172 -12.857   7.162  1.00  0.00    -0.337 N 
HETATM    4  O   UNL     1      44.983 -12.331   5.902  1.00  0.00    -0.247 OA
HETATM    5  H   UNL     1      45.185 -10.388   7.252  1.00  0.00     0.170 HD
HETATM    6  H   UNL     1      42.965 -12.725   8.148  1.00  0.00     0.164 HD
ENDROOT
BRANCH   1   7
HETATM    7  C   UNL     1      43.403 -10.129   8.265  1.00  0.00     0.036 A 
HETATM    8  C   UNL     1      42.160  -9.647   7.869  1.00  0.00     0.032 A 
HETATM    9  C   UNL     1      41.336  -8.973   8.778  1.00  0.00     0.032 A 
HETATM   10  C   UNL     1      41.735  -8.759  10.100  1.00  0.00     0.041 A 
HETATM   11  C   UNL     1      43.010  -9.204  10.500  1.00  0.00    -0.033 A 
HETATM   12  C   UNL     1      43.532  -8.997  11.898  1.00  0.00     0.050 C 
HETATM   13  C   UNL     1      43.833  -9.873   9.571  1.00  0.00     0.038 A 
BRANCH  10  14
HETATM   14  N   UNL     1      40.899  -8.136  11.050  1.00  0.00    -0.321 N 
HETATM   15  C   UNL     1      39.917  -8.702  11.847  1.00  0.00     0.279 C 
HETATM   16  O   UNL     1      39.546  -9.870  11.792  1.00  0.00    -0.265 OA
HETATM   17  H   UNL     1      41.019  -7.140  11.201  1.00  0.00     0.169 HD
BRANCH  15  18
HETATM   18  C   UNL     1      39.346  -7.752  12.783  1.00  0.00     0.142 A 
HETATM   19  O   UNL     1      40.112  -7.292  13.826  1.00  0.00    -0.317 OA
HETATM   20  C   UNL     1      39.333  -6.452  14.555  1.00  0.00     0.143 A 
HETATM   21  C   UNL     1      38.081  -6.348  13.997  1.00  0.00     0.027 A 
HETATM   22  C   UNL     1      38.088  -7.185  12.854  1.00  0.00     0.045 A 
ENDBRANCH  15  18
ENDBRANCH  10  14
ENDBRANCH   1   7
BRANCH   3  23
HETATM   23  C   UNL     1      43.157 -14.251   6.719  1.00  0.00     0.108 C 
HETATM   24  C   UNL     1      43.043 -15.176   7.930  1.00  0.00     0.034 C 
BRANCH  23  25
HETATM   25  C   UNL     1      42.156 -14.605   5.578  1.00  0.00     0.259 C 
BRANCH  25  26
HETATM   26  N   UNL     1      42.708 -15.104   4.251  1.00  0.00    -0.069 N 
HETATM   27  H   UNL     1      43.723 -15.088   4.420  1.00  0.00     0.280 HD
HETATM   28  C   UNL     1      42.381 -16.525   3.887  1.00  0.00     0.239 C 
HETATM   29  C   UNL     1      43.326 -16.982   2.772  1.00  0.00     0.007 C 
HETATM   30  C   UNL     1      43.221 -16.049   1.557  1.00  0.00     0.007 C 
HETATM   31  C   UNL     1      43.021 -18.425   2.373  1.00  0.00     0.011 C 
HETATM   32  C   UNL     1      43.437 -14.589   1.951  1.00  0.00     0.028 C 
HETATM   33  C   UNL     1      42.513 -14.161   3.087  1.00  0.00     0.235 C 
ENDBRANCH  25  26
ENDBRANCH  23  25
ENDBRANCH   3  23
TORSDOF 6
ENDMDL
MODEL 8
REMARK VINA RESULT:      -8.1      2.038      3.156
REMARK  6 active torsions:
REMARK  status: ('A' for Active; 'I' for Inactive)
REMARK    1  A    between atoms: C_3  and  N_4 
REMARK       I    between atoms: N_4  and  C_5 
REMARK    2  A    between atoms: C_5  and  C_6 
REMARK    3  A    between atoms: C_14  and  N_15 
REMARK       I    between atoms: N_15  and  C_16 
REMARK       I    between atoms: C_16  and  N_17 
REMARK    4  A    between atoms: N_17  and  C_18 
REMARK    5  A    between atoms: C_18  and  C_19 
REMARK    6  A    between atoms: C_19  and  N_20 
ROOT
HETATM    1  N   UNL     1      43.515 -11.625   4.402  1.00  0.00    -0.309 N 
HETATM    2  C   UNL     1      42.816 -12.531   3.668  1.00  0.00     0.321 C 
HETATM    3  N   UNL     1      42.038 -13.426   4.348  1.00  0.00    -0.337 N 
HETATM    4  O   UNL     1      42.914 -12.554   2.445  1.00  0.00    -0.247 OA
HETATM    5  H   UNL     1      44.242 -11.177   3.853  1.00  0.00     0.170 HD
HETATM    6  H   UNL     1      42.445 -13.625   5.257  1.00  0.00     0.164 HD
ENDROOT
BRANCH   1   7
HETATM    7  C   UNL     1      43.423 -11.227   5.749  1.00  0.00     0.036 A 
HETATM    8  C   UNL     1      44.358 -11.555   6.725  1.00  0.00     0.032 A 
HETATM    9  C   UNL     1      44.198 -11.108   8.042  1.00  0.00     0.032 A 
HETATM   10  C   UNL     1      43.099 -10.328   8.416  1.00  0.00     0.041 A 
HETATM   11  C   UNL     1      42.124 -10.027   7.445  1.00  0.00    -0.033 A 
HETATM   12  C   UNL     1      40.897  -9.213   7.764  1.00  0.00     0.050 C 
HETATM   13  C   UNL     1      42.294 -10.492   6.125  1.00  0.00     0.038 A 
BRANCH  10  14
HETATM   14  N   UNL     1      42.947  -9.816   9.721  1.00  0.00    -0.321 N 
HETATM   15  C   UNL     1      43.382 -10.354  10.921  1.00  0.00     0.279 C 
HETATM   16  O   UNL     1      43.920 -11.449  11.054  1.00  0.00    -0.265 OA
HETATM   17  H   UNL     1      42.468  -8.927   9.825  1.00  0.00     0.169 HD
BRANCH  15  18
HETATM   18  C   UNL     1      43.131  -9.473  12.048  1.00  0.00     0.142 A 
HETATM   19  O   UNL     1      42.298  -9.894  13.056  1.00  0.00    -0.317 OA
HETATM   20  C   UNL     1      42.214  -8.878  13.954  1.00  0.00     0.143 A 
HETATM   21  C   UNL     1      42.987  -7.814  13.554  1.00  0.00     0.027 A 
HETATM   22  C   UNL     1      43.579  -8.197  12.326  1.00  0.00     0.045 A 
ENDBRANCH  15  18
ENDBRANCH  10  14
ENDBRANCH   1   7
BRANCH   3  23
HETATM   23  C   UNL     1      41.480 -14.592   3.662  1.00  0.00     0.108 C 
HETATM   24  C   UNL     1      40.229 -14.183   2.884  1.00  0.00     0.034 C 
BRANCH  23  25
HETATM   25  C   UNL     1      42.478 -15.443   2.821  1.00  0.00     0.259 C 
BRANCH  25  26
HETATM   26  N   UNL     1      42.888 -16.813   3.341  1.00  0.00    -0.069 N 
HETATM   27  H   UNL     1      41.999 -17.180   3.708  1.00  0.00     0.280 HD
HETATM   28  C   UNL     1      43.340 -17.808   2.309  1.00  0.00     0.239 C 
HETATM   29  C   UNL     1      43.313 -19.209   2.926  1.00  0.00     0.007 C 
HETATM   30  C   UNL     1      44.189 -19.264   4.185  1.00  0.00     0.007 C 
HETATM   31  C   UNL     1      43.770 -20.250   1.905  1.00  0.00     0.011 C 
HETATM   32  C   UNL     1      43.804 -18.174   5.183  1.00  0.00     0.028 C 
HETATM   33  C   UNL     1      43.801 -16.788   4.544  1.00  0.00     0.235 C 
ENDBRANCH  25  26
ENDBRANCH  23  25
ENDBRANCH   3  23
TORSDOF 6
ENDMDL
MODEL 9
REMARK VINA RESULT:      -8.0      2.788     10.324
REMARK  6 active torsions:
REMARK  status: ('A' for Active; 'I' for Inactive)
REMARK    1  A    between atoms: C_3  and  N_4 
REMARK       I    between atoms: N_4  and  C_5 
REMARK    2  A    between atoms: C_5  and  C_6 
REMARK    3  A    between atoms: C_14  and  N_15 
REMARK       I    between atoms: N_15  and  C_16 
REMARK       I    between atoms: C_16  and  N_17 
REMARK    4  A    between atoms: N_17  and  C_18 
REMARK    5  A    between atoms: C_18  and  C_19 
REMARK    6  A    between atoms: C_19  and  N_20 
ROOT
HETATM    1  N   UNL     1      42.270  -9.612   6.954  1.00  0.00    -0.309 N 
HETATM    2  C   UNL     1      41.801  -8.989   8.067  1.00  0.00     0.321 C 
HETATM    3  N   UNL     1      41.352  -9.777   9.089  1.00  0.00    -0.337 N 
HETATM    4  O   UNL     1      41.759  -7.764   8.127  1.00  0.00    -0.247 OA
HETATM    5  H   UNL     1      42.344  -8.973   6.168  1.00  0.00     0.170 HD
HETATM    6  H   UNL     1      40.970 -10.644   8.720  1.00  0.00     0.164 HD
ENDROOT
BRANCH   1   7
HETATM    7  C   UNL     1      42.639 -10.946   6.704  1.00  0.00     0.036 A 
HETATM    8  C   UNL     1      43.889 -11.479   7.003  1.00  0.00     0.032 A 
HETATM    9  C   UNL     1      44.172 -12.823   6.733  1.00  0.00     0.032 A 
HETATM   10  C   UNL     1      43.217 -13.665   6.154  1.00  0.00     0.041 A 
HETATM   11  C   UNL     1      41.964 -13.125   5.807  1.00  0.00    -0.033 A 
HETATM   12  C   UNL     1      40.883 -13.951   5.159  1.00  0.00     0.050 C 
HETATM   13  C   UNL     1      41.696 -11.767   6.076  1.00  0.00     0.038 A 
BRANCH  10  14
HETATM   14  N   UNL     1      43.458 -15.036   5.927  1.00  0.00    -0.321 N 
HETATM   15  C   UNL     1      43.414 -16.086   6.831  1.00  0.00     0.279 C 
HETATM   16  O   UNL     1      43.233 -15.975   8.039  1.00  0.00    -0.265 OA
HETATM   17  H   UNL     1      43.683 -15.325   4.981  1.00  0.00     0.169 HD
BRANCH  15  18
HETATM   18  C   UNL     1      43.613 -17.375   6.193  1.00  0.00     0.142 A 
HETATM   19  O   UNL     1      43.271 -18.520   6.871  1.00  0.00    -0.317 OA
HETATM   20  C   UNL     1      43.587 -19.568   6.068  1.00  0.00     0.143 A 
HETATM   21  C   UNL     1      44.114 -19.125   4.879  1.00  0.00     0.027 A 
HETATM   22  C   UNL     1      44.130 -17.712   4.958  1.00  0.00     0.045 A 
ENDBRANCH  15  18
ENDBRANCH  10  14
ENDBRANCH   1   7
BRANCH   3  23
HETATM   23  C   UNL     1      40.586  -9.196  10.191  1.00  0.00     0.108 C 
HETATM   24  C   UNL     1      39.092  -9.260   9.873  1.00  0.00     0.034 C 
BRANCH  23  25
HETATM   25  C   UNL     1      40.934  -9.708  11.622  1.00  0.00     0.259 C 
BRANCH  25  26
HETATM   26  N   UNL     1      41.482  -8.719  12.638  1.00  0.00    -0.069 N 
HETATM   27  H   UNL     1      41.027  -7.841  12.354  1.00  0.00     0.280 HD
HETATM   28  C   UNL     1      41.075  -8.940  14.068  1.00  0.00     0.239 C 
HETATM   29  C   UNL     1      41.356  -7.665  14.867  1.00  0.00     0.007 C 
HETATM   30  C   UNL     1      42.835  -7.271  14.756  1.00  0.00     0.007 C 
HETATM   31  C   UNL     1      40.956  -7.852  16.330  1.00  0.00     0.011 C 
HETATM   32  C   UNL     1      43.278  -7.162  13.298  1.00  0.00     0.028 C 
HETATM   33  C   UNL     1      42.959  -8.427  12.508  1.00  0.00     0.235 C 
ENDBRANCH  25  26
ENDBRANCH  23  25
ENDBRANCH   3  23
TORSDOF 6
ENDMDL
MODEL 10
REMARK VINA RESULT:      -7.7      7.956     10.631
REMARK  6 active torsions:
REMARK  status: ('A' for Active; 'I' for Inactive)
REMARK    1  A    between atoms: C_3  and  N_4 
REMARK       I    between atoms: N_4  and  C_5 
REMARK    2  A    between atoms: C_5  and  C_6 
REMARK    3  A    between atoms: C_14  and  N_15 
REMARK       I    between atoms: N_15  and  C_16 
REMARK       I    between atoms: C_16  and  N_17 
REMARK    4  A    between atoms: N_17  and  C_18 
REMARK    5  A    between atoms: C_18  and  C_19 
REMARK    6  A    between atoms: C_19  and  N_20 
ROOT
HETATM    1  N   UNL     1      40.816 -10.765   2.361  1.00  0.00    -0.309 N 
HETATM    2  C   UNL     1      40.576 -10.071   1.217  1.00  0.00     0.321 C 
HETATM    3  N   UNL     1      41.125 -10.552   0.062  1.00  0.00    -0.337 N 
HETATM    4  O   UNL     1      39.916  -9.037   1.239  1.00  0.00    -0.247 OA
HETATM    5  H   UNL     1      40.592 -10.218   3.186  1.00  0.00     0.170 HD
HETATM    6  H   UNL     1      41.998 -11.032   0.262  1.00  0.00     0.164 HD
ENDROOT
BRANCH   1   7
HETATM    7  C   UNL     1      41.322 -12.057   2.593  1.00  0.00     0.036 A 
HETATM    8  C   UNL     1      42.626 -12.324   2.996  1.00  0.00     0.032 A 
HETATM    9  C   UNL     1      43.046 -13.641   3.219  1.00  0.00     0.032 A 
HETATM   10  C   UNL     1      42.177 -14.721   3.040  1.00  0.00     0.041 A 
HETATM   11  C   UNL     1      40.867 -14.466   2.590  1.00  0.00    -0.033 A 
HETATM   12  C   UNL     1      39.870 -15.569   2.349  1.00  0.00     0.050 C 
HETATM   13  C   UNL     1      40.461 -13.135   2.361  1.00  0.00     0.038 A 
BRANCH  10  14
HETATM   14  N   UNL     1      42.559 -16.050   3.315  1.00  0.00    -0.321 N 
HETATM   15  C   UNL     1      43.198 -16.959   2.486  1.00  0.00     0.279 C 
HETATM   16  O   UNL     1      43.469 -16.773   1.304  1.00  0.00    -0.265 OA
HETATM   17  H   UNL     1      42.365 -16.414   4.242  1.00  0.00     0.169 HD
BRANCH  15  18
HETATM   18  C   UNL     1      43.523 -18.199   3.168  1.00  0.00     0.142 A 
HETATM   19  O   UNL     1      43.898 -18.161   4.489  1.00  0.00    -0.317 OA
HETATM   20  C   UNL     1      44.172 -19.437   4.864  1.00  0.00     0.143 A 
HETATM   21  C   UNL     1      43.969 -20.302   3.816  1.00  0.00     0.027 A 
HETATM   22  C   UNL     1      43.549 -19.506   2.723  1.00  0.00     0.045 A 
ENDBRANCH  15  18
ENDBRANCH  10  14
ENDBRANCH   1   7
BRANCH   3  23
HETATM   23  C   UNL     1      41.147  -9.728  -1.147  1.00  0.00     0.108 C 
HETATM   24  C   UNL     1      42.385  -8.831  -1.137  1.00  0.00     0.034 C 
BRANCH  23  25
HETATM   25  C   UNL     1      40.938 -10.476  -2.498  1.00  0.00     0.259 C 
BRANCH  25  26
HETATM   26  N   UNL     1      39.697 -11.337  -2.672  1.00  0.00    -0.069 N 
HETATM   27  H   UNL     1      39.527 -11.270  -3.685  1.00  0.00     0.280 HD
HETATM   28  C   UNL     1      39.861 -12.804  -2.387  1.00  0.00     0.239 C 
HETATM   29  C   UNL     1      38.677 -13.563  -2.993  1.00  0.00     0.007 C 
HETATM   30  C   UNL     1      37.349 -13.025  -2.441  1.00  0.00     0.007 C 
HETATM   31  C   UNL     1      38.808 -15.060  -2.721  1.00  0.00     0.011 C 
HETATM   32  C   UNL     1      37.237 -11.513  -2.626  1.00  0.00     0.028 C 
HETATM   33  C   UNL     1      38.441 -10.775  -2.048  1.00  0.00     0.235 C 
ENDBRANCH  25  26
ENDBRANCH  23  25
ENDBRANCH   3  23
TORSDOF 6
ENDMDL
