MODEL 1
REMARK VINA RESULT:      -9.3      0.000      0.000
REMARK  5 active torsions:
REMARK  status: ('A' for Active; 'I' for Inactive)
REMARK    1  A    between atoms: C_5  and  C_6 
REMARK    2  A    between atoms: C_11  and  C_12 
REMARK       I    between atoms: C_12  and  N_13 
REMARK    3  A    between atoms: N_13  and  C_14 
REMARK    4  A    between atoms: C_16  and  O_17 
REMARK    5  A    between atoms: C_23  and  C_24 
ROOT
HETATM    1  C   UNL     1      39.791 -15.051   2.051  1.00  0.00     0.118 C 
HETATM    2  N   UNL     1      39.850 -14.190   3.227  1.00  0.00    -0.366 N 
HETATM    3  C   UNL     1      40.923 -14.165   4.045  1.00  0.00     0.123 A 
HETATM    4  N   UNL     1      41.941 -15.070   3.929  1.00  0.00    -0.240 N 
HETATM    5  N   UNL     1      42.896 -14.939   4.871  1.00  0.00    -0.165 NA
HETATM    6  C   UNL     1      42.513 -13.836   5.556  1.00  0.00     0.148 A 
HETATM    7  C   UNL     1      41.271 -13.338   5.077  1.00  0.00     0.089 A 
HETATM    8  C   UNL     1      42.003 -16.105   2.915  1.00  0.00     0.221 C 
HETATM    9  C   UNL     1      40.619 -16.329   2.274  1.00  0.00     0.066 C 
HETATM   10  H   UNL     1      39.184 -13.418   3.226  1.00  0.00     0.161 HD
ENDROOT
BRANCH   6  11
HETATM   11  C   UNL     1      43.323 -13.265   6.647  1.00  0.00     0.276 C 
HETATM   12  N   UNL     1      43.721 -11.972   6.373  1.00  0.00    -0.322 N 
HETATM   13  H   UNL     1      43.427 -11.643   5.456  1.00  0.00     0.169 HD
HETATM   14  O   UNL     1      43.581 -13.913   7.656  1.00  0.00    -0.266 OA
BRANCH  12  15
HETATM   15  C   UNL     1      44.452 -11.093   7.192  1.00  0.00     0.037 A 
HETATM   16  C   UNL     1      45.792 -10.765   6.973  1.00  0.00     0.066 A 
HETATM   17  C   UNL     1      46.444  -9.895   7.847  1.00  0.00     0.067 A 
HETATM   18  C   UNL     1      45.781  -9.340   8.934  1.00  0.00     0.036 A 
HETATM   19  C   UNL     1      44.445  -9.661   9.157  1.00  0.00     0.005 A 
HETATM   20  C   UNL     1      43.785 -10.538   8.292  1.00  0.00     0.029 A 
BRANCH  17  21
HETATM   21  O   UNL     1      47.757  -9.566   7.669  1.00  0.00    -0.361 OA
HETATM   22  H   UNL     1      47.979  -8.854   8.291  1.00  0.00     0.217 HD
ENDBRANCH  17  21
ENDBRANCH  12  15
ENDBRANCH   6  11
BRANCH   8  23
HETATM   23  C   UNL     1      43.096 -15.797   1.916  1.00  0.00     0.409 C 
HETATM   24  F   UNL     1      43.507 -14.517   1.929  1.00  0.00    -0.169 F 
HETATM   25  F   UNL     1      44.188 -16.574   2.114  1.00  0.00    -0.169 F 
HETATM   26  F   UNL     1      42.667 -16.070   0.656  1.00  0.00    -0.169 F 
ENDBRANCH   8  23
BRANCH   1  27
HETATM   27  C   UNL     1      40.082 -14.306   0.761  1.00  0.00    -0.035 A 
HETATM   28  C   UNL     1      40.701 -13.047   0.724  1.00  0.00     0.010 A 
HETATM   29  C   UNL     1      40.923 -12.386  -0.487  1.00  0.00     0.007 A 
HETATM   30  C   UNL     1      40.520 -12.960  -1.695  1.00  0.00    -0.062 A 
HETATM   31  C   UNL     1      40.746 -12.254  -2.998  1.00  0.00     0.048 C 
HETATM   32  C   UNL     1      39.899 -14.212  -1.672  1.00  0.00     0.007 A 
HETATM   33  C   UNL     1      39.684 -14.876  -0.461  1.00  0.00     0.010 A 
ENDBRANCH   1  27
TORSDOF 5
ENDMDL
MODEL 2
REMARK VINA RESULT:      -9.1      3.190      4.754
REMARK  5 active torsions:
REMARK  status: ('A' for Active; 'I' for Inactive)
REMARK    1  A    between atoms: C_5  and  C_6 
REMARK    2  A    between atoms: C_11  and  C_12 
REMARK       I    between atoms: C_12  and  N_13 
REMARK    3  A    between atoms: N_13  and  C_14 
REMARK    4  A    between atoms: C_16  and  O_17 
REMARK    5  A    between atoms: C_23  and  C_24 
ROOT
HETATM    1  C   UNL     1      42.192 -14.774   2.939  1.00  0.00     0.118 C 
HETATM    2  N   UNL     1      43.183 -13.813   3.411  1.00  0.00    -0.366 N 
HETATM    3  C   UNL     1      43.096 -13.231   4.625  1.00  0.00     0.123 A 
HETATM    4  N   UNL     1      41.987 -13.363   5.412  1.00  0.00    -0.240 N 
HETATM    5  N   UNL     1      42.047 -12.659   6.559  1.00  0.00    -0.165 NA
HETATM    6  C   UNL     1      43.295 -12.134   6.542  1.00  0.00     0.148 A 
HETATM    7  C   UNL     1      43.972 -12.456   5.335  1.00  0.00     0.089 A 
HETATM    8  C   UNL     1      40.826 -14.157   5.061  1.00  0.00     0.221 C 
HETATM    9  C   UNL     1      40.812 -14.473   3.553  1.00  0.00     0.066 C 
HETATM   10  H   UNL     1      44.072 -13.835   2.910  1.00  0.00     0.161 HD
ENDROOT
BRANCH   6  11
HETATM   11  C   UNL     1      43.832 -11.341   7.663  1.00  0.00     0.276 C 
HETATM   12  N   UNL     1      42.865 -10.544   8.242  1.00  0.00    -0.322 N 
HETATM   13  H   UNL     1      41.960 -10.602   7.779  1.00  0.00     0.169 HD
HETATM   14  O   UNL     1      45.009 -11.424   7.996  1.00  0.00    -0.266 OA
BRANCH  12  15
HETATM   15  C   UNL     1      42.987  -9.698   9.359  1.00  0.00     0.037 A 
HETATM   16  C   UNL     1      42.845  -8.310   9.299  1.00  0.00     0.066 A 
HETATM   17  C   UNL     1      42.998  -7.547  10.456  1.00  0.00     0.067 A 
HETATM   18  C   UNL     1      43.283  -8.145  11.677  1.00  0.00     0.036 A 
HETATM   19  C   UNL     1      43.424  -9.528  11.745  1.00  0.00     0.005 A 
HETATM   20  C   UNL     1      43.281 -10.301  10.589  1.00  0.00     0.029 A 
BRANCH  17  21
HETATM   21  O   UNL     1      42.880  -6.188  10.427  1.00  0.00    -0.361 OA
HETATM   22  H   UNL     1      43.340  -5.858   9.636  1.00  0.00     0.217 HD
ENDBRANCH  17  21
ENDBRANCH  12  15
ENDBRANCH   6  11
BRANCH   8  23
HETATM   23  C   UNL     1      40.741 -15.383   5.943  1.00  0.00     0.409 C 
HETATM   24  F   UNL     1      41.886 -15.677   6.584  1.00  0.00    -0.169 F 
HETATM   25  F   UNL     1      39.773 -15.259   6.882  1.00  0.00    -0.169 F 
HETATM   26  F   UNL     1      40.405 -16.470   5.200  1.00  0.00    -0.169 F 
ENDBRANCH   8  23
BRANCH   1  27
HETATM   27  C   UNL     1      42.659 -16.212   3.066  1.00  0.00    -0.035 A 
HETATM   28  C   UNL     1      43.575 -16.639   4.040  1.00  0.00     0.010 A 
HETATM   29  C   UNL     1      43.999 -17.970   4.100  1.00  0.00     0.007 A 
HETATM   30  C   UNL     1      43.527 -18.908   3.180  1.00  0.00    -0.062 A 
HETATM   31  C   UNL     1      43.982 -20.336   3.232  1.00  0.00     0.048 C 
HETATM   32  C   UNL     1      42.617 -18.496   2.203  1.00  0.00     0.007 A 
HETATM   33  C   UNL     1      42.188 -17.166   2.147  1.00  0.00     0.010 A 
ENDBRANCH   1  27
TORSDOF 5
ENDMDL
MODEL 3
REMARK VINA RESULT:      -9.1      3.201      5.179
REMARK  5 active torsions:
REMARK  status: ('A' for Active; 'I' for Inactive)
REMARK    1  A    between atoms: C_5  and  C_6 
REMARK    2  A    between atoms: C_11  and  C_12 
REMARK       I    between atoms: C_12  and  N_13 
REMARK    3  A    between atoms: N_13  and  C_14 
REMARK    4  A    between atoms: C_16  and  O_17 
REMARK    5  A    between atoms: C_23  and  C_24 
ROOT
HETATM    1  C   UNL     1      43.117 -12.491   3.044  1.00  0.00     0.118 C 
HETATM    2  N   UNL     1      44.095 -12.017   4.017  1.00  0.00    -0.366 N 
HETATM    3  C   UNL     1      43.739 -11.629   5.260  1.00  0.00     0.123 A 
HETATM    4  N   UNL     1      42.430 -11.482   5.624  1.00  0.00    -0.240 N 
HETATM    5  N   UNL     1      42.263 -11.022   6.879  1.00  0.00    -0.165 NA
HETATM    6  C   UNL     1      43.525 -10.968   7.366  1.00  0.00     0.148 A 
HETATM    7  C   UNL     1      44.476 -11.323   6.371  1.00  0.00     0.089 A 
HETATM    8  C   UNL     1      41.304 -11.760   4.754  1.00  0.00     0.221 C 
HETATM    9  C   UNL     1      41.750 -11.823   3.281  1.00  0.00     0.066 C 
HETATM   10  H   UNL     1      45.061 -12.273   3.812  1.00  0.00     0.161 HD
ENDROOT
BRANCH   6  11
HETATM   11  C   UNL     1      43.817 -10.589   8.760  1.00  0.00     0.276 C 
HETATM   12  N   UNL     1      42.734  -9.987   9.369  1.00  0.00    -0.322 N 
HETATM   13  H   UNL     1      41.935  -9.869   8.750  1.00  0.00     0.169 HD
HETATM   14  O   UNL     1      44.913 -10.808   9.265  1.00  0.00    -0.266 OA
BRANCH  12  15
HETATM   15  C   UNL     1      42.617  -9.544  10.699  1.00  0.00     0.037 A 
HETATM   16  C   UNL     1      41.582  -9.928  11.554  1.00  0.00     0.066 A 
HETATM   17  C   UNL     1      41.535  -9.426  12.855  1.00  0.00     0.067 A 
HETATM   18  C   UNL     1      42.509  -8.553  13.322  1.00  0.00     0.036 A 
HETATM   19  C   UNL     1      43.546  -8.168  12.476  1.00  0.00     0.005 A 
HETATM   20  C   UNL     1      43.596  -8.658  11.168  1.00  0.00     0.029 A 
BRANCH  17  21
HETATM   21  O   UNL     1      40.529  -9.770  13.710  1.00  0.00    -0.361 OA
HETATM   22  H   UNL     1      39.691  -9.756  13.216  1.00  0.00     0.217 HD
ENDBRANCH  17  21
ENDBRANCH  12  15
ENDBRANCH   6  11
BRANCH   8  23
HETATM   23  C   UNL     1      40.570 -12.996   5.224  1.00  0.00     0.409 C 
HETATM   24  F   UNL     1      41.308 -13.811   5.999  1.00  0.00    -0.169 F 
HETATM   25  F   UNL     1      39.452 -12.681   5.920  1.00  0.00    -0.169 F 
HETATM   26  F   UNL     1      40.152 -13.725   4.156  1.00  0.00    -0.169 F 
ENDBRANCH   8  23
BRANCH   1  27
HETATM   27  C   UNL     1      43.089 -14.004   2.925  1.00  0.00    -0.035 A 
HETATM   28  C   UNL     1      43.292 -14.863   4.016  1.00  0.00     0.010 A 
HETATM   29  C   UNL     1      43.285 -16.252   3.854  1.00  0.00     0.007 A 
HETATM   30  C   UNL     1      43.087 -16.818   2.594  1.00  0.00    -0.062 A 
HETATM   31  C   UNL     1      43.087 -18.307   2.409  1.00  0.00     0.048 C 
HETATM   32  C   UNL     1      42.887 -15.975   1.498  1.00  0.00     0.007 A 
HETATM   33  C   UNL     1      42.886 -14.586   1.662  1.00  0.00     0.010 A 
ENDBRANCH   1  27
TORSDOF 5
ENDMDL
MODEL 4
REMARK VINA RESULT:      -9.0      4.795      8.506
REMARK  5 active torsions:
REMARK  status: ('A' for Active; 'I' for Inactive)
REMARK    1  A    between atoms: C_5  and  C_6 
REMARK    2  A    between atoms: C_11  and  C_12 
REMARK       I    between atoms: C_12  and  N_13 
REMARK    3  A    between atoms: N_13  and  C_14 
REMARK    4  A    between atoms: C_16  and  O_17 
REMARK    5  A    between atoms: C_23  and  C_24 
ROOT
HETATM    1  C   UNL     1      40.220 -15.356   3.135  1.00  0.00     0.118 C 
HETATM    2  N   UNL     1      39.724 -15.344   1.763  1.00  0.00    -0.366 N 
HETATM    3  C   UNL     1      40.025 -14.351   0.901  1.00  0.00     0.123 A 
HETATM    4  N   UNL     1      40.657 -13.209   1.306  1.00  0.00    -0.240 N 
HETATM    5  N   UNL     1      40.816 -12.298   0.326  1.00  0.00    -0.165 NA
HETATM    6  C   UNL     1      40.349 -12.934  -0.774  1.00  0.00     0.148 A 
HETATM    7  C   UNL     1      39.827 -14.215  -0.446  1.00  0.00     0.089 A 
HETATM    8  C   UNL     1      41.104 -12.959   2.663  1.00  0.00     0.221 C 
HETATM    9  C   UNL     1      40.415 -13.919   3.653  1.00  0.00     0.066 C 
HETATM   10  H   UNL     1      39.399 -16.247   1.418  1.00  0.00     0.161 HD
ENDROOT
BRANCH   6  11
HETATM   11  C   UNL     1      40.404 -12.329  -2.117  1.00  0.00     0.276 C 
HETATM   12  N   UNL     1      39.894 -11.046  -2.127  1.00  0.00    -0.322 N 
HETATM   13  H   UNL     1      39.530 -10.747  -1.225  1.00  0.00     0.169 HD
HETATM   14  O   UNL     1      40.861 -12.943  -3.075  1.00  0.00    -0.266 OA
BRANCH  12  15
HETATM   15  C   UNL     1      39.830 -10.142  -3.203  1.00  0.00     0.037 A 
HETATM   16  C   UNL     1      40.937  -9.445  -3.694  1.00  0.00     0.066 A 
HETATM   17  C   UNL     1      40.780  -8.554  -4.755  1.00  0.00     0.067 A 
HETATM   18  C   UNL     1      39.537  -8.351  -5.343  1.00  0.00     0.036 A 
HETATM   19  C   UNL     1      38.431  -9.044  -4.861  1.00  0.00     0.005 A 
HETATM   20  C   UNL     1      38.577  -9.932  -3.791  1.00  0.00     0.029 A 
BRANCH  17  21
HETATM   21  O   UNL     1      41.838  -7.847  -5.248  1.00  0.00    -0.361 OA
HETATM   22  H   UNL     1      42.653  -8.213  -4.866  1.00  0.00     0.217 HD
ENDBRANCH  17  21
ENDBRANCH  12  15
ENDBRANCH   6  11
BRANCH   8  23
HETATM   23  C   UNL     1      42.614 -12.989   2.733  1.00  0.00     0.409 C 
HETATM   24  F   UNL     1      43.187 -13.846   1.869  1.00  0.00    -0.169 F 
HETATM   25  F   UNL     1      43.150 -11.766   2.504  1.00  0.00    -0.169 F 
HETATM   26  F   UNL     1      43.017 -13.346   3.980  1.00  0.00    -0.169 F 
ENDBRANCH   8  23
BRANCH   1  27
HETATM   27  C   UNL     1      41.409 -16.282   3.324  1.00  0.00    -0.035 A 
HETATM   28  C   UNL     1      41.967 -17.036   2.280  1.00  0.00     0.010 A 
HETATM   29  C   UNL     1      43.044 -17.898   2.508  1.00  0.00     0.007 A 
HETATM   30  C   UNL     1      43.584 -18.037   3.788  1.00  0.00    -0.062 A 
HETATM   31  C   UNL     1      44.734 -18.965   4.042  1.00  0.00     0.048 C 
HETATM   32  C   UNL     1      43.036 -17.294   4.836  1.00  0.00     0.007 A 
HETATM   33  C   UNL     1      41.963 -16.427   4.607  1.00  0.00     0.010 A 
ENDBRANCH   1  27
TORSDOF 5
ENDMDL
MODEL 5
REMARK VINA RESULT:      -8.8      5.077      6.764
REMARK  5 active torsions:
REMARK  status: ('A' for Active; 'I' for Inactive)
REMARK    1  A    between atoms: C_5  and  C_6 
REMARK    2  A    between atoms: C_11  and  C_12 
REMARK       I    between atoms: C_12  and  N_13 
REMARK    3  A    between atoms: N_13  and  C_14 
REMARK    4  A    between atoms: C_16  and  O_17 
REMARK    5  A    between atoms: C_23  and  C_24 
ROOT
HETATM    1  C   UNL     1      38.583 -11.185  -0.906  1.00  0.00     0.118 C 
HETATM    2  N   UNL     1      39.531 -11.339   0.191  1.00  0.00    -0.366 N 
HETATM    3  C   UNL     1      40.193 -12.494   0.410  1.00  0.00     0.123 A 
HETATM    4  N   UNL     1      39.886 -13.641  -0.266  1.00  0.00    -0.240 N 
HETATM    5  N   UNL     1      40.602 -14.713   0.129  1.00  0.00    -0.165 NA
HETATM    6  C   UNL     1      41.472 -14.197   1.028  1.00  0.00     0.148 A 
HETATM    7  C   UNL     1      41.230 -12.813   1.243  1.00  0.00     0.089 A 
HETATM    8  C   UNL     1      38.871 -13.737  -1.296  1.00  0.00     0.221 C 
HETATM    9  C   UNL     1      37.913 -12.531  -1.236  1.00  0.00     0.066 C 
HETATM   10  H   UNL     1      39.875 -10.463   0.585  1.00  0.00     0.161 HD
ENDROOT
BRANCH   6  11
HETATM   11  C   UNL     1      42.520 -15.013   1.669  1.00  0.00     0.276 C 
HETATM   12  N   UNL     1      42.035 -16.232   2.098  1.00  0.00    -0.322 N 
HETATM   13  H   UNL     1      41.037 -16.350   1.940  1.00  0.00     0.169 HD
HETATM   14  O   UNL     1      43.670 -14.601   1.779  1.00  0.00    -0.266 OA
BRANCH  12  15
HETATM   15  C   UNL     1      42.743 -17.289   2.698  1.00  0.00     0.037 A 
HETATM   16  C   UNL     1      42.902 -18.546   2.111  1.00  0.00     0.066 A 
HETATM   17  C   UNL     1      43.607 -19.542   2.786  1.00  0.00     0.067 A 
HETATM   18  C   UNL     1      44.165 -19.304   4.036  1.00  0.00     0.036 A 
HETATM   19  C   UNL     1      44.013 -18.053   4.626  1.00  0.00     0.005 A 
HETATM   20  C   UNL     1      43.300 -17.051   3.962  1.00  0.00     0.029 A 
BRANCH  17  21
HETATM   21  O   UNL     1      43.767 -20.785   2.247  1.00  0.00    -0.361 OA
HETATM   22  H   UNL     1      44.555 -20.771   1.677  1.00  0.00     0.217 HD
ENDBRANCH  17  21
ENDBRANCH  12  15
ENDBRANCH   6  11
BRANCH   8  23
HETATM   23  C   UNL     1      39.513 -13.939  -2.650  1.00  0.00     0.409 C 
HETATM   24  F   UNL     1      40.773 -13.475  -2.735  1.00  0.00    -0.169 F 
HETATM   25  F   UNL     1      39.542 -15.248  -3.001  1.00  0.00    -0.169 F 
HETATM   26  F   UNL     1      38.786 -13.312  -3.611  1.00  0.00    -0.169 F 
ENDBRANCH   8  23
BRANCH   1  27
HETATM   27  C   UNL     1      39.171 -10.445  -2.094  1.00  0.00    -0.035 A 
HETATM   28  C   UNL     1      40.530 -10.109  -2.192  1.00  0.00     0.010 A 
HETATM   29  C   UNL     1      41.023  -9.401  -3.293  1.00  0.00     0.007 A 
HETATM   30  C   UNL     1      40.166  -8.998  -4.319  1.00  0.00    -0.062 A 
HETATM   31  C   UNL     1      40.684  -8.231  -5.499  1.00  0.00     0.048 C 
HETATM   32  C   UNL     1      38.810  -9.322  -4.232  1.00  0.00     0.007 A 
HETATM   33  C   UNL     1      38.319 -10.037  -3.135  1.00  0.00     0.010 A 
ENDBRANCH   1  27
TORSDOF 5
ENDMDL
MODEL 6
REMARK VINA RESULT:      -8.5      4.340      9.678
REMARK  5 active torsions:
REMARK  status: ('A' for Active; 'I' for Inactive)
REMARK    1  A    between atoms: C_5  and  C_6 
REMARK    2  A    between atoms: C_11  and  C_12 
REMARK       I    between atoms: C_12  and  N_13 
REMARK    3  A    between atoms: N_13  and  C_14 
REMARK    4  A    between atoms: C_16  and  O_17 
REMARK    5  A    between atoms: C_23  and  C_24 
ROOT
HETATM    1  C   UNL     1      42.450  -7.726   9.022  1.00  0.00     0.118 C 
HETATM    2  N   UNL     1      41.509  -8.417   8.148  1.00  0.00    -0.366 N 
HETATM    3  C   UNL     1      41.854  -9.520   7.451  1.00  0.00     0.123 A 
HETATM    4  N   UNL     1      43.149  -9.951   7.377  1.00  0.00    -0.240 N 
HETATM    5  N   UNL     1      43.320 -11.026   6.583  1.00  0.00    -0.165 NA
HETATM    6  C   UNL     1      42.058 -11.350   6.215  1.00  0.00     0.148 A 
HETATM    7  C   UNL     1      41.117 -10.415   6.725  1.00  0.00     0.089 A 
HETATM    8  C   UNL     1      44.262  -9.316   8.054  1.00  0.00     0.221 C 
HETATM    9  C   UNL     1      43.890  -7.889   8.503  1.00  0.00     0.066 C 
HETATM   10  H   UNL     1      40.527  -8.203   8.322  1.00  0.00     0.161 HD
ENDROOT
BRANCH   6  11
HETATM   11  C   UNL     1      41.756 -12.536   5.394  1.00  0.00     0.276 C 
HETATM   12  N   UNL     1      42.901 -13.210   5.018  1.00  0.00    -0.322 N 
HETATM   13  H   UNL     1      43.758 -12.759   5.332  1.00  0.00     0.169 HD
HETATM   14  O   UNL     1      40.602 -12.838   5.110  1.00  0.00    -0.266 OA
BRANCH  12  15
HETATM   15  C   UNL     1      43.008 -14.405   4.285  1.00  0.00     0.037 A 
HETATM   16  C   UNL     1      43.048 -14.456   2.890  1.00  0.00     0.066 A 
HETATM   17  C   UNL     1      43.139 -15.689   2.244  1.00  0.00     0.067 A 
HETATM   18  C   UNL     1      43.200 -16.874   2.966  1.00  0.00     0.036 A 
HETATM   19  C   UNL     1      43.163 -16.831   4.356  1.00  0.00     0.005 A 
HETATM   20  C   UNL     1      43.062 -15.601   5.013  1.00  0.00     0.029 A 
BRANCH  17  21
HETATM   21  O   UNL     1      43.165 -15.773   0.882  1.00  0.00    -0.361 OA
HETATM   22  H   UNL     1      42.248 -15.798   0.560  1.00  0.00     0.217 HD
ENDBRANCH  17  21
ENDBRANCH  12  15
ENDBRANCH   6  11
BRANCH   8  23
HETATM   23  C   UNL     1      44.767 -10.196   9.176  1.00  0.00     0.409 C 
HETATM   24  F   UNL     1      43.802 -10.887   9.808  1.00  0.00    -0.169 F 
HETATM   25  F   UNL     1      45.682 -11.094   8.735  1.00  0.00    -0.169 F 
HETATM   26  F   UNL     1      45.403  -9.444  10.111  1.00  0.00    -0.169 F 
ENDBRANCH   8  23
BRANCH   1  27
HETATM   27  C   UNL     1      42.247  -8.060  10.489  1.00  0.00    -0.035 A 
HETATM   28  C   UNL     1      41.140  -8.779  10.965  1.00  0.00     0.010 A 
HETATM   29  C   UNL     1      40.980  -9.039  12.330  1.00  0.00     0.007 A 
HETATM   30  C   UNL     1      41.917  -8.575  13.256  1.00  0.00    -0.062 A 
HETATM   31  C   UNL     1      41.748  -8.841  14.722  1.00  0.00     0.048 C 
HETATM   32  C   UNL     1      43.021  -7.854  12.795  1.00  0.00     0.007 A 
HETATM   33  C   UNL     1      43.185  -7.601  11.429  1.00  0.00     0.010 A 
ENDBRANCH   1  27
TORSDOF 5
ENDMDL
MODEL 7
REMARK VINA RESULT:      -8.4      4.472      6.438
REMARK  5 active torsions:
REMARK  status: ('A' for Active; 'I' for Inactive)
REMARK    1  A    between atoms: C_5  and  C_6 
REMARK    2  A    between atoms: C_11  and  C_12 
REMARK       I    between atoms: C_12  and  N_13 
REMARK    3  A    between atoms: N_13  and  C_14 
REMARK    4  A    between atoms: C_16  and  O_17 
REMARK    5  A    between atoms: C_23  and  C_24 
ROOT
HETATM    1  C   UNL     1      38.882 -10.350  -0.872  1.00  0.00     0.118 C 
HETATM    2  N   UNL     1      39.022 -10.921   0.462  1.00  0.00    -0.366 N 
HETATM    3  C   UNL     1      39.403 -12.201   0.659  1.00  0.00     0.123 A 
HETATM    4  N   UNL     1      39.506 -13.090  -0.374  1.00  0.00    -0.240 N 
HETATM    5  N   UNL     1      39.832 -14.339   0.014  1.00  0.00    -0.165 NA
HETATM    6  C   UNL     1      40.042 -14.210   1.346  1.00  0.00     0.148 A 
HETATM    7  C   UNL     1      39.762 -12.888   1.786  1.00  0.00     0.089 A 
HETATM    8  C   UNL     1      39.265 -12.760  -1.765  1.00  0.00     0.221 C 
HETATM    9  C   UNL     1      38.483 -11.437  -1.887  1.00  0.00     0.066 C 
HETATM   10  H   UNL     1      39.104 -10.237   1.214  1.00  0.00     0.161 HD
ENDROOT
BRANCH   6  11
HETATM   11  C   UNL     1      40.506 -15.332   2.182  1.00  0.00     0.276 C 
HETATM   12  N   UNL     1      41.881 -15.447   2.175  1.00  0.00    -0.322 N 
HETATM   13  H   UNL     1      42.342 -14.773   1.568  1.00  0.00     0.169 HD
HETATM   14  O   UNL     1      39.714 -16.044   2.790  1.00  0.00    -0.266 OA
BRANCH  12  15
HETATM   15  C   UNL     1      42.684 -16.354   2.890  1.00  0.00     0.037 A 
HETATM   16  C   UNL     1      43.226 -16.081   4.148  1.00  0.00     0.066 A 
HETATM   17  C   UNL     1      44.025 -17.034   4.780  1.00  0.00     0.067 A 
HETATM   18  C   UNL     1      44.287 -18.261   4.182  1.00  0.00     0.036 A 
HETATM   19  C   UNL     1      43.748 -18.540   2.929  1.00  0.00     0.005 A 
HETATM   20  C   UNL     1      42.954 -17.588   2.284  1.00  0.00     0.029 A 
BRANCH  17  21
HETATM   21  O   UNL     1      44.582 -16.793   6.002  1.00  0.00    -0.361 OA
HETATM   22  H   UNL     1      44.235 -15.947   6.333  1.00  0.00     0.217 HD
ENDBRANCH  17  21
ENDBRANCH  12  15
ENDBRANCH   6  11
BRANCH   8  23
HETATM   23  C   UNL     1      40.562 -12.777  -2.541  1.00  0.00     0.409 C 
HETATM   24  F   UNL     1      41.627 -12.350  -1.840  1.00  0.00    -0.169 F 
HETATM   25  F   UNL     1      40.853 -14.016  -3.003  1.00  0.00    -0.169 F 
HETATM   26  F   UNL     1      40.460 -11.984  -3.640  1.00  0.00    -0.169 F 
ENDBRANCH   8  23
BRANCH   1  27
HETATM   27  C   UNL     1      40.068  -9.492  -1.273  1.00  0.00    -0.035 A 
HETATM   28  C   UNL     1      41.183  -9.288  -0.445  1.00  0.00     0.010 A 
HETATM   29  C   UNL     1      42.240  -8.465  -0.845  1.00  0.00     0.007 A 
HETATM   30  C   UNL     1      42.205  -7.814  -2.080  1.00  0.00    -0.062 A 
HETATM   31  C   UNL     1      43.331  -6.923  -2.513  1.00  0.00     0.048 C 
HETATM   32  C   UNL     1      41.100  -8.006  -2.913  1.00  0.00     0.007 A 
HETATM   33  C   UNL     1      40.046  -8.834  -2.515  1.00  0.00     0.010 A 
ENDBRANCH   1  27
TORSDOF 5
ENDMDL
MODEL 8
REMARK VINA RESULT:      -8.3     16.786     18.429
REMARK  5 active torsions:
REMARK  status: ('A' for Active; 'I' for Inactive)
REMARK    1  A    between atoms: C_5  and  C_6 
REMARK    2  A    between atoms: C_11  and  C_12 
REMARK       I    between atoms: C_12  and  N_13 
REMARK    3  A    between atoms: N_13  and  C_14 
REMARK    4  A    between atoms: C_16  and  O_17 
REMARK    5  A    between atoms: C_23  and  C_24 
ROOT
HETATM    1  C   UNL     1      45.994 -28.218  -2.512  1.00  0.00     0.118 C 
HETATM    2  N   UNL     1      47.399 -28.388  -2.157  1.00  0.00    -0.366 N 
HETATM    3  C   UNL     1      47.781 -28.921  -0.977  1.00  0.00     0.123 A 
HETATM    4  N   UNL     1      46.888 -29.164   0.028  1.00  0.00    -0.240 N 
HETATM    5  N   UNL     1      47.455 -29.632   1.158  1.00  0.00    -0.165 NA
HETATM    6  C   UNL     1      48.756 -29.784   0.817  1.00  0.00     0.148 A 
HETATM    7  C   UNL     1      48.999 -29.329  -0.507  1.00  0.00     0.089 A 
HETATM    8  C   UNL     1      45.461 -28.925  -0.070  1.00  0.00     0.221 C 
HETATM    9  C   UNL     1      45.141 -27.989  -1.251  1.00  0.00     0.066 C 
HETATM   10  H   UNL     1      48.045 -28.362  -2.945  1.00  0.00     0.161 HD
ENDROOT
BRANCH   6  11
HETATM   11  C   UNL     1      49.751 -30.359   1.742  1.00  0.00     0.276 C 
HETATM   12  N   UNL     1      49.231 -30.549   3.007  1.00  0.00    -0.322 N 
HETATM   13  H   UNL     1      48.271 -30.226   3.103  1.00  0.00     0.169 HD
HETATM   14  O   UNL     1      50.890 -30.618   1.371  1.00  0.00    -0.266 OA
BRANCH  12  15
HETATM   15  C   UNL     1      49.856 -31.121   4.129  1.00  0.00     0.037 A 
HETATM   16  C   UNL     1      51.102 -30.714   4.612  1.00  0.00     0.066 A 
HETATM   17  C   UNL     1      51.655 -31.350   5.723  1.00  0.00     0.067 A 
HETATM   18  C   UNL     1      50.984 -32.382   6.367  1.00  0.00     0.036 A 
HETATM   19  C   UNL     1      49.742 -32.792   5.892  1.00  0.00     0.005 A 
HETATM   20  C   UNL     1      49.183 -32.167   4.774  1.00  0.00     0.029 A 
BRANCH  17  21
HETATM   21  O   UNL     1      52.876 -30.985   6.212  1.00  0.00    -0.361 OA
HETATM   22  H   UNL     1      52.901 -30.016   6.278  1.00  0.00     0.217 HD
ENDBRANCH  17  21
ENDBRANCH  12  15
ENDBRANCH   6  11
BRANCH   8  23
HETATM   23  C   UNL     1      44.710 -30.237  -0.110  1.00  0.00     0.409 C 
HETATM   24  F   UNL     1      45.418 -31.259  -0.623  1.00  0.00    -0.169 F 
HETATM   25  F   UNL     1      44.294 -30.614   1.123  1.00  0.00    -0.169 F 
HETATM   26  F   UNL     1      43.585 -30.109  -0.860  1.00  0.00    -0.169 F 
ENDBRANCH   8  23
BRANCH   1  27
HETATM   27  C   UNL     1      45.488 -29.299  -3.450  1.00  0.00    -0.035 A 
HETATM   28  C   UNL     1      44.270 -29.207  -4.140  1.00  0.00     0.010 A 
HETATM   29  C   UNL     1      43.830 -30.242  -4.972  1.00  0.00     0.007 A 
HETATM   30  C   UNL     1      44.593 -31.401  -5.126  1.00  0.00    -0.062 A 
HETATM   31  C   UNL     1      44.125 -32.519  -6.010  1.00  0.00     0.048 C 
HETATM   32  C   UNL     1      45.806 -31.507  -4.442  1.00  0.00     0.007 A 
HETATM   33  C   UNL     1      46.249 -30.470  -3.616  1.00  0.00     0.010 A 
ENDBRANCH   1  27
TORSDOF 5
ENDMDL
MODEL 9
REMARK VINA RESULT:      -8.3      4.272      7.557
REMARK  5 active torsions:
REMARK  status: ('A' for Active; 'I' for Inactive)
REMARK    1  A    between atoms: C_5  and  C_6 
REMARK    2  A    between atoms: C_11  and  C_12 
REMARK       I    between atoms: C_12  and  N_13 
REMARK    3  A    between atoms: N_13  and  C_14 
REMARK    4  A    between atoms: C_16  and  O_17 
REMARK    5  A    between atoms: C_23  and  C_24 
ROOT
HETATM    1  C   UNL     1      40.370 -14.851   4.173  1.00  0.00     0.118 C 
HETATM    2  N   UNL     1      39.649 -14.355   3.007  1.00  0.00    -0.366 N 
HETATM    3  C   UNL     1      39.952 -13.176   2.424  1.00  0.00     0.123 A 
HETATM    4  N   UNL     1      40.824 -12.292   2.995  1.00  0.00    -0.240 N 
HETATM    5  N   UNL     1      40.955 -11.138   2.311  1.00  0.00    -0.165 NA
HETATM    6  C   UNL     1      40.203 -11.342   1.203  1.00  0.00     0.148 A 
HETATM    7  C   UNL     1      39.545 -12.601   1.252  1.00  0.00     0.089 A 
HETATM    8  C   UNL     1      41.538 -12.531   4.234  1.00  0.00     0.221 C 
HETATM    9  C   UNL     1      40.887 -13.680   5.029  1.00  0.00     0.066 C 
HETATM   10  H   UNL     1      39.124 -15.064   2.495  1.00  0.00     0.161 HD
ENDROOT
BRANCH   6  11
HETATM   11  C   UNL     1      40.119 -10.351   0.114  1.00  0.00     0.276 C 
HETATM   12  N   UNL     1      41.349 -10.119  -0.468  1.00  0.00    -0.322 N 
HETATM   13  H   UNL     1      42.110 -10.632  -0.028  1.00  0.00     0.169 HD
HETATM   14  O   UNL     1      39.053  -9.830  -0.192  1.00  0.00    -0.266 OA
BRANCH  12  15
HETATM   15  C   UNL     1      41.652  -9.288  -1.562  1.00  0.00     0.037 A 
HETATM   16  C   UNL     1      41.110  -9.460  -2.837  1.00  0.00     0.066 A 
HETATM   17  C   UNL     1      41.479  -8.598  -3.870  1.00  0.00     0.067 A 
HETATM   18  C   UNL     1      42.376  -7.559  -3.650  1.00  0.00     0.036 A 
HETATM   19  C   UNL     1      42.918  -7.380  -2.381  1.00  0.00     0.005 A 
HETATM   20  C   UNL     1      42.561  -8.245  -1.342  1.00  0.00     0.029 A 
BRANCH  17  21
HETATM   21  O   UNL     1      40.979  -8.748  -5.130  1.00  0.00    -0.361 OA
HETATM   22  H   UNL     1      41.724  -8.767  -5.754  1.00  0.00     0.217 HD
ENDBRANCH  17  21
ENDBRANCH  12  15
ENDBRANCH   6  11
BRANCH   8  23
HETATM   23  C   UNL     1      43.011 -12.736   3.961  1.00  0.00     0.409 C 
HETATM   24  F   UNL     1      43.648 -13.460   4.899  1.00  0.00    -0.169 F 
HETATM   25  F   UNL     1      43.220 -13.346   2.770  1.00  0.00    -0.169 F 
HETATM   26  F   UNL     1      43.643 -11.536   3.881  1.00  0.00    -0.169 F 
ENDBRANCH   8  23
BRANCH   1  27
HETATM   27  C   UNL     1      41.405 -15.905   3.822  1.00  0.00    -0.035 A 
HETATM   28  C   UNL     1      41.560 -16.427   2.529  1.00  0.00     0.010 A 
HETATM   29  C   UNL     1      42.509 -17.418   2.258  1.00  0.00     0.007 A 
HETATM   30  C   UNL     1      43.320 -17.922   3.277  1.00  0.00    -0.062 A 
HETATM   31  C   UNL     1      44.334 -18.991   2.997  1.00  0.00     0.048 C 
HETATM   32  C   UNL     1      43.174 -17.413   4.569  1.00  0.00     0.007 A 
HETATM   33  C   UNL     1      42.230 -16.417   4.839  1.00  0.00     0.010 A 
ENDBRANCH   1  27
TORSDOF 5
ENDMDL
MODEL 10
REMARK VINA RESULT:      -8.0      4.350      9.646
REMARK  5 active torsions:
REMARK  status: ('A' for Active; 'I' for Inactive)
REMARK    1  A    between atoms: C_5  and  C_6 
REMARK    2  A    between atoms: C_11  and  C_12 
REMARK       I    between atoms: C_12  and  N_13 
REMARK    3  A    between atoms: N_13  and  C_14 
REMARK    4  A    between atoms: C_16  and  O_17 
REMARK    5  A    between atoms: C_23  and  C_24 
ROOT
HETATM    1  C   UNL     1      42.865  -7.676   8.579  1.00  0.00     0.118 C 
HETATM    2  N   UNL     1      42.417  -8.591   7.535  1.00  0.00    -0.366 N 
HETATM    3  C   UNL     1      42.973  -9.809   7.362  1.00  0.00     0.123 A 
HETATM    4  N   UNL     1      44.103 -10.188   8.029  1.00  0.00    -0.240 N 
HETATM    5  N   UNL     1      44.556 -11.409   7.682  1.00  0.00    -0.165 NA
HETATM    6  C   UNL     1      43.610 -11.864   6.827  1.00  0.00     0.148 A 
HETATM    7  C   UNL     1      42.615 -10.879   6.588  1.00  0.00     0.089 A 
HETATM    8  C   UNL     1      44.792  -9.365   9.004  1.00  0.00     0.221 C 
HETATM    9  C   UNL     1      44.359  -7.891   8.883  1.00  0.00     0.066 C 
HETATM   10  H   UNL     1      41.494  -8.386   7.153  1.00  0.00     0.161 HD
ENDROOT
BRANCH   6  11
HETATM   11  C   UNL     1      43.656 -13.220   6.250  1.00  0.00     0.276 C 
HETATM   12  N   UNL     1      43.210 -13.241   4.944  1.00  0.00    -0.322 N 
HETATM   13  H   UNL     1      42.887 -12.335   4.610  1.00  0.00     0.169 HD
HETATM   14  O   UNL     1      44.054 -14.178   6.904  1.00  0.00    -0.266 OA
BRANCH  12  15
HETATM   15  C   UNL     1      43.160 -14.332   4.057  1.00  0.00     0.037 A 
HETATM   16  C   UNL     1      43.133 -15.666   4.472  1.00  0.00     0.066 A 
HETATM   17  C   UNL     1      43.100 -16.687   3.523  1.00  0.00     0.067 A 
HETATM   18  C   UNL     1      43.084 -16.401   2.163  1.00  0.00     0.036 A 
HETATM   19  C   UNL     1      43.109 -15.075   1.742  1.00  0.00     0.005 A 
HETATM   20  C   UNL     1      43.151 -14.044   2.687  1.00  0.00     0.029 A 
BRANCH  17  21
HETATM   21  O   UNL     1      43.088 -17.999   3.895  1.00  0.00    -0.361 OA
HETATM   22  H   UNL     1      42.691 -18.517   3.175  1.00  0.00     0.217 HD
ENDBRANCH  17  21
ENDBRANCH  12  15
ENDBRANCH   6  11
BRANCH   8  23
HETATM   23  C   UNL     1      44.620  -9.940  10.392  1.00  0.00     0.409 C 
HETATM   24  F   UNL     1      45.609 -10.770  10.769  1.00  0.00    -0.169 F 
HETATM   25  F   UNL     1      44.532  -8.967  11.330  1.00  0.00    -0.169 F 
HETATM   26  F   UNL     1      43.457 -10.638  10.468  1.00  0.00    -0.169 F 
ENDBRANCH   8  23
BRANCH   1  27
HETATM   27  C   UNL     1      41.950  -7.671   9.790  1.00  0.00    -0.035 A 
HETATM   28  C   UNL     1      40.845  -8.526   9.921  1.00  0.00     0.010 A 
HETATM   29  C   UNL     1      40.013  -8.466  11.043  1.00  0.00     0.007 A 
HETATM   30  C   UNL     1      40.257  -7.539  12.058  1.00  0.00    -0.062 A 
HETATM   31  C   UNL     1      39.364  -7.462  13.261  1.00  0.00     0.048 C 
HETATM   32  C   UNL     1      41.351  -6.679  11.939  1.00  0.00     0.007 A 
HETATM   33  C   UNL     1      42.188  -6.745  10.820  1.00  0.00     0.010 A 
ENDBRANCH   1  27
TORSDOF 5
ENDMDL
