MODEL 1
REMARK VINA RESULT:      -8.9      0.000      0.000
REMARK  5 active torsions:
REMARK  status: ('A' for Active; 'I' for Inactive)
REMARK    1  A    between atoms: C_12  and  C_13 
REMARK    2  A    between atoms: C_13  and  N_14 
REMARK    3  A    between atoms: N_14  and  C_15 
REMARK    4  A    between atoms: C_16  and  O_17 
REMARK    5  A    between atoms: C_19  and  O_20 
ROOT
HETATM    1  C   UNL     1      43.710 -20.575   1.999  1.00  0.00     0.049 C 
HETATM    2  C   UNL     1      43.638 -19.303   2.801  1.00  0.00    -0.055 A 
HETATM    3  C   UNL     1      43.886 -19.291   4.190  1.00  0.00    -0.054 A 
HETATM    4  C   UNL     1      44.274 -20.543   4.931  1.00  0.00     0.049 C 
HETATM    5  C   UNL     1      43.810 -18.077   4.893  1.00  0.00     0.037 A 
HETATM    6  C   UNL     1      43.462 -16.902   4.231  1.00  0.00     0.045 A 
HETATM    7  C   UNL     1      43.188 -16.910   2.862  1.00  0.00    -0.008 A 
HETATM    8  C   UNL     1      43.276 -18.109   2.153  1.00  0.00     0.021 A 
HETATM    9  N   UNL     1      43.381 -15.696   4.938  1.00  0.00    -0.322 N 
HETATM   10  C   UNL     1      43.048 -14.499   4.361  1.00  0.00     0.253 A 
HETATM   11  O   UNL     1      43.004 -13.463   5.019  1.00  0.00    -0.268 OA
HETATM   12  C   UNL     1      42.744 -14.508   2.901  1.00  0.00     0.024 A 
HETATM   13  C   UNL     1      42.810 -15.658   2.206  1.00  0.00     0.027 A 
HETATM   14  H   UNL     1      43.585 -15.672   5.928  1.00  0.00     0.169 HD
ENDROOT
BRANCH  12  15
HETATM   15  C   UNL     1      42.323 -13.201   2.300  1.00  0.00     0.136 C 
BRANCH  15  16
HETATM   16  N   UNL     1      40.901 -13.285   1.962  1.00  0.00    -0.286 NA
HETATM   17  H   UNL     1      40.536 -14.159   2.360  1.00  0.00     0.128 HD
BRANCH  16  18
HETATM   18  C   UNL     1      40.571 -13.285   0.587  1.00  0.00     0.042 A 
HETATM   19  C   UNL     1      39.915 -14.425   0.088  1.00  0.00     0.089 A 
HETATM   20  C   UNL     1      39.613 -14.589  -1.257  1.00  0.00     0.074 A 
HETATM   21  C   UNL     1      39.988 -13.585  -2.140  1.00  0.00     0.068 A 
HETATM   22  C   UNL     1      40.660 -12.453  -1.688  1.00  0.00     0.038 A 
HETATM   23  C   UNL     1      40.964 -12.308  -0.330  1.00  0.00     0.029 A 
BRANCH  19  24
HETATM   24  O   UNL     1      39.538 -15.402   0.974  1.00  0.00    -0.359 OA
HETATM   25  H   UNL     1      39.855 -16.225   0.545  1.00  0.00     0.218 HD
ENDBRANCH  19  24
BRANCH  21  26
HETATM   26  O   UNL     1      39.721 -13.675  -3.474  1.00  0.00    -0.361 OA
HETATM   27  H   UNL     1      39.993 -14.556  -3.781  1.00  0.00     0.217 HD
ENDBRANCH  21  26
ENDBRANCH  16  18
ENDBRANCH  15  16
ENDBRANCH  12  15
TORSDOF 5
ENDMDL
MODEL 2
REMARK VINA RESULT:      -8.7      3.926      6.991
REMARK  5 active torsions:
REMARK  status: ('A' for Active; 'I' for Inactive)
REMARK    1  A    between atoms: C_12  and  C_13 
REMARK    2  A    between atoms: C_13  and  N_14 
REMARK    3  A    between atoms: N_14  and  C_15 
REMARK    4  A    between atoms: C_16  and  O_17 
REMARK    5  A    between atoms: C_19  and  O_20 
ROOT
HETATM    1  C   UNL     1      44.322 -20.567   4.911  1.00  0.00     0.049 C 
HETATM    2  C   UNL     1      43.973 -19.145   4.559  1.00  0.00    -0.055 A 
HETATM    3  C   UNL     1      43.635 -18.773   3.241  1.00  0.00    -0.054 A 
HETATM    4  C   UNL     1      43.569 -19.785   2.129  1.00  0.00     0.049 C 
HETATM    5  C   UNL     1      43.313 -17.433   2.965  1.00  0.00     0.037 A 
HETATM    6  C   UNL     1      43.358 -16.477   3.976  1.00  0.00     0.045 A 
HETATM    7  C   UNL     1      43.717 -16.832   5.278  1.00  0.00    -0.008 A 
HETATM    8  C   UNL     1      44.024 -18.163   5.564  1.00  0.00     0.021 A 
HETATM    9  N   UNL     1      43.043 -15.141   3.695  1.00  0.00    -0.322 N 
HETATM   10  C   UNL     1      43.061 -14.143   4.632  1.00  0.00     0.253 A 
HETATM   11  O   UNL     1      42.761 -12.988   4.341  1.00  0.00    -0.268 OA
HETATM   12  C   UNL     1      43.456 -14.519   6.020  1.00  0.00     0.024 A 
HETATM   13  C   UNL     1      43.768 -15.795   6.309  1.00  0.00     0.027 A 
HETATM   14  H   UNL     1      42.772 -14.869   2.759  1.00  0.00     0.169 HD
ENDROOT
BRANCH  12  15
HETATM   15  C   UNL     1      43.528 -13.403   7.018  1.00  0.00     0.136 C 
BRANCH  15  16
HETATM   16  N   UNL     1      44.671 -12.554   6.678  1.00  0.00    -0.286 NA
HETATM   17  H   UNL     1      45.515 -12.997   7.063  1.00  0.00     0.128 HD
BRANCH  16  18
HETATM   18  C   UNL     1      44.644 -11.225   7.161  1.00  0.00     0.042 A 
HETATM   19  C   UNL     1      45.876 -10.554   7.257  1.00  0.00     0.089 A 
HETATM   20  C   UNL     1      45.998  -9.279   7.794  1.00  0.00     0.074 A 
HETATM   21  C   UNL     1      44.852  -8.655   8.264  1.00  0.00     0.068 A 
HETATM   22  C   UNL     1      43.617  -9.295   8.209  1.00  0.00     0.038 A 
HETATM   23  C   UNL     1      43.514 -10.583   7.672  1.00  0.00     0.029 A 
BRANCH  19  24
HETATM   24  O   UNL     1      46.999 -11.179   6.775  1.00  0.00    -0.359 OA
HETATM   25  H   UNL     1      47.542 -11.311   7.581  1.00  0.00     0.218 HD
ENDBRANCH  19  24
BRANCH  21  26
HETATM   26  O   UNL     1      44.894  -7.402   8.801  1.00  0.00    -0.361 OA
HETATM   27  H   UNL     1      45.786  -7.252   9.156  1.00  0.00     0.217 HD
ENDBRANCH  21  26
ENDBRANCH  16  18
ENDBRANCH  15  16
ENDBRANCH  12  15
TORSDOF 5
ENDMDL
MODEL 3
REMARK VINA RESULT:      -8.6      2.255      7.246
REMARK  5 active torsions:
REMARK  status: ('A' for Active; 'I' for Inactive)
REMARK    1  A    between atoms: C_12  and  C_13 
REMARK    2  A    between atoms: C_13  and  N_14 
REMARK    3  A    between atoms: N_14  and  C_15 
REMARK    4  A    between atoms: C_16  and  O_17 
REMARK    5  A    between atoms: C_19  and  O_20 
ROOT
HETATM    1  C   UNL     1      38.449 -14.650  -2.990  1.00  0.00     0.049 C 
HETATM    2  C   UNL     1      39.294 -14.140  -1.853  1.00  0.00    -0.055 A 
HETATM    3  C   UNL     1      39.867 -12.851  -1.879  1.00  0.00    -0.054 A 
HETATM    4  C   UNL     1      39.629 -11.907  -3.028  1.00  0.00     0.049 C 
HETATM    5  C   UNL     1      40.644 -12.420  -0.792  1.00  0.00     0.037 A 
HETATM    6  C   UNL     1      40.874 -13.269   0.288  1.00  0.00     0.045 A 
HETATM    7  C   UNL     1      40.333 -14.556   0.311  1.00  0.00    -0.008 A 
HETATM    8  C   UNL     1      39.547 -14.987  -0.759  1.00  0.00     0.021 A 
HETATM    9  N   UNL     1      41.656 -12.837   1.368  1.00  0.00    -0.322 N 
HETATM   10  C   UNL     1      41.926 -13.609   2.466  1.00  0.00     0.253 A 
HETATM   11  O   UNL     1      42.605 -13.181   3.396  1.00  0.00    -0.268 OA
HETATM   12  C   UNL     1      41.358 -14.989   2.485  1.00  0.00     0.024 A 
HETATM   13  C   UNL     1      40.610 -15.424   1.456  1.00  0.00     0.027 A 
HETATM   14  H   UNL     1      42.047 -11.905   1.371  1.00  0.00     0.169 HD
ENDROOT
BRANCH  12  15
HETATM   15  C   UNL     1      41.715 -15.839   3.667  1.00  0.00     0.136 C 
BRANCH  15  16
HETATM   16  N   UNL     1      43.088 -16.315   3.496  1.00  0.00    -0.286 NA
HETATM   17  H   UNL     1      43.445 -15.929   2.612  1.00  0.00     0.128 HD
BRANCH  16  18
HETATM   18  C   UNL     1      43.276 -17.715   3.442  1.00  0.00     0.042 A 
HETATM   19  C   UNL     1      43.893 -18.321   4.552  1.00  0.00     0.089 A 
HETATM   20  C   UNL     1      44.213 -19.672   4.590  1.00  0.00     0.074 A 
HETATM   21  C   UNL     1      43.918 -20.446   3.477  1.00  0.00     0.068 A 
HETATM   22  C   UNL     1      43.329 -19.879   2.349  1.00  0.00     0.038 A 
HETATM   23  C   UNL     1      43.021 -18.514   2.325  1.00  0.00     0.029 A 
BRANCH  19  24
HETATM   24  O   UNL     1      44.167 -17.546   5.651  1.00  0.00    -0.359 OA
HETATM   25  H   UNL     1      44.029 -18.166   6.398  1.00  0.00     0.218 HD
ENDBRANCH  19  24
BRANCH  21  26
HETATM   26  O   UNL     1      44.199 -21.780   3.443  1.00  0.00    -0.361 OA
HETATM   27  H   UNL     1      43.366 -22.269   3.546  1.00  0.00     0.217 HD
ENDBRANCH  21  26
ENDBRANCH  16  18
ENDBRANCH  15  16
ENDBRANCH  12  15
TORSDOF 5
ENDMDL
MODEL 4
REMARK VINA RESULT:      -8.5      3.303      6.435
REMARK  5 active torsions:
REMARK  status: ('A' for Active; 'I' for Inactive)
REMARK    1  A    between atoms: C_12  and  C_13 
REMARK    2  A    between atoms: C_13  and  N_14 
REMARK    3  A    between atoms: N_14  and  C_15 
REMARK    4  A    between atoms: C_16  and  O_17 
REMARK    5  A    between atoms: C_19  and  O_20 
ROOT
HETATM    1  C   UNL     1      44.323 -20.027   4.993  1.00  0.00     0.049 C 
HETATM    2  C   UNL     1      43.869 -18.827   4.206  1.00  0.00    -0.055 A 
HETATM    3  C   UNL     1      43.592 -18.911   2.825  1.00  0.00    -0.054 A 
HETATM    4  C   UNL     1      43.699 -20.214   2.079  1.00  0.00     0.049 C 
HETATM    5  C   UNL     1      43.167 -17.763   2.136  1.00  0.00     0.037 A 
HETATM    6  C   UNL     1      43.052 -16.545   2.803  1.00  0.00     0.045 A 
HETATM    7  C   UNL     1      43.349 -16.447   4.164  1.00  0.00    -0.008 A 
HETATM    8  C   UNL     1      43.758 -17.587   4.859  1.00  0.00     0.021 A 
HETATM    9  N   UNL     1      42.634 -15.402   2.111  1.00  0.00    -0.322 N 
HETATM   10  C   UNL     1      42.493 -14.171   2.693  1.00  0.00     0.253 A 
HETATM   11  O   UNL     1      42.109 -13.199   2.048  1.00  0.00    -0.268 OA
HETATM   12  C   UNL     1      42.822 -14.062   4.144  1.00  0.00     0.024 A 
HETATM   13  C   UNL     1      43.230 -15.148   4.825  1.00  0.00     0.027 A 
HETATM   14  H   UNL     1      42.406 -15.458   1.127  1.00  0.00     0.169 HD
ENDROOT
BRANCH  12  15
HETATM   15  C   UNL     1      42.720 -12.695   4.750  1.00  0.00     0.136 C 
BRANCH  15  16
HETATM   16  N   UNL     1      42.960 -12.809   6.190  1.00  0.00    -0.286 NA
HETATM   17  H   UNL     1      42.056 -12.706   6.667  1.00  0.00     0.128 HD
BRANCH  16  18
HETATM   18  C   UNL     1      43.843 -11.866   6.765  1.00  0.00     0.042 A 
HETATM   19  C   UNL     1      43.264 -10.736   7.372  1.00  0.00     0.089 A 
HETATM   20  C   UNL     1      44.020  -9.696   7.897  1.00  0.00     0.074 A 
HETATM   21  C   UNL     1      45.402  -9.778   7.803  1.00  0.00     0.068 A 
HETATM   22  C   UNL     1      46.012 -10.868   7.189  1.00  0.00     0.038 A 
HETATM   23  C   UNL     1      45.235 -11.904   6.657  1.00  0.00     0.029 A 
BRANCH  19  24
HETATM   24  O   UNL     1      41.897 -10.676   7.470  1.00  0.00    -0.359 OA
HETATM   25  H   UNL     1      41.624 -10.381   6.576  1.00  0.00     0.218 HD
ENDBRANCH  19  24
BRANCH  21  26
HETATM   26  O   UNL     1      46.208  -8.796   8.300  1.00  0.00    -0.361 OA
HETATM   27  H   UNL     1      46.462  -8.211   7.567  1.00  0.00     0.217 HD
ENDBRANCH  21  26
ENDBRANCH  16  18
ENDBRANCH  15  16
ENDBRANCH  12  15
TORSDOF 5
ENDMDL
MODEL 5
REMARK VINA RESULT:      -8.4      3.168      4.196
REMARK  5 active torsions:
REMARK  status: ('A' for Active; 'I' for Inactive)
REMARK    1  A    between atoms: C_12  and  C_13 
REMARK    2  A    between atoms: C_13  and  N_14 
REMARK    3  A    between atoms: N_14  and  C_15 
REMARK    4  A    between atoms: C_16  and  O_17 
REMARK    5  A    between atoms: C_19  and  O_20 
ROOT
HETATM    1  C   UNL     1      43.778 -20.574   1.963  1.00  0.00     0.049 C 
HETATM    2  C   UNL     1      43.595 -19.379   2.861  1.00  0.00    -0.055 A 
HETATM    3  C   UNL     1      44.002 -19.401   4.211  1.00  0.00    -0.054 A 
HETATM    4  C   UNL     1      44.674 -20.607   4.811  1.00  0.00     0.049 C 
HETATM    5  C   UNL     1      43.813 -18.259   5.007  1.00  0.00     0.037 A 
HETATM    6  C   UNL     1      43.200 -17.126   4.475  1.00  0.00     0.045 A 
HETATM    7  C   UNL     1      42.771 -17.104   3.147  1.00  0.00    -0.008 A 
HETATM    8  C   UNL     1      42.969 -18.231   2.345  1.00  0.00     0.021 A 
HETATM    9  N   UNL     1      43.008 -15.991   5.274  1.00  0.00    -0.322 N 
HETATM   10  C   UNL     1      42.418 -14.840   4.827  1.00  0.00     0.253 A 
HETATM   11  O   UNL     1      42.284 -13.864   5.561  1.00  0.00    -0.268 OA
HETATM   12  C   UNL     1      41.948 -14.820   3.411  1.00  0.00     0.024 A 
HETATM   13  C   UNL     1      42.118 -15.902   2.630  1.00  0.00     0.027 A 
HETATM   14  H   UNL     1      43.322 -15.987   6.235  1.00  0.00     0.169 HD
ENDROOT
BRANCH  12  15
HETATM   15  C   UNL     1      41.250 -13.573   2.958  1.00  0.00     0.136 C 
BRANCH  15  16
HETATM   16  N   UNL     1      39.919 -13.542   3.566  1.00  0.00    -0.286 NA
HETATM   17  H   UNL     1      39.237 -13.790   2.838  1.00  0.00     0.128 HD
BRANCH  16  18
HETATM   18  C   UNL     1      39.501 -12.312   4.123  1.00  0.00     0.042 A 
HETATM   19  C   UNL     1      39.201 -12.302   5.497  1.00  0.00     0.089 A 
HETATM   20  C   UNL     1      38.699 -11.182   6.149  1.00  0.00     0.074 A 
HETATM   21  C   UNL     1      38.477 -10.035   5.401  1.00  0.00     0.068 A 
HETATM   22  C   UNL     1      38.738 -10.011   4.034  1.00  0.00     0.038 A 
HETATM   23  C   UNL     1      39.236 -11.152   3.392  1.00  0.00     0.029 A 
BRANCH  19  24
HETATM   24  O   UNL     1      39.439 -13.439   6.226  1.00  0.00    -0.359 OA
HETATM   25  H   UNL     1      38.818 -13.353   6.981  1.00  0.00     0.218 HD
ENDBRANCH  19  24
BRANCH  21  26
HETATM   26  O   UNL     1      37.989  -8.897   5.973  1.00  0.00    -0.361 OA
HETATM   27  H   UNL     1      37.051  -8.815   5.736  1.00  0.00     0.217 HD
ENDBRANCH  21  26
ENDBRANCH  16  18
ENDBRANCH  15  16
ENDBRANCH  12  15
TORSDOF 5
ENDMDL
MODEL 6
REMARK VINA RESULT:      -8.2      1.796      2.436
REMARK  5 active torsions:
REMARK  status: ('A' for Active; 'I' for Inactive)
REMARK    1  A    between atoms: C_12  and  C_13 
REMARK    2  A    between atoms: C_13  and  N_14 
REMARK    3  A    between atoms: N_14  and  C_15 
REMARK    4  A    between atoms: C_16  and  O_17 
REMARK    5  A    between atoms: C_19  and  O_20 
ROOT
HETATM    1  C   UNL     1      44.023 -19.096   2.872  1.00  0.00     0.049 C 
HETATM    2  C   UNL     1      43.397 -17.777   3.237  1.00  0.00    -0.055 A 
HETATM    3  C   UNL     1      43.181 -17.409   4.581  1.00  0.00    -0.054 A 
HETATM    4  C   UNL     1      43.602 -18.300   5.719  1.00  0.00     0.049 C 
HETATM    5  C   UNL     1      42.597 -16.164   4.870  1.00  0.00     0.037 A 
HETATM    6  C   UNL     1      42.204 -15.316   3.837  1.00  0.00     0.045 A 
HETATM    7  C   UNL     1      42.390 -15.684   2.503  1.00  0.00    -0.008 A 
HETATM    8  C   UNL     1      42.984 -16.912   2.208  1.00  0.00     0.021 A 
HETATM    9  N   UNL     1      41.616 -14.079   4.129  1.00  0.00    -0.322 N 
HETATM   10  C   UNL     1      41.206 -13.189   3.173  1.00  0.00     0.253 A 
HETATM   11  O   UNL     1      40.708 -12.108   3.478  1.00  0.00    -0.268 OA
HETATM   12  C   UNL     1      41.392 -13.586   1.747  1.00  0.00     0.024 A 
HETATM   13  C   UNL     1      41.950 -14.772   1.446  1.00  0.00     0.027 A 
HETATM   14  H   UNL     1      41.483 -13.794   5.090  1.00  0.00     0.169 HD
ENDROOT
BRANCH  12  15
HETATM   15  C   UNL     1      40.883 -12.625   0.716  1.00  0.00     0.136 C 
BRANCH  15  16
HETATM   16  N   UNL     1      39.477 -12.935   0.452  1.00  0.00    -0.286 NA
HETATM   17  H   UNL     1      39.190 -13.672   1.108  1.00  0.00     0.128 HD
BRANCH  16  18
HETATM   18  C   UNL     1      39.157 -13.389  -0.848  1.00  0.00     0.042 A 
HETATM   19  C   UNL     1      38.061 -12.781  -1.487  1.00  0.00     0.089 A 
HETATM   20  C   UNL     1      37.590 -13.192  -2.727  1.00  0.00     0.074 A 
HETATM   21  C   UNL     1      38.227 -14.257  -3.348  1.00  0.00     0.068 A 
HETATM   22  C   UNL     1      39.300 -14.902  -2.739  1.00  0.00     0.038 A 
HETATM   23  C   UNL     1      39.756 -14.478  -1.484  1.00  0.00     0.029 A 
BRANCH  19  24
HETATM   24  O   UNL     1      37.450 -11.720  -0.867  1.00  0.00    -0.359 OA
HETATM   25  H   UNL     1      38.016 -10.960  -1.119  1.00  0.00     0.218 HD
ENDBRANCH  19  24
BRANCH  21  26
HETATM   26  O   UNL     1      37.823 -14.714  -4.568  1.00  0.00    -0.361 OA
HETATM   27  H   UNL     1      38.500 -15.323  -4.905  1.00  0.00     0.217 HD
ENDBRANCH  21  26
ENDBRANCH  16  18
ENDBRANCH  15  16
ENDBRANCH  12  15
TORSDOF 5
ENDMDL
MODEL 7
REMARK VINA RESULT:      -8.0      2.022      3.202
REMARK  5 active torsions:
REMARK  status: ('A' for Active; 'I' for Inactive)
REMARK    1  A    between atoms: C_12  and  C_13 
REMARK    2  A    between atoms: C_13  and  N_14 
REMARK    3  A    between atoms: N_14  and  C_15 
REMARK    4  A    between atoms: C_16  and  O_17 
REMARK    5  A    between atoms: C_19  and  O_20 
ROOT
HETATM    1  C   UNL     1      44.442 -18.715   4.128  1.00  0.00     0.049 C 
HETATM    2  C   UNL     1      43.378 -17.652   4.063  1.00  0.00    -0.055 A 
HETATM    3  C   UNL     1      42.817 -17.096   5.232  1.00  0.00    -0.054 A 
HETATM    4  C   UNL     1      43.281 -17.511   6.602  1.00  0.00     0.049 C 
HETATM    5  C   UNL     1      41.830 -16.103   5.117  1.00  0.00     0.037 A 
HETATM    6  C   UNL     1      41.386 -15.694   3.861  1.00  0.00     0.045 A 
HETATM    7  C   UNL     1      41.917 -16.257   2.700  1.00  0.00    -0.008 A 
HETATM    8  C   UNL     1      42.910 -17.234   2.804  1.00  0.00     0.021 A 
HETATM    9  N   UNL     1      40.397 -14.709   3.753  1.00  0.00    -0.322 N 
HETATM   10  C   UNL     1      39.910 -14.251   2.558  1.00  0.00     0.253 A 
HETATM   11  O   UNL     1      39.052 -13.373   2.512  1.00  0.00    -0.268 OA
HETATM   12  C   UNL     1      40.468 -14.861   1.316  1.00  0.00     0.024 A 
HETATM   13  C   UNL     1      41.414 -15.813   1.400  1.00  0.00     0.027 A 
HETATM   14  H   UNL     1      40.009 -14.284   4.584  1.00  0.00     0.169 HD
ENDROOT
BRANCH  12  15
HETATM   15  C   UNL     1      39.880 -14.390   0.020  1.00  0.00     0.136 C 
BRANCH  15  16
HETATM   16  N   UNL     1      40.943 -13.768  -0.770  1.00  0.00    -0.286 NA
HETATM   17  H   UNL     1      41.771 -13.680  -0.167  1.00  0.00     0.128 HD
BRANCH  16  18
HETATM   18  C   UNL     1      40.677 -12.484  -1.299  1.00  0.00     0.042 A 
HETATM   19  C   UNL     1      41.002 -12.268  -2.650  1.00  0.00     0.089 A 
HETATM   20  C   UNL     1      40.871 -11.031  -3.267  1.00  0.00     0.074 A 
HETATM   21  C   UNL     1      40.411  -9.966  -2.506  1.00  0.00     0.068 A 
HETATM   22  C   UNL     1      40.101 -10.132  -1.158  1.00  0.00     0.038 A 
HETATM   23  C   UNL     1      40.247 -11.385  -0.551  1.00  0.00     0.029 A 
BRANCH  19  24
HETATM   24  O   UNL     1      41.443 -13.334  -3.394  1.00  0.00    -0.359 OA
HETATM   25  H   UNL     1      41.601 -14.026  -2.718  1.00  0.00     0.218 HD
ENDBRANCH  19  24
BRANCH  21  26
HETATM   26  O   UNL     1      40.253  -8.723  -3.044  1.00  0.00    -0.361 OA
HETATM   27  H   UNL     1      40.616  -8.733  -3.945  1.00  0.00     0.217 HD
ENDBRANCH  21  26
ENDBRANCH  16  18
ENDBRANCH  15  16
ENDBRANCH  12  15
TORSDOF 5
ENDMDL
MODEL 8
REMARK VINA RESULT:      -7.9      3.705      7.577
REMARK  5 active torsions:
REMARK  status: ('A' for Active; 'I' for Inactive)
REMARK    1  A    between atoms: C_12  and  C_13 
REMARK    2  A    between atoms: C_13  and  N_14 
REMARK    3  A    between atoms: N_14  and  C_15 
REMARK    4  A    between atoms: C_16  and  O_17 
REMARK    5  A    between atoms: C_19  and  O_20 
ROOT
HETATM    1  C   UNL     1      45.435 -10.655   8.586  1.00  0.00     0.049 C 
HETATM    2  C   UNL     1      44.289 -11.006   7.675  1.00  0.00    -0.055 A 
HETATM    3  C   UNL     1      43.229 -10.106   7.442  1.00  0.00    -0.054 A 
HETATM    4  C   UNL     1      43.210  -8.734   8.062  1.00  0.00     0.049 C 
HETATM    5  C   UNL     1      42.184 -10.480   6.580  1.00  0.00     0.037 A 
HETATM    6  C   UNL     1      42.180 -11.740   5.987  1.00  0.00     0.045 A 
HETATM    7  C   UNL     1      43.212 -12.647   6.232  1.00  0.00    -0.008 A 
HETATM    8  C   UNL     1      44.261 -12.278   7.076  1.00  0.00     0.021 A 
HETATM    9  N   UNL     1      41.133 -12.110   5.133  1.00  0.00    -0.322 N 
HETATM   10  C   UNL     1      41.056 -13.327   4.510  1.00  0.00     0.253 A 
HETATM   11  O   UNL     1      40.125 -13.602   3.757  1.00  0.00    -0.268 OA
HETATM   12  C   UNL     1      42.152 -14.302   4.782  1.00  0.00     0.024 A 
HETATM   13  C   UNL     1      43.163 -13.967   5.603  1.00  0.00     0.027 A 
HETATM   14  H   UNL     1      40.382 -11.461   4.937  1.00  0.00     0.169 HD
ENDROOT
BRANCH  12  15
HETATM   15  C   UNL     1      42.020 -15.649   4.138  1.00  0.00     0.136 C 
BRANCH  15  16
HETATM   16  N   UNL     1      43.362 -16.190   3.920  1.00  0.00    -0.286 NA
HETATM   17  H   UNL     1      43.746 -15.744   3.077  1.00  0.00     0.128 HD
BRANCH  16  18
HETATM   18  C   UNL     1      43.464 -17.588   3.732  1.00  0.00     0.042 A 
HETATM   19  C   UNL     1      43.908 -18.350   4.827  1.00  0.00     0.089 A 
HETATM   20  C   UNL     1      44.132 -19.718   4.749  1.00  0.00     0.074 A 
HETATM   21  C   UNL     1      43.919 -20.349   3.531  1.00  0.00     0.068 A 
HETATM   22  C   UNL     1      43.503 -19.625   2.417  1.00  0.00     0.038 A 
HETATM   23  C   UNL     1      43.289 -18.245   2.512  1.00  0.00     0.029 A 
BRANCH  19  24
HETATM   24  O   UNL     1      44.101 -17.717   6.029  1.00  0.00    -0.359 OA
HETATM   25  H   UNL     1      44.132 -16.769   5.777  1.00  0.00     0.218 HD
ENDBRANCH  19  24
BRANCH  21  26
HETATM   26  O   UNL     1      44.115 -21.689   3.380  1.00  0.00    -0.361 OA
HETATM   27  H   UNL     1      43.620 -22.150   4.078  1.00  0.00     0.217 HD
ENDBRANCH  21  26
ENDBRANCH  16  18
ENDBRANCH  15  16
ENDBRANCH  12  15
TORSDOF 5
ENDMDL
MODEL 9
REMARK VINA RESULT:      -7.8      3.423      5.388
REMARK  5 active torsions:
REMARK  status: ('A' for Active; 'I' for Inactive)
REMARK    1  A    between atoms: C_12  and  C_13 
REMARK    2  A    between atoms: C_13  and  N_14 
REMARK    3  A    between atoms: N_14  and  C_15 
REMARK    4  A    between atoms: C_16  and  O_17 
REMARK    5  A    between atoms: C_19  and  O_20 
ROOT
HETATM    1  C   UNL     1      44.288 -20.533   4.910  1.00  0.00     0.049 C 
HETATM    2  C   UNL     1      43.911 -19.247   4.225  1.00  0.00    -0.055 A 
HETATM    3  C   UNL     1      43.756 -19.174   2.825  1.00  0.00    -0.054 A 
HETATM    4  C   UNL     1      43.922 -20.388   1.950  1.00  0.00     0.049 C 
HETATM    5  C   UNL     1      43.399 -17.951   2.233  1.00  0.00     0.037 A 
HETATM    6  C   UNL     1      43.231 -16.813   3.019  1.00  0.00     0.045 A 
HETATM    7  C   UNL     1      43.408 -16.869   4.403  1.00  0.00    -0.008 A 
HETATM    8  C   UNL     1      43.748 -18.085   5.000  1.00  0.00     0.021 A 
HETATM    9  N   UNL     1      42.882 -15.594   2.424  1.00  0.00    -0.322 N 
HETATM   10  C   UNL     1      42.696 -14.433   3.126  1.00  0.00     0.253 A 
HETATM   11  O   UNL     1      42.376 -13.390   2.562  1.00  0.00    -0.268 OA
HETATM   12  C   UNL     1      42.897 -14.489   4.603  1.00  0.00     0.024 A 
HETATM   13  C   UNL     1      43.239 -15.649   5.192  1.00  0.00     0.027 A 
HETATM   14  H   UNL     1      42.741 -15.538   1.425  1.00  0.00     0.169 HD
ENDROOT
BRANCH  12  15
HETATM   15  C   UNL     1      42.749 -13.196   5.346  1.00  0.00     0.136 C 
BRANCH  15  16
HETATM   16  N   UNL     1      41.508 -12.553   4.910  1.00  0.00    -0.286 NA
HETATM   17  H   UNL     1      41.698 -12.082   4.016  1.00  0.00     0.128 HD
BRANCH  16  18
HETATM   18  C   UNL     1      40.951 -11.587   5.778  1.00  0.00     0.042 A 
HETATM   19  C   UNL     1      39.647 -11.825   6.248  1.00  0.00     0.089 A 
HETATM   20  C   UNL     1      38.954 -10.916   7.036  1.00  0.00     0.074 A 
HETATM   21  C   UNL     1      39.578  -9.719   7.358  1.00  0.00     0.068 A 
HETATM   22  C   UNL     1      40.859  -9.434   6.892  1.00  0.00     0.038 A 
HETATM   23  C   UNL     1      41.540 -10.360   6.092  1.00  0.00     0.029 A 
BRANCH  19  24
HETATM   24  O   UNL     1      39.047 -13.019   5.934  1.00  0.00    -0.359 OA
HETATM   25  H   UNL     1      38.331 -13.089   6.600  1.00  0.00     0.218 HD
ENDBRANCH  19  24
BRANCH  21  26
HETATM   26  O   UNL     1      38.961  -8.780   8.131  1.00  0.00    -0.361 OA
HETATM   27  H   UNL     1      38.428  -9.239   8.801  1.00  0.00     0.217 HD
ENDBRANCH  21  26
ENDBRANCH  16  18
ENDBRANCH  15  16
ENDBRANCH  12  15
TORSDOF 5
ENDMDL
MODEL 10
REMARK VINA RESULT:      -7.6      3.030      5.074
REMARK  5 active torsions:
REMARK  status: ('A' for Active; 'I' for Inactive)
REMARK    1  A    between atoms: C_12  and  C_13 
REMARK    2  A    between atoms: C_13  and  N_14 
REMARK    3  A    between atoms: N_14  and  C_15 
REMARK    4  A    between atoms: C_16  and  O_17 
REMARK    5  A    between atoms: C_19  and  O_20 
ROOT
HETATM    1  C   UNL     1      44.229 -18.333   4.991  1.00  0.00     0.049 C 
HETATM    2  C   UNL     1      43.625 -17.452   3.930  1.00  0.00    -0.055 A 
HETATM    3  C   UNL     1      43.193 -17.977   2.693  1.00  0.00    -0.054 A 
HETATM    4  C   UNL     1      43.280 -19.448   2.389  1.00  0.00     0.049 C 
HETATM    5  C   UNL     1      42.632 -17.114   1.737  1.00  0.00     0.037 A 
HETATM    6  C   UNL     1      42.533 -15.748   1.995  1.00  0.00     0.045 A 
HETATM    7  C   UNL     1      42.981 -15.217   3.205  1.00  0.00    -0.008 A 
HETATM    8  C   UNL     1      43.527 -16.070   4.167  1.00  0.00     0.021 A 
HETATM    9  N   UNL     1      41.978 -14.891   1.036  1.00  0.00    -0.322 N 
HETATM   10  C   UNL     1      41.843 -13.541   1.213  1.00  0.00     0.253 A 
HETATM   11  O   UNL     1      41.336 -12.830   0.348  1.00  0.00    -0.268 OA
HETATM   12  C   UNL     1      42.333 -12.970   2.501  1.00  0.00     0.024 A 
HETATM   13  C   UNL     1      42.874 -13.776   3.432  1.00  0.00     0.027 A 
HETATM   14  H   UNL     1      41.640 -15.262   0.158  1.00  0.00     0.169 HD
ENDROOT
BRANCH  12  15
HETATM   15  C   UNL     1      42.232 -11.482   2.653  1.00  0.00     0.136 C 
BRANCH  15  16
HETATM   16  N   UNL     1      40.835 -11.141   2.930  1.00  0.00    -0.286 NA
HETATM   17  H   UNL     1      40.658 -10.207   2.537  1.00  0.00     0.128 HD
BRANCH  16  18
HETATM   18  C   UNL     1      40.446 -11.100   4.288  1.00  0.00     0.042 A 
HETATM   19  C   UNL     1      39.536 -12.080   4.722  1.00  0.00     0.089 A 
HETATM   20  C   UNL     1      39.009 -12.101   6.007  1.00  0.00     0.074 A 
HETATM   21  C   UNL     1      39.393 -11.100   6.888  1.00  0.00     0.068 A 
HETATM   22  C   UNL     1      40.274 -10.097   6.490  1.00  0.00     0.038 A 
HETATM   23  C   UNL     1      40.789 -10.089   5.188  1.00  0.00     0.029 A 
BRANCH  19  24
HETATM   24  O   UNL     1      39.175 -13.071   3.845  1.00  0.00    -0.359 OA
HETATM   25  H   UNL     1      38.422 -12.674   3.358  1.00  0.00     0.218 HD
ENDBRANCH  19  24
BRANCH  21  26
HETATM   26  O   UNL     1      38.920 -11.057   8.166  1.00  0.00    -0.361 OA
HETATM   27  H   UNL     1      38.223 -11.728   8.256  1.00  0.00     0.217 HD
ENDBRANCH  21  26
ENDBRANCH  16  18
ENDBRANCH  15  16
ENDBRANCH  12  15
TORSDOF 5
ENDMDL
