MODEL 1
REMARK VINA RESULT:      -8.8      0.000      0.000
REMARK  8 active torsions:
REMARK  status: ('A' for Active; 'I' for Inactive)
REMARK    1  A    between atoms: C_4  and  O_5 
REMARK    2  A    between atoms: O_5  and  C_6 
REMARK    3  A    between atoms: C_6  and  C_7 
REMARK       I    between atoms: C_7  and  N_8 
REMARK    4  A    between atoms: N_8  and  N_9 
REMARK       I    between atoms: N_9  and  C_10 
REMARK    5  A    between atoms: C_10  and  C_11 
REMARK    6  A    between atoms: C_11  and  C_12 
REMARK    7  A    between atoms: C_12  and  N_13 
REMARK    8  A    between atoms: C_12  and  C_17 
REMARK       I    between atoms: N_13  and  C_14 
REMARK       I    between atoms: C_14  and  N_15 
ROOT
HETATM    1  N   UNL     1      43.641 -12.614   5.172  1.00  0.00    -0.267 N 
HETATM    2  C   UNL     1      43.446 -12.593   3.805  1.00  0.00     0.238 C 
HETATM    3  O   UNL     1      43.752 -11.639   3.089  1.00  0.00    -0.272 OA
HETATM    4  H   UNL     1      43.678 -13.483   5.697  1.00  0.00     0.190 HD
ENDROOT
BRANCH   2   5
HETATM    5  C   UNL     1      42.811 -13.847   3.245  1.00  0.00     0.134 C 
BRANCH   5   6
HETATM    6  C   UNL     1      42.667 -14.952   4.308  1.00  0.00     0.129 C 
BRANCH   6   7
HETATM    7  N   UNL     1      41.297 -15.033   4.799  1.00  0.00    -0.339 N 
HETATM    8  C   UNL     1      41.001 -14.874   6.118  1.00  0.00     0.292 C 
HETATM    9  N   UNL     1      39.676 -15.013   6.368  1.00  0.00    -0.254 NA
HETATM   10  O   UNL     1      41.801 -14.631   7.008  1.00  0.00    -0.254 OA
HETATM   11  H   UNL     1      39.052 -14.610   5.684  1.00  0.00     0.128 HD
HETATM   12  H   UNL     1      39.438 -14.783   7.326  1.00  0.00     0.128 HD
HETATM   13  H   UNL     1      40.623 -15.557   4.259  1.00  0.00     0.164 HD
ENDBRANCH   6   7
BRANCH   6  14
HETATM   14  C   UNL     1      43.090 -16.336   3.815  1.00  0.00    -0.013 A 
HETATM   15  C   UNL     1      43.945 -17.159   4.577  1.00  0.00     0.042 A 
HETATM   16 CL   UNL     1      44.601 -16.659   6.097  1.00  0.00    -0.084 Cl
HETATM   17  C   UNL     1      44.288 -18.443   4.138  1.00  0.00     0.024 A 
HETATM   18  C   UNL     1      43.784 -18.936   2.938  1.00  0.00     0.002 A 
HETATM   19  C   UNL     1      42.926 -18.148   2.177  1.00  0.00     0.001 A 
HETATM   20  C   UNL     1      42.576 -16.867   2.615  1.00  0.00     0.011 A 
ENDBRANCH   6  14
ENDBRANCH   5   6
ENDBRANCH   2   5
BRANCH   1  21
HETATM   21  N   UNL     1      44.292 -11.520   5.754  1.00  0.00    -0.266 N 
HETATM   22  C   UNL     1      44.592 -11.586   7.103  1.00  0.00     0.260 C 
HETATM   23  O   UNL     1      44.136 -12.452   7.851  1.00  0.00    -0.269 OA
HETATM   24  H   UNL     1      44.860 -10.960   5.120  1.00  0.00     0.190 HD
BRANCH  22  25
HETATM   25  C   UNL     1      45.544 -10.497   7.574  1.00  0.00     0.280 C 
BRANCH  25  26
HETATM   26  O   UNL     1      45.526 -10.472   8.999  1.00  0.00    -0.342 OA
BRANCH  26  27
HETATM   27  C   UNL     1      44.734  -9.505   9.554  1.00  0.00     0.069 A 
HETATM   28  C   UNL     1      44.312  -9.488  10.885  1.00  0.00     0.043 A 
HETATM   29  C   UNL     1      43.511  -8.437  11.362  1.00  0.00    -0.059 A 
HETATM   30  C   UNL     1      43.086  -8.390  12.800  1.00  0.00     0.048 C 
HETATM   31  C   UNL     1      43.160  -7.396  10.494  1.00  0.00     0.007 A 
HETATM   32  C   UNL     1      43.595  -7.406   9.169  1.00  0.00     0.003 A 
HETATM   33  C   UNL     1      44.387  -8.455   8.704  1.00  0.00     0.037 A 
ENDBRANCH  26  27
ENDBRANCH  25  26
ENDBRANCH  22  25
ENDBRANCH   1  21
TORSDOF 8
ENDMDL
MODEL 2
REMARK VINA RESULT:      -8.5      6.577      9.329
REMARK  8 active torsions:
REMARK  status: ('A' for Active; 'I' for Inactive)
REMARK    1  A    between atoms: C_4  and  O_5 
REMARK    2  A    between atoms: O_5  and  C_6 
REMARK    3  A    between atoms: C_6  and  C_7 
REMARK       I    between atoms: C_7  and  N_8 
REMARK    4  A    between atoms: N_8  and  N_9 
REMARK       I    between atoms: N_9  and  C_10 
REMARK    5  A    between atoms: C_10  and  C_11 
REMARK    6  A    between atoms: C_11  and  C_12 
REMARK    7  A    between atoms: C_12  and  N_13 
REMARK    8  A    between atoms: C_12  and  C_17 
REMARK       I    between atoms: N_13  and  C_14 
REMARK       I    between atoms: C_14  and  N_15 
ROOT
HETATM    1  N   UNL     1      38.647 -13.372   2.544  1.00  0.00    -0.267 N 
HETATM    2  C   UNL     1      38.919 -12.032   2.343  1.00  0.00     0.238 C 
HETATM    3  O   UNL     1      39.778 -11.412   2.969  1.00  0.00    -0.272 OA
HETATM    4  H   UNL     1      38.178 -13.937   1.842  1.00  0.00     0.190 HD
ENDROOT
BRANCH   2   5
HETATM    5  C   UNL     1      38.063 -11.373   1.283  1.00  0.00     0.134 C 
BRANCH   5   6
HETATM    6  C   UNL     1      38.814 -11.207  -0.051  1.00  0.00     0.129 C 
BRANCH   6   7
HETATM    7  N   UNL     1      40.228 -10.932   0.173  1.00  0.00    -0.339 N 
HETATM    8  C   UNL     1      40.732  -9.670   0.090  1.00  0.00     0.292 C 
HETATM    9  N   UNL     1      42.070  -9.635   0.307  1.00  0.00    -0.254 NA
HETATM   10  O   UNL     1      40.092  -8.657  -0.146  1.00  0.00    -0.254 OA
HETATM   11  H   UNL     1      42.416 -10.243   1.033  1.00  0.00     0.128 HD
HETATM   12  H   UNL     1      42.428  -8.688   0.358  1.00  0.00     0.128 HD
HETATM   13  H   UNL     1      40.893 -11.679   0.028  1.00  0.00     0.164 HD
ENDBRANCH   6   7
BRANCH   6  14
HETATM   14  C   UNL     1      38.695 -12.417  -0.977  1.00  0.00    -0.013 A 
HETATM   15  C   UNL     1      37.756 -12.450  -2.029  1.00  0.00     0.042 A 
HETATM   16 CL   UNL     1      36.656 -11.150  -2.330  1.00  0.00    -0.084 Cl
HETATM   17  C   UNL     1      37.688 -13.544  -2.900  1.00  0.00     0.024 A 
HETATM   18  C   UNL     1      38.554 -14.622  -2.746  1.00  0.00     0.002 A 
HETATM   19  C   UNL     1      39.500 -14.605  -1.725  1.00  0.00     0.001 A 
HETATM   20  C   UNL     1      39.575 -13.512  -0.856  1.00  0.00     0.011 A 
ENDBRANCH   6  14
ENDBRANCH   5   6
ENDBRANCH   2   5
BRANCH   1  21
HETATM   21  N   UNL     1      39.448 -14.069   3.456  1.00  0.00    -0.266 N 
HETATM   22  C   UNL     1      40.129 -15.184   3.000  1.00  0.00     0.260 C 
HETATM   23  O   UNL     1      39.905 -15.708   1.908  1.00  0.00    -0.269 OA
HETATM   24  H   UNL     1      39.810 -13.518   4.233  1.00  0.00     0.190 HD
BRANCH  22  25
HETATM   25  C   UNL     1      41.185 -15.696   3.968  1.00  0.00     0.280 C 
BRANCH  25  26
HETATM   26  O   UNL     1      42.392 -15.909   3.241  1.00  0.00    -0.342 OA
BRANCH  26  27
HETATM   27  C   UNL     1      42.954 -17.146   3.396  1.00  0.00     0.069 A 
HETATM   28  C   UNL     1      42.948 -18.151   2.426  1.00  0.00     0.043 A 
HETATM   29  C   UNL     1      43.569 -19.385   2.679  1.00  0.00    -0.059 A 
HETATM   30  C   UNL     1      43.602 -20.456   1.628  1.00  0.00     0.048 C 
HETATM   31  C   UNL     1      44.215 -19.588   3.905  1.00  0.00     0.007 A 
HETATM   32  C   UNL     1      44.234 -18.578   4.866  1.00  0.00     0.003 A 
HETATM   33  C   UNL     1      43.611 -17.358   4.607  1.00  0.00     0.037 A 
ENDBRANCH  26  27
ENDBRANCH  25  26
ENDBRANCH  22  25
ENDBRANCH   1  21
TORSDOF 8
ENDMDL
MODEL 3
REMARK VINA RESULT:      -8.4      1.456      1.894
REMARK  8 active torsions:
REMARK  status: ('A' for Active; 'I' for Inactive)
REMARK    1  A    between atoms: C_4  and  O_5 
REMARK    2  A    between atoms: O_5  and  C_6 
REMARK    3  A    between atoms: C_6  and  C_7 
REMARK       I    between atoms: C_7  and  N_8 
REMARK    4  A    between atoms: N_8  and  N_9 
REMARK       I    between atoms: N_9  and  C_10 
REMARK    5  A    between atoms: C_10  and  C_11 
REMARK    6  A    between atoms: C_11  and  C_12 
REMARK    7  A    between atoms: C_12  and  N_13 
REMARK    8  A    between atoms: C_12  and  C_17 
REMARK       I    between atoms: N_13  and  C_14 
REMARK       I    between atoms: C_14  and  N_15 
ROOT
HETATM    1  N   UNL     1      42.839 -12.473   5.264  1.00  0.00    -0.267 N 
HETATM    2  C   UNL     1      43.417 -12.272   4.026  1.00  0.00     0.238 C 
HETATM    3  O   UNL     1      44.006 -11.238   3.711  1.00  0.00    -0.272 OA
HETATM    4  H   UNL     1      42.637 -13.403   5.618  1.00  0.00     0.190 HD
ENDROOT
BRANCH   2   5
HETATM    5  C   UNL     1      43.265 -13.434   3.069  1.00  0.00     0.134 C 
BRANCH   5   6
HETATM    6  C   UNL     1      42.315 -14.516   3.613  1.00  0.00     0.129 C 
BRANCH   6   7
HETATM    7  N   UNL     1      41.022 -14.466   2.942  1.00  0.00    -0.339 N 
HETATM    8  C   UNL     1      39.980 -13.756   3.453  1.00  0.00     0.292 C 
HETATM    9  N   UNL     1      38.863 -13.860   2.692  1.00  0.00    -0.254 NA
HETATM   10  O   UNL     1      40.001 -13.085   4.473  1.00  0.00    -0.254 OA
HETATM   11  H   UNL     1      39.006 -13.851   1.693  1.00  0.00     0.128 HD
HETATM   12  H   UNL     1      38.122 -13.245   3.006  1.00  0.00     0.128 HD
HETATM   13  H   UNL     1      40.773 -15.222   2.319  1.00  0.00     0.164 HD
ENDBRANCH   6   7
BRANCH   6  14
HETATM   14  C   UNL     1      42.870 -15.936   3.494  1.00  0.00    -0.013 A 
HETATM   15  C   UNL     1      43.568 -16.545   4.557  1.00  0.00     0.042 A 
HETATM   16 CL   UNL     1      43.877 -15.730   6.051  1.00  0.00    -0.084 Cl
HETATM   17  C   UNL     1      44.031 -17.862   4.454  1.00  0.00     0.024 A 
HETATM   18  C   UNL     1      43.803 -18.601   3.296  1.00  0.00     0.002 A 
HETATM   19  C   UNL     1      43.102 -18.026   2.241  1.00  0.00     0.001 A 
HETATM   20  C   UNL     1      42.633 -16.713   2.341  1.00  0.00     0.011 A 
ENDBRANCH   6  14
ENDBRANCH   5   6
ENDBRANCH   2   5
BRANCH   1  21
HETATM   21  N   UNL     1      43.002 -11.472   6.230  1.00  0.00    -0.266 N 
HETATM   22  C   UNL     1      44.006 -11.635   7.168  1.00  0.00     0.260 C 
HETATM   23  O   UNL     1      44.613 -12.694   7.325  1.00  0.00    -0.269 OA
HETATM   24  H   UNL     1      42.690 -10.542   5.954  1.00  0.00     0.190 HD
BRANCH  22  25
HETATM   25  C   UNL     1      44.294 -10.381   7.981  1.00  0.00     0.280 C 
BRANCH  25  26
HETATM   26  O   UNL     1      44.648 -10.777   9.303  1.00  0.00    -0.342 OA
BRANCH  26  27
HETATM   27  C   UNL     1      44.009 -10.098  10.304  1.00  0.00     0.069 A 
HETATM   28  C   UNL     1      43.662  -8.747  10.256  1.00  0.00     0.043 A 
HETATM   29  C   UNL     1      42.992  -8.147  11.334  1.00  0.00    -0.059 A 
HETATM   30  C   UNL     1      42.579  -6.705  11.275  1.00  0.00     0.048 C 
HETATM   31  C   UNL     1      42.654  -8.926  12.448  1.00  0.00     0.007 A 
HETATM   32  C   UNL     1      42.986 -10.279  12.489  1.00  0.00     0.003 A 
HETATM   33  C   UNL     1      43.656 -10.864  11.415  1.00  0.00     0.037 A 
ENDBRANCH  26  27
ENDBRANCH  25  26
ENDBRANCH  22  25
ENDBRANCH   1  21
TORSDOF 8
ENDMDL
MODEL 4
REMARK VINA RESULT:      -8.4      1.819      2.652
REMARK  8 active torsions:
REMARK  status: ('A' for Active; 'I' for Inactive)
REMARK    1  A    between atoms: C_4  and  O_5 
REMARK    2  A    between atoms: O_5  and  C_6 
REMARK    3  A    between atoms: C_6  and  C_7 
REMARK       I    between atoms: C_7  and  N_8 
REMARK    4  A    between atoms: N_8  and  N_9 
REMARK       I    between atoms: N_9  and  C_10 
REMARK    5  A    between atoms: C_10  and  C_11 
REMARK    6  A    between atoms: C_11  and  C_12 
REMARK    7  A    between atoms: C_12  and  N_13 
REMARK    8  A    between atoms: C_12  and  C_17 
REMARK       I    between atoms: N_13  and  C_14 
REMARK       I    between atoms: C_14  and  N_15 
ROOT
HETATM    1  N   UNL     1      43.619 -12.338   7.886  1.00  0.00    -0.267 N 
HETATM    2  C   UNL     1      43.643 -12.622   6.534  1.00  0.00     0.238 C 
HETATM    3  O   UNL     1      43.347 -11.805   5.662  1.00  0.00    -0.272 OA
HETATM    4  H   UNL     1      44.142 -12.888   8.560  1.00  0.00     0.190 HD
ENDROOT
BRANCH   2   5
HETATM    5  C   UNL     1      44.060 -14.038   6.200  1.00  0.00     0.134 C 
BRANCH   5   6
HETATM    6  C   UNL     1      42.878 -14.892   5.705  1.00  0.00     0.129 C 
BRANCH   6   7
HETATM    7  N   UNL     1      41.619 -14.167   5.828  1.00  0.00    -0.339 N 
HETATM    8  C   UNL     1      40.521 -14.735   6.396  1.00  0.00     0.292 C 
HETATM    9  N   UNL     1      39.449 -13.904   6.389  1.00  0.00    -0.254 NA
HETATM   10  O   UNL     1      40.460 -15.858   6.873  1.00  0.00    -0.254 OA
HETATM   11  H   UNL     1      39.642 -12.933   6.583  1.00  0.00     0.128 HD
HETATM   12  H   UNL     1      38.666 -14.279   6.910  1.00  0.00     0.128 HD
HETATM   13  H   UNL     1      41.437 -13.406   5.187  1.00  0.00     0.164 HD
ENDBRANCH   6   7
BRANCH   6  14
HETATM   14  C   UNL     1      43.027 -15.366   4.259  1.00  0.00    -0.013 A 
HETATM   15  C   UNL     1      43.289 -16.716   3.951  1.00  0.00     0.042 A 
HETATM   16 CL   UNL     1      43.494 -17.923   5.172  1.00  0.00    -0.084 Cl
HETATM   17  C   UNL     1      43.377 -17.148   2.622  1.00  0.00     0.024 A 
HETATM   18  C   UNL     1      43.200 -16.247   1.575  1.00  0.00     0.002 A 
HETATM   19  C   UNL     1      42.924 -14.913   1.855  1.00  0.00     0.001 A 
HETATM   20  C   UNL     1      42.830 -14.479   3.181  1.00  0.00     0.011 A 
ENDBRANCH   6  14
ENDBRANCH   5   6
ENDBRANCH   2   5
BRANCH   1  21
HETATM   21  N   UNL     1      43.315 -11.026   8.270  1.00  0.00    -0.266 N 
HETATM   22  C   UNL     1      44.282 -10.311   8.955  1.00  0.00     0.260 C 
HETATM   23  O   UNL     1      45.297 -10.830   9.421  1.00  0.00    -0.269 OA
HETATM   24  H   UNL     1      42.624 -10.550   7.693  1.00  0.00     0.190 HD
BRANCH  22  25
HETATM   25  C   UNL     1      43.978  -8.825   9.070  1.00  0.00     0.280 C 
BRANCH  25  26
HETATM   26  O   UNL     1      42.600  -8.674   9.401  1.00  0.00    -0.342 OA
BRANCH  26  27
HETATM   27  C   UNL     1      42.300  -8.824  10.726  1.00  0.00     0.069 A 
HETATM   28  C   UNL     1      41.209  -9.543  11.221  1.00  0.00     0.043 A 
HETATM   29  C   UNL     1      40.998  -9.650  12.605  1.00  0.00    -0.059 A 
HETATM   30  C   UNL     1      39.852 -10.454  13.146  1.00  0.00     0.048 C 
HETATM   31  C   UNL     1      41.907  -9.048  13.484  1.00  0.00     0.007 A 
HETATM   32  C   UNL     1      43.004  -8.344  12.990  1.00  0.00     0.003 A 
HETATM   33  C   UNL     1      43.203  -8.240  11.614  1.00  0.00     0.037 A 
ENDBRANCH  26  27
ENDBRANCH  25  26
ENDBRANCH  22  25
ENDBRANCH   1  21
TORSDOF 8
ENDMDL
MODEL 5
REMARK VINA RESULT:      -8.3      2.424      9.374
REMARK  8 active torsions:
REMARK  status: ('A' for Active; 'I' for Inactive)
REMARK    1  A    between atoms: C_4  and  O_5 
REMARK    2  A    between atoms: O_5  and  C_6 
REMARK    3  A    between atoms: C_6  and  C_7 
REMARK       I    between atoms: C_7  and  N_8 
REMARK    4  A    between atoms: N_8  and  N_9 
REMARK       I    between atoms: N_9  and  C_10 
REMARK    5  A    between atoms: C_10  and  C_11 
REMARK    6  A    between atoms: C_11  and  C_12 
REMARK    7  A    between atoms: C_12  and  N_13 
REMARK    8  A    between atoms: C_12  and  C_17 
REMARK       I    between atoms: N_13  and  C_14 
REMARK       I    between atoms: C_14  and  N_15 
ROOT
HETATM    1  N   UNL     1      42.674 -11.220   7.040  1.00  0.00    -0.267 N 
HETATM    2  C   UNL     1      41.825 -10.130   7.054  1.00  0.00     0.238 C 
HETATM    3  O   UNL     1      40.671 -10.163   6.625  1.00  0.00    -0.272 OA
HETATM    4  H   UNL     1      43.482 -11.279   7.653  1.00  0.00     0.190 HD
ENDROOT
BRANCH   2   5
HETATM    5  C   UNL     1      42.431  -8.873   7.638  1.00  0.00     0.134 C 
BRANCH   5   6
HETATM    6  C   UNL     1      43.477  -9.181   8.725  1.00  0.00     0.129 C 
BRANCH   6   7
HETATM    7  N   UNL     1      44.812  -8.778   8.298  1.00  0.00    -0.339 N 
HETATM    8  C   UNL     1      45.760  -9.693   7.961  1.00  0.00     0.292 C 
HETATM    9  N   UNL     1      46.937  -9.113   7.619  1.00  0.00    -0.254 NA
HETATM   10  O   UNL     1      45.615 -10.906   7.949  1.00  0.00    -0.254 OA
HETATM   11  H   UNL     1      46.871  -8.267   7.073  1.00  0.00     0.128 HD
HETATM   12  H   UNL     1      47.608  -9.783   7.260  1.00  0.00     0.128 HD
HETATM   13  H   UNL     1      45.159  -7.876   8.593  1.00  0.00     0.164 HD
ENDBRANCH   6   7
BRANCH   6  14
HETATM   14  C   UNL     1      43.176  -8.521  10.070  1.00  0.00    -0.013 A 
HETATM   15  C   UNL     1      43.439  -9.181  11.289  1.00  0.00     0.042 A 
HETATM   16 CL   UNL     1      44.084 -10.784  11.354  1.00  0.00    -0.084 Cl
HETATM   17  C   UNL     1      43.204  -8.549  12.515  1.00  0.00     0.024 A 
HETATM   18  C   UNL     1      42.709  -7.248  12.555  1.00  0.00     0.002 A 
HETATM   19  C   UNL     1      42.458  -6.572  11.365  1.00  0.00     0.001 A 
HETATM   20  C   UNL     1      42.697  -7.197  10.138  1.00  0.00     0.011 A 
ENDBRANCH   6  14
ENDBRANCH   5   6
ENDBRANCH   2   5
BRANCH   1  21
HETATM   21  N   UNL     1      42.161 -12.440   6.583  1.00  0.00    -0.266 N 
HETATM   22  C   UNL     1      42.771 -13.030   5.490  1.00  0.00     0.260 C 
HETATM   23  O   UNL     1      43.590 -12.445   4.781  1.00  0.00    -0.269 OA
HETATM   24  H   UNL     1      41.685 -13.006   7.284  1.00  0.00     0.190 HD
BRANCH  22  25
HETATM   25  C   UNL     1      42.340 -14.470   5.251  1.00  0.00     0.280 C 
BRANCH  25  26
HETATM   26  O   UNL     1      43.429 -15.324   5.588  1.00  0.00    -0.342 OA
BRANCH  26  27
HETATM   27  C   UNL     1      43.555 -16.441   4.810  1.00  0.00     0.069 A 
HETATM   28  C   UNL     1      43.907 -17.707   5.284  1.00  0.00     0.043 A 
HETATM   29  C   UNL     1      43.994 -18.796   4.401  1.00  0.00    -0.059 A 
HETATM   30  C   UNL     1      44.333 -20.168   4.907  1.00  0.00     0.048 C 
HETATM   31  C   UNL     1      43.699 -18.604   3.046  1.00  0.00     0.007 A 
HETATM   32  C   UNL     1      43.331 -17.343   2.577  1.00  0.00     0.003 A 
HETATM   33  C   UNL     1      43.253 -16.267   3.460  1.00  0.00     0.037 A 
ENDBRANCH  26  27
ENDBRANCH  25  26
ENDBRANCH  22  25
ENDBRANCH   1  21
TORSDOF 8
ENDMDL
MODEL 6
REMARK VINA RESULT:      -8.3      6.493     10.040
REMARK  8 active torsions:
REMARK  status: ('A' for Active; 'I' for Inactive)
REMARK    1  A    between atoms: C_4  and  O_5 
REMARK    2  A    between atoms: O_5  and  C_6 
REMARK    3  A    between atoms: C_6  and  C_7 
REMARK       I    between atoms: C_7  and  N_8 
REMARK    4  A    between atoms: N_8  and  N_9 
REMARK       I    between atoms: N_9  and  C_10 
REMARK    5  A    between atoms: C_10  and  C_11 
REMARK    6  A    between atoms: C_11  and  C_12 
REMARK    7  A    between atoms: C_12  and  N_13 
REMARK    8  A    between atoms: C_12  and  C_17 
REMARK       I    between atoms: N_13  and  C_14 
REMARK       I    between atoms: C_14  and  N_15 
ROOT
HETATM    1  N   UNL     1      38.690 -13.251   2.184  1.00  0.00    -0.267 N 
HETATM    2  C   UNL     1      39.223 -12.418   1.219  1.00  0.00     0.238 C 
HETATM    3  O   UNL     1      40.407 -12.081   1.192  1.00  0.00    -0.272 OA
HETATM    4  H   UNL     1      37.824 -13.760   2.035  1.00  0.00     0.190 HD
ENDROOT
BRANCH   2   5
HETATM    5  C   UNL     1      38.227 -11.938   0.187  1.00  0.00     0.134 C 
BRANCH   5   6
HETATM    6  C   UNL     1      38.670 -12.273  -1.249  1.00  0.00     0.129 C 
BRANCH   6   7
HETATM    7  N   UNL     1      38.179 -13.583  -1.658  1.00  0.00    -0.339 N 
HETATM    8  C   UNL     1      38.869 -14.362  -2.535  1.00  0.00     0.292 C 
HETATM    9  N   UNL     1      38.229 -15.527  -2.803  1.00  0.00    -0.254 NA
HETATM   10  O   UNL     1      39.943 -14.087  -3.047  1.00  0.00    -0.254 OA
HETATM   11  H   UNL     1      37.776 -15.973  -2.018  1.00  0.00     0.128 HD
HETATM   12  H   UNL     1      38.791 -16.156  -3.364  1.00  0.00     0.128 HD
HETATM   13  H   UNL     1      37.187 -13.766  -1.596  1.00  0.00     0.164 HD
ENDBRANCH   6   7
BRANCH   6  14
HETATM   14  C   UNL     1      38.224 -11.241  -2.285  1.00  0.00    -0.013 A 
HETATM   15  C   UNL     1      39.159 -10.524  -3.060  1.00  0.00     0.042 A 
HETATM   16 CL   UNL     1      40.866 -10.729  -2.877  1.00  0.00    -0.084 Cl
HETATM   17  C   UNL     1      38.737  -9.616  -4.039  1.00  0.00     0.024 A 
HETATM   18  C   UNL     1      37.381  -9.408  -4.270  1.00  0.00     0.002 A 
HETATM   19  C   UNL     1      36.440 -10.117  -3.529  1.00  0.00     0.001 A 
HETATM   20  C   UNL     1      36.856 -11.028  -2.554  1.00  0.00     0.011 A 
ENDBRANCH   6  14
ENDBRANCH   5   6
ENDBRANCH   2   5
BRANCH   1  21
HETATM   21  N   UNL     1      39.565 -13.795   3.131  1.00  0.00    -0.266 N 
HETATM   22  C   UNL     1      40.138 -15.024   2.853  1.00  0.00     0.260 C 
HETATM   23  O   UNL     1      39.761 -15.747   1.930  1.00  0.00    -0.269 OA
HETATM   24  H   UNL     1      40.041 -13.120   3.728  1.00  0.00     0.190 HD
BRANCH  22  25
HETATM   25  C   UNL     1      41.281 -15.392   3.787  1.00  0.00     0.280 C 
BRANCH  25  26
HETATM   26  O   UNL     1      42.418 -15.722   2.993  1.00  0.00    -0.342 OA
BRANCH  26  27
HETATM   27  C   UNL     1      42.962 -16.952   3.238  1.00  0.00     0.069 A 
HETATM   28  C   UNL     1      42.934 -18.028   2.349  1.00  0.00     0.043 A 
HETATM   29  C   UNL     1      43.538 -19.249   2.692  1.00  0.00    -0.059 A 
HETATM   30  C   UNL     1      43.546 -20.398   1.726  1.00  0.00     0.048 C 
HETATM   31  C   UNL     1      44.191 -19.367   3.925  1.00  0.00     0.007 A 
HETATM   32  C   UNL     1      44.233 -18.287   4.806  1.00  0.00     0.003 A 
HETATM   33  C   UNL     1      43.626 -17.081   4.458  1.00  0.00     0.037 A 
ENDBRANCH  26  27
ENDBRANCH  25  26
ENDBRANCH  22  25
ENDBRANCH   1  21
TORSDOF 8
ENDMDL
MODEL 7
REMARK VINA RESULT:      -8.2      2.007      2.952
REMARK  8 active torsions:
REMARK  status: ('A' for Active; 'I' for Inactive)
REMARK    1  A    between atoms: C_4  and  O_5 
REMARK    2  A    between atoms: O_5  and  C_6 
REMARK    3  A    between atoms: C_6  and  C_7 
REMARK       I    between atoms: C_7  and  N_8 
REMARK    4  A    between atoms: N_8  and  N_9 
REMARK       I    between atoms: N_9  and  C_10 
REMARK    5  A    between atoms: C_10  and  C_11 
REMARK    6  A    between atoms: C_11  and  C_12 
REMARK    7  A    between atoms: C_12  and  N_13 
REMARK    8  A    between atoms: C_12  and  C_17 
REMARK       I    between atoms: N_13  and  C_14 
REMARK       I    between atoms: C_14  and  N_15 
ROOT
HETATM    1  N   UNL     1      43.570 -12.134   7.901  1.00  0.00    -0.267 N 
HETATM    2  C   UNL     1      43.406 -12.177   6.529  1.00  0.00     0.238 C 
HETATM    3  O   UNL     1      42.987 -11.228   5.866  1.00  0.00    -0.272 OA
HETATM    4  H   UNL     1      44.186 -12.778   8.389  1.00  0.00     0.190 HD
ENDROOT
BRANCH   2   5
HETATM    5  C   UNL     1      43.781 -13.498   5.896  1.00  0.00     0.134 C 
BRANCH   5   6
HETATM    6  C   UNL     1      42.544 -14.338   5.525  1.00  0.00     0.129 C 
BRANCH   6   7
HETATM    7  N   UNL     1      41.362 -13.496   5.384  1.00  0.00    -0.339 N 
HETATM    8  C   UNL     1      40.178 -13.826   5.968  1.00  0.00     0.292 C 
HETATM    9  N   UNL     1      39.201 -12.927   5.693  1.00  0.00    -0.254 NA
HETATM   10  O   UNL     1      39.972 -14.805   6.668  1.00  0.00    -0.254 OA
HETATM   11  H   UNL     1      39.481 -11.957   5.689  1.00  0.00     0.128 HD
HETATM   12  H   UNL     1      38.352 -13.107   6.217  1.00  0.00     0.128 HD
HETATM   13  H   UNL     1      41.300 -12.884   4.582  1.00  0.00     0.164 HD
ENDBRANCH   6   7
BRANCH   6  14
HETATM   14  C   UNL     1      42.717 -15.152   4.243  1.00  0.00    -0.013 A 
HETATM   15  C   UNL     1      43.052 -14.536   3.019  1.00  0.00     0.042 A 
HETATM   16 CL   UNL     1      43.259 -12.825   2.868  1.00  0.00    -0.084 Cl
HETATM   17  C   UNL     1      43.255 -15.297   1.861  1.00  0.00     0.024 A 
HETATM   18  C   UNL     1      43.134 -16.683   1.899  1.00  0.00     0.002 A 
HETATM   19  C   UNL     1      42.820 -17.314   3.098  1.00  0.00     0.001 A 
HETATM   20  C   UNL     1      42.623 -16.558   4.258  1.00  0.00     0.011 A 
ENDBRANCH   6  14
ENDBRANCH   5   6
ENDBRANCH   2   5
BRANCH   1  21
HETATM   21  N   UNL     1      43.315 -10.920   8.550  1.00  0.00    -0.266 N 
HETATM   22  C   UNL     1      44.374 -10.285   9.175  1.00  0.00     0.260 C 
HETATM   23  O   UNL     1      45.463 -10.826   9.368  1.00  0.00    -0.269 OA
HETATM   24  H   UNL     1      42.526 -10.387   8.188  1.00  0.00     0.190 HD
BRANCH  22  25
HETATM   25  C   UNL     1      44.069  -8.854   9.593  1.00  0.00     0.280 C 
BRANCH  25  26
HETATM   26  O   UNL     1      42.695  -8.780   9.965  1.00  0.00    -0.342 OA
BRANCH  26  27
HETATM   27  C   UNL     1      42.455  -8.790  11.311  1.00  0.00     0.069 A 
HETATM   28  C   UNL     1      42.997  -7.884  12.225  1.00  0.00     0.043 A 
HETATM   29  C   UNL     1      42.674  -7.971  13.589  1.00  0.00    -0.059 A 
HETATM   30  C   UNL     1      43.220  -6.977  14.571  1.00  0.00     0.048 C 
HETATM   31  C   UNL     1      41.782  -8.962  14.018  1.00  0.00     0.007 A 
HETATM   32  C   UNL     1      41.229  -9.856  13.103  1.00  0.00     0.003 A 
HETATM   33  C   UNL     1      41.560  -9.764  11.752  1.00  0.00     0.037 A 
ENDBRANCH  26  27
ENDBRANCH  25  26
ENDBRANCH  22  25
ENDBRANCH   1  21
TORSDOF 8
ENDMDL
MODEL 8
REMARK VINA RESULT:      -8.2      5.398      8.300
REMARK  8 active torsions:
REMARK  status: ('A' for Active; 'I' for Inactive)
REMARK    1  A    between atoms: C_4  and  O_5 
REMARK    2  A    between atoms: O_5  and  C_6 
REMARK    3  A    between atoms: C_6  and  C_7 
REMARK       I    between atoms: C_7  and  N_8 
REMARK    4  A    between atoms: N_8  and  N_9 
REMARK       I    between atoms: N_9  and  C_10 
REMARK    5  A    between atoms: C_10  and  C_11 
REMARK    6  A    between atoms: C_11  and  C_12 
REMARK    7  A    between atoms: C_12  and  N_13 
REMARK    8  A    between atoms: C_12  and  C_17 
REMARK       I    between atoms: N_13  and  C_14 
REMARK       I    between atoms: C_14  and  N_15 
ROOT
HETATM    1  N   UNL     1      42.087 -13.573   1.680  1.00  0.00    -0.267 N 
HETATM    2  C   UNL     1      41.974 -14.935   1.478  1.00  0.00     0.238 C 
HETATM    3  O   UNL     1      40.962 -15.474   1.029  1.00  0.00    -0.272 OA
HETATM    4  H   UNL     1      42.990 -13.113   1.750  1.00  0.00     0.190 HD
ENDROOT
BRANCH   2   5
HETATM    5  C   UNL     1      43.204 -15.728   1.863  1.00  0.00     0.134 C 
BRANCH   5   6
HETATM    6  C   UNL     1      43.071 -16.369   3.257  1.00  0.00     0.129 C 
BRANCH   6   7
HETATM    7  N   UNL     1      41.735 -16.163   3.804  1.00  0.00    -0.339 N 
HETATM    8  C   UNL     1      41.523 -15.369   4.889  1.00  0.00     0.292 C 
HETATM    9  N   UNL     1      40.218 -15.332   5.253  1.00  0.00    -0.254 NA
HETATM   10  O   UNL     1      42.378 -14.742   5.496  1.00  0.00    -0.254 OA
HETATM   11  H   UNL     1      39.550 -15.301   4.497  1.00  0.00     0.128 HD
HETATM   12  H   UNL     1      40.041 -14.656   5.986  1.00  0.00     0.128 HD
HETATM   13  H   UNL     1      41.031 -16.866   3.631  1.00  0.00     0.164 HD
ENDBRANCH   6   7
BRANCH   6  14
HETATM   14  C   UNL     1      43.378 -17.867   3.275  1.00  0.00    -0.013 A 
HETATM   15  C   UNL     1      43.891 -18.499   4.426  1.00  0.00     0.042 A 
HETATM   16 CL   UNL     1      44.242 -17.633   5.881  1.00  0.00    -0.084 Cl
HETATM   17  C   UNL     1      44.124 -19.880   4.446  1.00  0.00     0.024 A 
HETATM   18  C   UNL     1      43.845 -20.658   3.326  1.00  0.00     0.002 A 
HETATM   19  C   UNL     1      43.323 -20.058   2.185  1.00  0.00     0.001 A 
HETATM   20  C   UNL     1      43.083 -18.681   2.162  1.00  0.00     0.011 A 
ENDBRANCH   6  14
ENDBRANCH   5   6
ENDBRANCH   2   5
BRANCH   1  21
HETATM   21  N   UNL     1      41.017 -12.764   1.277  1.00  0.00    -0.266 N 
HETATM   22  C   UNL     1      41.245 -11.406   1.149  1.00  0.00     0.260 C 
HETATM   23  O   UNL     1      42.263 -10.853   1.565  1.00  0.00    -0.269 OA
HETATM   24  H   UNL     1      40.301 -13.229   0.721  1.00  0.00     0.190 HD
BRANCH  22  25
HETATM   25  C   UNL     1      40.125 -10.662   0.436  1.00  0.00     0.280 C 
BRANCH  25  26
HETATM   26  O   UNL     1      40.292 -10.840  -0.968  1.00  0.00    -0.342 OA
BRANCH  26  27
HETATM   27  C   UNL     1      39.347 -11.621  -1.572  1.00  0.00     0.069 A 
HETATM   28  C   UNL     1      39.523 -12.963  -1.917  1.00  0.00     0.043 A 
HETATM   29  C   UNL     1      38.480 -13.683  -2.522  1.00  0.00    -0.059 A 
HETATM   30  C   UNL     1      38.647 -15.135  -2.860  1.00  0.00     0.048 C 
HETATM   31  C   UNL     1      37.253 -13.048  -2.753  1.00  0.00     0.007 A 
HETATM   32  C   UNL     1      37.073 -11.713  -2.393  1.00  0.00     0.003 A 
HETATM   33  C   UNL     1      38.115 -11.005  -1.797  1.00  0.00     0.037 A 
ENDBRANCH  26  27
ENDBRANCH  25  26
ENDBRANCH  22  25
ENDBRANCH   1  21
TORSDOF 8
ENDMDL
MODEL 9
REMARK VINA RESULT:      -8.2      1.746      2.992
REMARK  8 active torsions:
REMARK  status: ('A' for Active; 'I' for Inactive)
REMARK    1  A    between atoms: C_4  and  O_5 
REMARK    2  A    between atoms: O_5  and  C_6 
REMARK    3  A    between atoms: C_6  and  C_7 
REMARK       I    between atoms: C_7  and  N_8 
REMARK    4  A    between atoms: N_8  and  N_9 
REMARK       I    between atoms: N_9  and  C_10 
REMARK    5  A    between atoms: C_10  and  C_11 
REMARK    6  A    between atoms: C_11  and  C_12 
REMARK    7  A    between atoms: C_12  and  N_13 
REMARK    8  A    between atoms: C_12  and  C_17 
REMARK       I    between atoms: N_13  and  C_14 
REMARK       I    between atoms: C_14  and  N_15 
ROOT
HETATM    1  N   UNL     1      42.668 -12.762   6.841  1.00  0.00    -0.267 N 
HETATM    2  C   UNL     1      42.735 -14.138   6.733  1.00  0.00     0.238 C 
HETATM    3  O   UNL     1      43.582 -14.824   7.305  1.00  0.00    -0.272 OA
HETATM    4  H   UNL     1      41.817 -12.248   6.633  1.00  0.00     0.190 HD
ENDROOT
BRANCH   2   5
HETATM    5  C   UNL     1      41.676 -14.748   5.841  1.00  0.00     0.134 C 
BRANCH   5   6
HETATM    6  C   UNL     1      42.095 -14.753   4.359  1.00  0.00     0.129 C 
BRANCH   6   7
HETATM    7  N   UNL     1      43.137 -13.765   4.106  1.00  0.00    -0.339 N 
HETATM    8  C   UNL     1      42.972 -12.773   3.189  1.00  0.00     0.292 C 
HETATM    9  N   UNL     1      44.066 -11.979   3.087  1.00  0.00    -0.254 NA
HETATM   10  O   UNL     1      41.972 -12.579   2.514  1.00  0.00    -0.254 OA
HETATM   11  H   UNL     1      44.535 -11.759   3.953  1.00  0.00     0.128 HD
HETATM   12  H   UNL     1      43.906 -11.175   2.491  1.00  0.00     0.128 HD
HETATM   13  H   UNL     1      44.094 -14.010   4.319  1.00  0.00     0.164 HD
ENDBRANCH   6   7
BRANCH   6  14
HETATM   14  C   UNL     1      42.585 -16.114   3.866  1.00  0.00    -0.013 A 
HETATM   15  C   UNL     1      42.066 -16.703   2.694  1.00  0.00     0.042 A 
HETATM   16 CL   UNL     1      40.824 -15.953   1.752  1.00  0.00    -0.084 Cl
HETATM   17  C   UNL     1      42.555 -17.928   2.225  1.00  0.00     0.024 A 
HETATM   18  C   UNL     1      43.573 -18.588   2.908  1.00  0.00     0.002 A 
HETATM   19  C   UNL     1      44.112 -18.019   4.057  1.00  0.00     0.001 A 
HETATM   20  C   UNL     1      43.630 -16.793   4.526  1.00  0.00     0.011 A 
ENDBRANCH   6  14
ENDBRANCH   5   6
ENDBRANCH   2   5
BRANCH   1  21
HETATM   21  N   UNL     1      43.569 -12.132   7.708  1.00  0.00    -0.266 N 
HETATM   22  C   UNL     1      44.672 -11.508   7.154  1.00  0.00     0.260 C 
HETATM   23  O   UNL     1      45.009 -11.657   5.979  1.00  0.00    -0.269 OA
HETATM   24  H   UNL     1      43.175 -11.810   8.591  1.00  0.00     0.190 HD
BRANCH  22  25
HETATM   25  C   UNL     1      45.425 -10.615   8.129  1.00  0.00     0.280 C 
BRANCH  25  26
HETATM   26  O   UNL     1      45.058 -10.990   9.454  1.00  0.00    -0.342 OA
BRANCH  26  27
HETATM   27  C   UNL     1      44.345 -10.052  10.148  1.00  0.00     0.069 A 
HETATM   28  C   UNL     1      44.072  -8.760   9.693  1.00  0.00     0.043 A 
HETATM   29  C   UNL     1      43.314  -7.876  10.479  1.00  0.00    -0.059 A 
HETATM   30  C   UNL     1      42.983  -6.500   9.981  1.00  0.00     0.048 C 
HETATM   31  C   UNL     1      42.815  -8.313  11.712  1.00  0.00     0.007 A 
HETATM   32  C   UNL     1      43.073  -9.608  12.158  1.00  0.00     0.003 A 
HETATM   33  C   UNL     1      43.830 -10.477  11.373  1.00  0.00     0.037 A 
ENDBRANCH  26  27
ENDBRANCH  25  26
ENDBRANCH  22  25
ENDBRANCH   1  21
TORSDOF 8
ENDMDL
MODEL 10
REMARK VINA RESULT:      -7.9      2.844      9.394
REMARK  8 active torsions:
REMARK  status: ('A' for Active; 'I' for Inactive)
REMARK    1  A    between atoms: C_4  and  O_5 
REMARK    2  A    between atoms: O_5  and  C_6 
REMARK    3  A    between atoms: C_6  and  C_7 
REMARK       I    between atoms: C_7  and  N_8 
REMARK    4  A    between atoms: N_8  and  N_9 
REMARK       I    between atoms: N_9  and  C_10 
REMARK    5  A    between atoms: C_10  and  C_11 
REMARK    6  A    between atoms: C_11  and  C_12 
REMARK    7  A    between atoms: C_12  and  N_13 
REMARK    8  A    between atoms: C_12  and  C_17 
REMARK       I    between atoms: N_13  and  C_14 
REMARK       I    between atoms: C_14  and  N_15 
ROOT
HETATM    1  N   UNL     1      44.097 -13.198   7.130  1.00  0.00    -0.267 N 
HETATM    2  C   UNL     1      44.368 -11.884   6.802  1.00  0.00     0.238 C 
HETATM    3  O   UNL     1      44.360 -11.456   5.648  1.00  0.00    -0.272 OA
HETATM    4  H   UNL     1      43.806 -13.470   8.064  1.00  0.00     0.190 HD
ENDROOT
BRANCH   2   5
HETATM    5  C   UNL     1      44.688 -10.998   7.986  1.00  0.00     0.134 C 
BRANCH   5   6
HETATM    6  C   UNL     1      43.599  -9.936   8.229  1.00  0.00     0.129 C 
BRANCH   6   7
HETATM    7  N   UNL     1      42.302 -10.395   7.749  1.00  0.00    -0.339 N 
HETATM    8  C   UNL     1      41.566  -9.663   6.869  1.00  0.00     0.292 C 
HETATM    9  N   UNL     1      40.382 -10.253   6.571  1.00  0.00    -0.254 NA
HETATM   10  O   UNL     1      41.894  -8.595   6.375  1.00  0.00    -0.254 OA
HETATM   11  H   UNL     1      40.404 -11.256   6.461  1.00  0.00     0.128 HD
HETATM   12  H   UNL     1      39.885  -9.770   5.833  1.00  0.00     0.128 HD
HETATM   13  H   UNL     1      41.781 -11.047   8.320  1.00  0.00     0.164 HD
ENDBRANCH   6   7
BRANCH   6  14
HETATM   14  C   UNL     1      43.459  -9.526   9.695  1.00  0.00    -0.013 A 
HETATM   15  C   UNL     1      43.310  -8.175  10.071  1.00  0.00     0.042 A 
HETATM   16 CL   UNL     1      43.309  -6.887   8.917  1.00  0.00    -0.084 Cl
HETATM   17  C   UNL     1      43.135  -7.815  11.412  1.00  0.00     0.024 A 
HETATM   18  C   UNL     1      43.098  -8.791  12.404  1.00  0.00     0.002 A 
HETATM   19  C   UNL     1      43.226 -10.132  12.056  1.00  0.00     0.001 A 
HETATM   20  C   UNL     1      43.396 -10.496  10.716  1.00  0.00     0.011 A 
ENDBRANCH   6  14
ENDBRANCH   5   6
ENDBRANCH   2   5
BRANCH   1  21
HETATM   21  N   UNL     1      43.719 -14.063   6.095  1.00  0.00    -0.266 N 
HETATM   22  C   UNL     1      42.943 -15.161   6.419  1.00  0.00     0.260 C 
HETATM   23  O   UNL     1      42.748 -15.527   7.579  1.00  0.00    -0.269 OA
HETATM   24  H   UNL     1      43.667 -13.641   5.169  1.00  0.00     0.190 HD
BRANCH  22  25
HETATM   25  C   UNL     1      42.346 -15.868   5.211  1.00  0.00     0.280 C 
BRANCH  25  26
HETATM   26  O   UNL     1      43.413 -16.269   4.356  1.00  0.00    -0.342 OA
BRANCH  26  27
HETATM   27  C   UNL     1      43.559 -17.620   4.201  1.00  0.00     0.069 A 
HETATM   28  C   UNL     1      43.484 -18.296   2.982  1.00  0.00     0.043 A 
HETATM   29  C   UNL     1      43.665 -19.687   2.930  1.00  0.00    -0.059 A 
HETATM   30  C   UNL     1      43.625 -20.417   1.619  1.00  0.00     0.048 C 
HETATM   31  C   UNL     1      43.947 -20.386   4.110  1.00  0.00     0.007 A 
HETATM   32  C   UNL     1      44.039 -19.707   5.325  1.00  0.00     0.003 A 
HETATM   33  C   UNL     1      43.853 -18.327   5.367  1.00  0.00     0.037 A 
ENDBRANCH  26  27
ENDBRANCH  25  26
ENDBRANCH  22  25
ENDBRANCH   1  21
TORSDOF 8
ENDMDL
