MODEL 1
REMARK VINA RESULT:      -9.0      0.000      0.000
REMARK  10 active torsions:
REMARK  status: ('A' for Active; 'I' for Inactive)
REMARK    1  A    between atoms: C_2  and  C_3 
REMARK    2  A    between atoms: C_3  and  C_4 
REMARK    3  A    between atoms: C_4  and  O_5 
REMARK    4  A    between atoms: O_5  and  C_6 
REMARK    5  A    between atoms: C_8  and  C_9 
REMARK       I    between atoms: C_9  and  N_10 
REMARK    6  A    between atoms: N_10  and  C_11 
REMARK    7  A    between atoms: C_11  and  N_12 
REMARK    8  A    between atoms: N_12  and  C_13 
REMARK    9  A    between atoms: C_15  and  O_16 
REMARK   10  A    between atoms: C_17  and  C_18 
ROOT
HETATM    1  N   UNL     1      43.258 -10.422   6.952  1.00  0.00    -0.333 N 
HETATM    2  H   UNL     1      42.688  -9.754   6.428  1.00  0.00     0.168 HD
ENDROOT
BRANCH   1   3
HETATM    3  C   UNL     1      43.994  -9.826   7.946  1.00  0.00     0.179 C 
HETATM    4  S   UNL     1      45.615  -9.420   7.968  1.00  0.00    -0.040 SA
BRANCH   3   5
HETATM    5  N   UNL     1      43.274  -9.506   9.088  1.00  0.00    -0.299 N 
HETATM    6  C   UNL     1      43.398 -10.039  10.365  1.00  0.00     0.257 C 
HETATM    7  O   UNL     1      43.995 -11.090  10.592  1.00  0.00    -0.267 OA
HETATM    8  H   UNL     1      42.634  -8.741   8.937  1.00  0.00     0.171 HD
BRANCH   6   9
HETATM    9  C   UNL     1      42.710  -9.314  11.475  1.00  0.00     0.035 A 
HETATM   10  C   UNL     1      41.322  -9.337  11.648  1.00  0.00     0.053 A 
HETATM   11  C   UNL     1      40.749  -8.639  12.712  1.00  0.00     0.069 A 
HETATM   12  C   UNL     1      41.526  -7.869  13.572  1.00  0.00     0.037 A 
HETATM   13  C   UNL     1      42.906  -7.824  13.390  1.00  0.00     0.004 A 
HETATM   14  C   UNL     1      43.496  -8.546  12.349  1.00  0.00     0.017 A 
BRANCH  11  15
HETATM   15  O   UNL     1      39.392  -8.656  12.872  1.00  0.00    -0.351 OA
BRANCH  15  16
HETATM   16  C   UNL     1      38.795  -7.465  12.341  1.00  0.00     0.175 C 
BRANCH  16  17
HETATM   17  C   UNL     1      37.695  -6.987  13.286  1.00  0.00     0.026 C 
BRANCH  17  18
HETATM   18  C   UNL     1      38.077  -5.699  14.019  1.00  0.00    -0.002 C 
HETATM   19  C   UNL     1      38.630  -5.993  15.404  1.00  0.00     0.005 C 
ENDBRANCH  17  18
ENDBRANCH  16  17
ENDBRANCH  15  16
ENDBRANCH  11  15
ENDBRANCH   6   9
ENDBRANCH   3   5
ENDBRANCH   1   3
BRANCH   1  20
HETATM   20  C   UNL     1      43.162 -11.753   6.497  1.00  0.00     0.036 A 
HETATM   21  C   UNL     1      42.373 -12.177   5.429  1.00  0.00     0.067 A 
HETATM   22  C   UNL     1      42.403 -13.515   5.005  1.00  0.00     0.082 A 
HETATM   23  C   UNL     1      43.229 -14.460   5.632  1.00  0.00     0.050 A 
HETATM   24  C   UNL     1      44.006 -14.024   6.715  1.00  0.00     0.021 A 
HETATM   25  C   UNL     1      43.985 -12.689   7.133  1.00  0.00     0.030 A 
BRANCH  22  26
HETATM   26  O   UNL     1      41.600 -13.883   3.958  1.00  0.00    -0.360 OA
HETATM   27  H   UNL     1      40.887 -14.458   4.281  1.00  0.00     0.217 HD
ENDBRANCH  22  26
BRANCH  23  28
HETATM   28  C   UNL     1      43.345 -15.859   5.218  1.00  0.00     0.183 A 
HETATM   29  O   UNL     1      43.129 -16.145   3.894  1.00  0.00    -0.289 OA
HETATM   30  C   UNL     1      43.382 -17.480   3.796  1.00  0.00     0.107 A 
HETATM   31  C   UNL     1      43.745 -17.936   5.049  1.00  0.00     0.093 A 
HETATM   32  C   UNL     1      43.307 -18.267   2.653  1.00  0.00     0.046 A 
HETATM   33  N   UNL     1      43.730 -16.898   5.945  1.00  0.00    -0.221 NA
HETATM   34  C   UNL     1      44.068 -19.288   5.209  1.00  0.00     0.035 A 
HETATM   35  C   UNL     1      44.007 -20.121   4.081  1.00  0.00     0.009 A 
HETATM   36  C   UNL     1      43.628 -19.627   2.818  1.00  0.00    -0.059 A 
HETATM   37  C   UNL     1      43.606 -20.554   1.636  1.00  0.00     0.048 C 
ENDBRANCH  23  28
ENDBRANCH   1  20
TORSDOF 10
ENDMDL
MODEL 2
REMARK VINA RESULT:      -8.9      2.920      4.870
REMARK  10 active torsions:
REMARK  status: ('A' for Active; 'I' for Inactive)
REMARK    1  A    between atoms: C_2  and  C_3 
REMARK    2  A    between atoms: C_3  and  C_4 
REMARK    3  A    between atoms: C_4  and  O_5 
REMARK    4  A    between atoms: O_5  and  C_6 
REMARK    5  A    between atoms: C_8  and  C_9 
REMARK       I    between atoms: C_9  and  N_10 
REMARK    6  A    between atoms: N_10  and  C_11 
REMARK    7  A    between atoms: C_11  and  N_12 
REMARK    8  A    between atoms: N_12  and  C_13 
REMARK    9  A    between atoms: C_15  and  O_16 
REMARK   10  A    between atoms: C_17  and  C_18 
ROOT
HETATM    1  N   UNL     1      40.148  -9.823   5.066  1.00  0.00    -0.333 N 
HETATM    2  H   UNL     1      39.165  -9.715   4.804  1.00  0.00     0.168 HD
ENDROOT
BRANCH   1   3
HETATM    3  C   UNL     1      40.767  -8.622   5.307  1.00  0.00     0.179 C 
HETATM    4  S   UNL     1      40.708  -7.201   4.427  1.00  0.00    -0.040 SA
BRANCH   3   5
HETATM    5  N   UNL     1      41.539  -8.588   6.459  1.00  0.00    -0.299 N 
HETATM    6  C   UNL     1      41.127  -8.714   7.780  1.00  0.00     0.257 C 
HETATM    7  O   UNL     1      39.953  -8.595   8.124  1.00  0.00    -0.267 OA
HETATM    8  H   UNL     1      42.526  -8.526   6.258  1.00  0.00     0.171 HD
BRANCH   6   9
HETATM    9  C   UNL     1      42.189  -8.939   8.806  1.00  0.00     0.035 A 
HETATM   10  C   UNL     1      43.554  -8.848   8.514  1.00  0.00     0.053 A 
HETATM   11  C   UNL     1      44.491  -9.066   9.525  1.00  0.00     0.069 A 
HETATM   12  C   UNL     1      44.095  -9.432  10.808  1.00  0.00     0.037 A 
HETATM   13  C   UNL     1      42.738  -9.547  11.098  1.00  0.00     0.004 A 
HETATM   14  C   UNL     1      41.789  -9.297  10.103  1.00  0.00     0.017 A 
BRANCH  11  15
HETATM   15  O   UNL     1      45.823  -8.986   9.234  1.00  0.00    -0.351 OA
BRANCH  15  16
HETATM   16  C   UNL     1      46.069  -9.294   7.855  1.00  0.00     0.175 C 
BRANCH  16  17
HETATM   17  C   UNL     1      46.239 -10.803   7.696  1.00  0.00     0.026 C 
BRANCH  17  18
HETATM   18  C   UNL     1      45.374 -11.370   6.569  1.00  0.00    -0.002 C 
HETATM   19  C   UNL     1      44.212 -12.184   7.118  1.00  0.00     0.005 C 
ENDBRANCH  17  18
ENDBRANCH  16  17
ENDBRANCH  15  16
ENDBRANCH  11  15
ENDBRANCH   6   9
ENDBRANCH   3   5
ENDBRANCH   1   3
BRANCH   1  20
HETATM   20  C   UNL     1      40.606 -11.156   5.076  1.00  0.00     0.036 A 
HETATM   21  C   UNL     1      40.012 -12.199   5.784  1.00  0.00     0.067 A 
HETATM   22  C   UNL     1      40.501 -13.510   5.670  1.00  0.00     0.082 A 
HETATM   23  C   UNL     1      41.589 -13.813   4.839  1.00  0.00     0.050 A 
HETATM   24  C   UNL     1      42.188 -12.752   4.144  1.00  0.00     0.021 A 
HETATM   25  C   UNL     1      41.696 -11.446   4.249  1.00  0.00     0.030 A 
BRANCH  22  26
HETATM   26  O   UNL     1      39.888 -14.498   6.397  1.00  0.00    -0.360 OA
HETATM   27  H   UNL     1      40.218 -15.365   6.110  1.00  0.00     0.217 HD
ENDBRANCH  22  26
BRANCH  23  28
HETATM   28  C   UNL     1      42.125 -15.159   4.637  1.00  0.00     0.183 A 
HETATM   29  O   UNL     1      41.945 -15.732   3.404  1.00  0.00    -0.289 OA
HETATM   30  C   UNL     1      42.605 -16.921   3.488  1.00  0.00     0.107 A 
HETATM   31  C   UNL     1      43.159 -17.009   4.751  1.00  0.00     0.093 A 
HETATM   32  C   UNL     1      42.728 -17.885   2.495  1.00  0.00     0.046 A 
HETATM   33  N   UNL     1      42.859 -15.882   5.472  1.00  0.00    -0.221 NA
HETATM   34  C   UNL     1      43.905 -18.145   5.083  1.00  0.00     0.035 A 
HETATM   35  C   UNL     1      44.056 -19.146   4.111  1.00  0.00     0.009 A 
HETATM   36  C   UNL     1      43.474 -19.028   2.834  1.00  0.00    -0.059 A 
HETATM   37  C   UNL     1      43.689 -20.114   1.819  1.00  0.00     0.048 C 
ENDBRANCH  23  28
ENDBRANCH   1  20
TORSDOF 10
ENDMDL
MODEL 3
REMARK VINA RESULT:      -8.8      1.576      2.142
REMARK  10 active torsions:
REMARK  status: ('A' for Active; 'I' for Inactive)
REMARK    1  A    between atoms: C_2  and  C_3 
REMARK    2  A    between atoms: C_3  and  C_4 
REMARK    3  A    between atoms: C_4  and  O_5 
REMARK    4  A    between atoms: O_5  and  C_6 
REMARK    5  A    between atoms: C_8  and  C_9 
REMARK       I    between atoms: C_9  and  N_10 
REMARK    6  A    between atoms: N_10  and  C_11 
REMARK    7  A    between atoms: C_11  and  N_12 
REMARK    8  A    between atoms: N_12  and  C_13 
REMARK    9  A    between atoms: C_15  and  O_16 
REMARK   10  A    between atoms: C_17  and  C_18 
ROOT
HETATM    1  N   UNL     1      43.301 -10.477   6.956  1.00  0.00    -0.333 N 
HETATM    2  H   UNL     1      42.732  -9.799   6.444  1.00  0.00     0.168 HD
ENDROOT
BRANCH   1   3
HETATM    3  C   UNL     1      44.043  -9.899   7.956  1.00  0.00     0.179 C 
HETATM    4  S   UNL     1      45.662  -9.481   7.971  1.00  0.00    -0.040 SA
BRANCH   3   5
HETATM    5  N   UNL     1      43.333  -9.610   9.112  1.00  0.00    -0.299 N 
HETATM    6  C   UNL     1      41.980  -9.321   9.246  1.00  0.00     0.257 C 
HETATM    7  O   UNL     1      41.271  -9.005   8.293  1.00  0.00    -0.267 OA
HETATM    8  H   UNL     1      43.900  -9.695   9.942  1.00  0.00     0.171 HD
BRANCH   6   9
HETATM    9  C   UNL     1      41.414  -9.341  10.628  1.00  0.00     0.035 A 
HETATM   10  C   UNL     1      42.216  -9.317  11.774  1.00  0.00     0.053 A 
HETATM   11  C   UNL     1      41.616  -9.332  13.034  1.00  0.00     0.069 A 
HETATM   12  C   UNL     1      40.235  -9.430  13.175  1.00  0.00     0.037 A 
HETATM   13  C   UNL     1      39.434  -9.476  12.037  1.00  0.00     0.004 A 
HETATM   14  C   UNL     1      40.020  -9.427  10.769  1.00  0.00     0.017 A 
BRANCH  11  15
HETATM   15  O   UNL     1      42.402  -9.320  14.152  1.00  0.00    -0.351 OA
BRANCH  15  16
HETATM   16  C   UNL     1      42.127  -8.171  14.964  1.00  0.00     0.175 C 
BRANCH  16  17
HETATM   17  C   UNL     1      42.880  -6.965  14.407  1.00  0.00     0.026 C 
BRANCH  17  18
HETATM   18  C   UNL     1      41.937  -5.856  13.936  1.00  0.00    -0.002 C 
HETATM   19  C   UNL     1      42.196  -5.490  12.483  1.00  0.00     0.005 C 
ENDBRANCH  17  18
ENDBRANCH  16  17
ENDBRANCH  15  16
ENDBRANCH  11  15
ENDBRANCH   6   9
ENDBRANCH   3   5
ENDBRANCH   1   3
BRANCH   1  20
HETATM   20  C   UNL     1      43.200 -11.800   6.480  1.00  0.00     0.036 A 
HETATM   21  C   UNL     1      42.454 -12.195   5.371  1.00  0.00     0.067 A 
HETATM   22  C   UNL     1      42.476 -13.529   4.933  1.00  0.00     0.082 A 
HETATM   23  C   UNL     1      43.251 -14.498   5.586  1.00  0.00     0.050 A 
HETATM   24  C   UNL     1      43.985 -14.091   6.710  1.00  0.00     0.021 A 
HETATM   25  C   UNL     1      43.972 -12.760   7.143  1.00  0.00     0.030 A 
BRANCH  22  26
HETATM   26  O   UNL     1      41.716 -13.868   3.844  1.00  0.00    -0.360 OA
HETATM   27  H   UNL     1      42.296 -14.157   3.120  1.00  0.00     0.217 HD
ENDBRANCH  22  26
BRANCH  23  28
HETATM   28  C   UNL     1      43.358 -15.894   5.162  1.00  0.00     0.183 A 
HETATM   29  O   UNL     1      43.171 -16.165   3.830  1.00  0.00    -0.289 OA
HETATM   30  C   UNL     1      43.407 -17.502   3.724  1.00  0.00     0.107 A 
HETATM   31  C   UNL     1      43.732 -17.976   4.982  1.00  0.00     0.093 A 
HETATM   32  C   UNL     1      43.350 -18.277   2.572  1.00  0.00     0.046 A 
HETATM   33  N   UNL     1      43.709 -16.946   5.887  1.00  0.00    -0.221 NA
HETATM   34  C   UNL     1      44.031 -19.334   5.136  1.00  0.00     0.035 A 
HETATM   35  C   UNL     1      43.987 -20.155   3.998  1.00  0.00     0.009 A 
HETATM   36  C   UNL     1      43.647 -19.642   2.732  1.00  0.00    -0.059 A 
HETATM   37  C   UNL     1      43.641 -20.558   1.540  1.00  0.00     0.048 C 
ENDBRANCH  23  28
ENDBRANCH   1  20
TORSDOF 10
ENDMDL
MODEL 4
REMARK VINA RESULT:      -8.7      2.531      3.380
REMARK  10 active torsions:
REMARK  status: ('A' for Active; 'I' for Inactive)
REMARK    1  A    between atoms: C_2  and  C_3 
REMARK    2  A    between atoms: C_3  and  C_4 
REMARK    3  A    between atoms: C_4  and  O_5 
REMARK    4  A    between atoms: O_5  and  C_6 
REMARK    5  A    between atoms: C_8  and  C_9 
REMARK       I    between atoms: C_9  and  N_10 
REMARK    6  A    between atoms: N_10  and  C_11 
REMARK    7  A    between atoms: C_11  and  N_12 
REMARK    8  A    between atoms: N_12  and  C_13 
REMARK    9  A    between atoms: C_15  and  O_16 
REMARK   10  A    between atoms: C_17  and  C_18 
ROOT
HETATM    1  N   UNL     1      41.453  -9.337   4.241  1.00  0.00    -0.333 N 
HETATM    2  H   UNL     1      41.506  -8.930   3.304  1.00  0.00     0.168 HD
ENDROOT
BRANCH   1   3
HETATM    3  C   UNL     1      41.226  -8.397   5.216  1.00  0.00     0.179 C 
HETATM    4  S   UNL     1      40.157  -7.111   5.221  1.00  0.00    -0.040 SA
BRANCH   3   5
HETATM    5  N   UNL     1      41.987  -8.557   6.364  1.00  0.00    -0.299 N 
HETATM    6  C   UNL     1      41.712  -9.334   7.482  1.00  0.00     0.257 C 
HETATM    7  O   UNL     1      40.592  -9.781   7.721  1.00  0.00    -0.267 OA
HETATM    8  H   UNL     1      42.873  -8.077   6.307  1.00  0.00     0.171 HD
BRANCH   6   9
HETATM    9  C   UNL     1      42.831  -9.560   8.445  1.00  0.00     0.035 A 
HETATM   10  C   UNL     1      42.737  -9.237   9.804  1.00  0.00     0.053 A 
HETATM   11  C   UNL     1      43.823  -9.482  10.646  1.00  0.00     0.069 A 
HETATM   12  C   UNL     1      45.020  -9.988  10.151  1.00  0.00     0.037 A 
HETATM   13  C   UNL     1      45.126 -10.290   8.796  1.00  0.00     0.004 A 
HETATM   14  C   UNL     1      44.035 -10.082   7.947  1.00  0.00     0.017 A 
BRANCH  11  15
HETATM   15  O   UNL     1      43.731  -9.155  11.969  1.00  0.00    -0.351 OA
BRANCH  15  16
HETATM   16  C   UNL     1      42.453  -9.522  12.505  1.00  0.00     0.175 C 
BRANCH  16  17
HETATM   17  C   UNL     1      42.314  -8.957  13.917  1.00  0.00     0.026 C 
BRANCH  17  18
HETATM   18  C   UNL     1      42.928  -7.561  14.047  1.00  0.00    -0.002 C 
HETATM   19  C   UNL     1      42.515  -6.894  15.350  1.00  0.00     0.005 C 
ENDBRANCH  17  18
ENDBRANCH  16  17
ENDBRANCH  15  16
ENDBRANCH  11  15
ENDBRANCH   6   9
ENDBRANCH   3   5
ENDBRANCH   1   3
BRANCH   1  20
HETATM   20  C   UNL     1      41.659 -10.731   4.283  1.00  0.00     0.036 A 
HETATM   21  C   UNL     1      40.649 -11.689   4.246  1.00  0.00     0.067 A 
HETATM   22  C   UNL     1      40.961 -13.057   4.218  1.00  0.00     0.082 A 
HETATM   23  C   UNL     1      42.291 -13.502   4.219  1.00  0.00     0.050 A 
HETATM   24  C   UNL     1      43.299 -12.527   4.274  1.00  0.00     0.021 A 
HETATM   25  C   UNL     1      42.990 -11.163   4.291  1.00  0.00     0.030 A 
BRANCH  22  26
HETATM   26  O   UNL     1      39.929 -13.960   4.193  1.00  0.00    -0.360 OA
HETATM   27  H   UNL     1      39.308 -13.764   4.913  1.00  0.00     0.217 HD
ENDBRANCH  22  26
BRANCH  23  28
HETATM   28  C   UNL     1      42.693 -14.907   4.149  1.00  0.00     0.183 A 
HETATM   29  O   UNL     1      42.345 -15.607   3.021  1.00  0.00    -0.289 OA
HETATM   30  C   UNL     1      42.912 -16.832   3.201  1.00  0.00     0.107 A 
HETATM   31  C   UNL     1      43.579 -16.817   4.412  1.00  0.00     0.093 A 
HETATM   32  C   UNL     1      42.856 -17.919   2.336  1.00  0.00     0.046 A 
HETATM   33  N   UNL     1      43.444 -15.587   5.003  1.00  0.00    -0.221 NA
HETATM   34  C   UNL     1      44.259 -17.969   4.823  1.00  0.00     0.035 A 
HETATM   35  C   UNL     1      44.231 -19.091   3.980  1.00  0.00     0.009 A 
HETATM   36  C   UNL     1      43.537 -19.076   2.754  1.00  0.00    -0.059 A 
HETATM   37  C   UNL     1      43.561 -20.294   1.875  1.00  0.00     0.048 C 
ENDBRANCH  23  28
ENDBRANCH   1  20
TORSDOF 10
ENDMDL
MODEL 5
REMARK VINA RESULT:      -8.7      4.245     10.310
REMARK  10 active torsions:
REMARK  status: ('A' for Active; 'I' for Inactive)
REMARK    1  A    between atoms: C_2  and  C_3 
REMARK    2  A    between atoms: C_3  and  C_4 
REMARK    3  A    between atoms: C_4  and  O_5 
REMARK    4  A    between atoms: O_5  and  C_6 
REMARK    5  A    between atoms: C_8  and  C_9 
REMARK       I    between atoms: C_9  and  N_10 
REMARK    6  A    between atoms: N_10  and  C_11 
REMARK    7  A    between atoms: C_11  and  N_12 
REMARK    8  A    between atoms: N_12  and  C_13 
REMARK    9  A    between atoms: C_15  and  O_16 
REMARK   10  A    between atoms: C_17  and  C_18 
ROOT
HETATM    1  N   UNL     1      39.614 -13.779   1.889  1.00  0.00    -0.333 N 
HETATM    2  H   UNL     1      38.594 -13.728   1.941  1.00  0.00     0.168 HD
ENDROOT
BRANCH   1   3
HETATM    3  C   UNL     1      40.054 -14.653   0.926  1.00  0.00     0.179 C 
HETATM    4  S   UNL     1      39.725 -14.680  -0.712  1.00  0.00    -0.040 SA
BRANCH   3   5
HETATM    5  N   UNL     1      40.907 -15.644   1.389  1.00  0.00    -0.299 N 
HETATM    6  C   UNL     1      42.226 -15.523   1.807  1.00  0.00     0.257 C 
HETATM    7  O   UNL     1      42.915 -14.537   1.556  1.00  0.00    -0.267 OA
HETATM    8  H   UNL     1      40.446 -16.538   1.474  1.00  0.00     0.171 HD
BRANCH   6   9
HETATM    9  C   UNL     1      42.819 -16.686   2.534  1.00  0.00     0.035 A 
HETATM   10  C   UNL     1      43.349 -16.581   3.825  1.00  0.00     0.053 A 
HETATM   11  C   UNL     1      43.881 -17.712   4.445  1.00  0.00     0.069 A 
HETATM   12  C   UNL     1      43.950 -18.933   3.781  1.00  0.00     0.037 A 
HETATM   13  C   UNL     1      43.445 -19.038   2.488  1.00  0.00     0.004 A 
HETATM   14  C   UNL     1      42.877 -17.921   1.868  1.00  0.00     0.017 A 
BRANCH  11  15
HETATM   15  O   UNL     1      44.407 -17.603   5.701  1.00  0.00    -0.351 OA
BRANCH  15  16
HETATM   16  C   UNL     1      43.371 -17.556   6.692  1.00  0.00     0.175 C 
BRANCH  16  17
HETATM   17  C   UNL     1      43.521 -16.281   7.519  1.00  0.00     0.026 C 
BRANCH  17  18
HETATM   18  C   UNL     1      42.307 -15.358   7.391  1.00  0.00    -0.002 C 
HETATM   19  C   UNL     1      41.156 -16.053   6.680  1.00  0.00     0.005 C 
ENDBRANCH  17  18
ENDBRANCH  16  17
ENDBRANCH  15  16
ENDBRANCH  11  15
ENDBRANCH   6   9
ENDBRANCH   3   5
ENDBRANCH   1   3
BRANCH   1  20
HETATM   20  C   UNL     1      40.286 -12.972   2.831  1.00  0.00     0.036 A 
HETATM   21  C   UNL     1      40.891 -11.749   2.548  1.00  0.00     0.067 A 
HETATM   22  C   UNL     1      41.472 -10.985   3.572  1.00  0.00     0.082 A 
HETATM   23  C   UNL     1      41.456 -11.420   4.905  1.00  0.00     0.050 A 
HETATM   24  C   UNL     1      40.859 -12.660   5.174  1.00  0.00     0.021 A 
HETATM   25  C   UNL     1      40.270 -13.419   4.156  1.00  0.00     0.030 A 
BRANCH  22  26
HETATM   26  O   UNL     1      42.063  -9.794   3.239  1.00  0.00    -0.360 OA
HETATM   27  H   UNL     1      42.657  -9.514   3.955  1.00  0.00     0.217 HD
ENDBRANCH  22  26
BRANCH  23  28
HETATM   28  C   UNL     1      42.003 -10.659   6.029  1.00  0.00     0.183 A 
HETATM   29  O   UNL     1      42.903 -11.297   6.844  1.00  0.00    -0.289 OA
HETATM   30  C   UNL     1      43.290 -10.336   7.730  1.00  0.00     0.107 A 
HETATM   31  C   UNL     1      42.622  -9.169   7.408  1.00  0.00     0.093 A 
HETATM   32  C   UNL     1      44.199 -10.472   8.772  1.00  0.00     0.046 A 
HETATM   33  N   UNL     1      41.815  -9.380   6.319  1.00  0.00    -0.221 NA
HETATM   34  C   UNL     1      42.860  -8.022   8.172  1.00  0.00     0.035 A 
HETATM   35  C   UNL     1      43.773  -8.113   9.235  1.00  0.00     0.009 A 
HETATM   36  C   UNL     1      44.433  -9.318   9.541  1.00  0.00    -0.059 A 
HETATM   37  C   UNL     1      45.422  -9.355  10.671  1.00  0.00     0.048 C 
ENDBRANCH  23  28
ENDBRANCH   1  20
TORSDOF 10
ENDMDL
MODEL 6
REMARK VINA RESULT:      -8.5      2.428      3.589
REMARK  10 active torsions:
REMARK  status: ('A' for Active; 'I' for Inactive)
REMARK    1  A    between atoms: C_2  and  C_3 
REMARK    2  A    between atoms: C_3  and  C_4 
REMARK    3  A    between atoms: C_4  and  O_5 
REMARK    4  A    between atoms: O_5  and  C_6 
REMARK    5  A    between atoms: C_8  and  C_9 
REMARK       I    between atoms: C_9  and  N_10 
REMARK    6  A    between atoms: N_10  and  C_11 
REMARK    7  A    between atoms: C_11  and  N_12 
REMARK    8  A    between atoms: N_12  and  C_13 
REMARK    9  A    between atoms: C_15  and  O_16 
REMARK   10  A    between atoms: C_17  and  C_18 
ROOT
HETATM    1  N   UNL     1      39.433 -10.532   5.661  1.00  0.00    -0.333 N 
HETATM    2  H   UNL     1      38.415 -10.449   5.608  1.00  0.00     0.168 HD
ENDROOT
BRANCH   1   3
HETATM    3  C   UNL     1      40.040  -9.370   6.068  1.00  0.00     0.179 C 
HETATM    4  S   UNL     1      41.084  -8.368   5.231  1.00  0.00    -0.040 SA
BRANCH   3   5
HETATM    5  N   UNL     1      39.721  -8.970   7.358  1.00  0.00    -0.299 N 
HETATM    6  C   UNL     1      39.227  -9.740   8.404  1.00  0.00     0.257 C 
HETATM    7  O   UNL     1      38.737 -10.854   8.235  1.00  0.00    -0.267 OA
HETATM    8  H   UNL     1      39.952  -8.003   7.528  1.00  0.00     0.171 HD
BRANCH   6   9
HETATM    9  C   UNL     1      39.250  -9.130   9.767  1.00  0.00     0.035 A 
HETATM   10  C   UNL     1      39.673  -9.830  10.902  1.00  0.00     0.053 A 
HETATM   11  C   UNL     1      39.673  -9.193  12.144  1.00  0.00     0.069 A 
HETATM   12  C   UNL     1      39.204  -7.891  12.287  1.00  0.00     0.037 A 
HETATM   13  C   UNL     1      38.761  -7.197  11.164  1.00  0.00     0.004 A 
HETATM   14  C   UNL     1      38.788  -7.811   9.908  1.00  0.00     0.017 A 
BRANCH  11  15
HETATM   15  O   UNL     1      40.077  -9.884  13.251  1.00  0.00    -0.351 OA
BRANCH  15  16
HETATM   16  C   UNL     1      40.863  -9.055  14.118  1.00  0.00     0.175 C 
BRANCH  16  17
HETATM   17  C   UNL     1      42.343  -9.239  13.789  1.00  0.00     0.026 C 
BRANCH  17  18
HETATM   18  C   UNL     1      42.954  -7.995  13.142  1.00  0.00    -0.002 C 
HETATM   19  C   UNL     1      43.357  -8.263  11.700  1.00  0.00     0.005 C 
ENDBRANCH  17  18
ENDBRANCH  16  17
ENDBRANCH  15  16
ENDBRANCH  11  15
ENDBRANCH   6   9
ENDBRANCH   3   5
ENDBRANCH   1   3
BRANCH   1  20
HETATM   20  C   UNL     1      39.936 -11.791   5.273  1.00  0.00     0.036 A 
HETATM   21  C   UNL     1      39.447 -12.555   4.215  1.00  0.00     0.067 A 
HETATM   22  C   UNL     1      40.065 -13.764   3.861  1.00  0.00     0.082 A 
HETATM   23  C   UNL     1      41.192 -14.236   4.550  1.00  0.00     0.050 A 
HETATM   24  C   UNL     1      41.665 -13.465   5.622  1.00  0.00     0.021 A 
HETATM   25  C   UNL     1      41.056 -12.255   5.971  1.00  0.00     0.030 A 
BRANCH  22  26
HETATM   26  O   UNL     1      39.538 -14.484   2.820  1.00  0.00    -0.360 OA
HETATM   27  H   UNL     1      39.937 -14.188   1.986  1.00  0.00     0.217 HD
ENDBRANCH  22  26
BRANCH  23  28
HETATM   28  C   UNL     1      41.914 -15.463   4.211  1.00  0.00     0.183 A 
HETATM   29  O   UNL     1      42.409 -16.211   5.249  1.00  0.00    -0.289 OA
HETATM   30  C   UNL     1      42.945 -17.308   4.644  1.00  0.00     0.107 A 
HETATM   31  C   UNL     1      42.743 -17.182   3.282  1.00  0.00     0.093 A 
HETATM   32  C   UNL     1      43.576 -18.382   5.260  1.00  0.00     0.046 A 
HETATM   33  N   UNL     1      42.078 -16.012   3.016  1.00  0.00    -0.221 NA
HETATM   34  C   UNL     1      43.199 -18.197   2.435  1.00  0.00     0.035 A 
HETATM   35  C   UNL     1      43.843 -19.303   3.014  1.00  0.00     0.009 A 
HETATM   36  C   UNL     1      44.037 -19.399   4.405  1.00  0.00    -0.059 A 
HETATM   37  C   UNL     1      44.706 -20.617   4.977  1.00  0.00     0.048 C 
ENDBRANCH  23  28
ENDBRANCH   1  20
TORSDOF 10
ENDMDL
MODEL 7
REMARK VINA RESULT:      -8.4      2.654      4.350
REMARK  10 active torsions:
REMARK  status: ('A' for Active; 'I' for Inactive)
REMARK    1  A    between atoms: C_2  and  C_3 
REMARK    2  A    between atoms: C_3  and  C_4 
REMARK    3  A    between atoms: C_4  and  O_5 
REMARK    4  A    between atoms: O_5  and  C_6 
REMARK    5  A    between atoms: C_8  and  C_9 
REMARK       I    between atoms: C_9  and  N_10 
REMARK    6  A    between atoms: N_10  and  C_11 
REMARK    7  A    between atoms: C_11  and  N_12 
REMARK    8  A    between atoms: N_12  and  C_13 
REMARK    9  A    between atoms: C_15  and  O_16 
REMARK   10  A    between atoms: C_17  and  C_18 
ROOT
HETATM    1  N   UNL     1      40.056  -9.409   5.658  1.00  0.00    -0.333 N 
HETATM    2  H   UNL     1      39.153  -9.227   5.214  1.00  0.00     0.168 HD
ENDROOT
BRANCH   1   3
HETATM    3  C   UNL     1      40.560  -8.308   6.305  1.00  0.00     0.179 C 
HETATM    4  S   UNL     1      40.987  -6.815   5.685  1.00  0.00    -0.040 SA
BRANCH   3   5
HETATM    5  N   UNL     1      40.721  -8.463   7.674  1.00  0.00    -0.299 N 
HETATM    6  C   UNL     1      39.851  -9.049   8.586  1.00  0.00     0.257 C 
HETATM    7  O   UNL     1      38.669  -9.269   8.329  1.00  0.00    -0.267 OA
HETATM    8  H   UNL     1      41.626  -8.151   7.992  1.00  0.00     0.171 HD
BRANCH   6   9
HETATM    9  C   UNL     1      40.392  -9.351   9.944  1.00  0.00     0.035 A 
HETATM   10  C   UNL     1      41.756  -9.277  10.250  1.00  0.00     0.053 A 
HETATM   11  C   UNL     1      42.188  -9.568  11.544  1.00  0.00     0.069 A 
HETATM   12  C   UNL     1      41.296  -9.990  12.525  1.00  0.00     0.037 A 
HETATM   13  C   UNL     1      39.941 -10.088  12.220  1.00  0.00     0.004 A 
HETATM   14  C   UNL     1      39.490  -9.766  10.937  1.00  0.00     0.017 A 
BRANCH  11  15
HETATM   15  O   UNL     1      43.522  -9.505  11.835  1.00  0.00    -0.351 OA
BRANCH  15  16
HETATM   16  C   UNL     1      44.264 -10.459  11.064  1.00  0.00     0.175 C 
BRANCH  16  17
HETATM   17  C   UNL     1      45.503  -9.782  10.480  1.00  0.00     0.026 C 
BRANCH  17  18
HETATM   18  C   UNL     1      45.206  -9.060   9.165  1.00  0.00    -0.002 C 
HETATM   19  C   UNL     1      45.354  -9.995   7.974  1.00  0.00     0.005 C 
ENDBRANCH  17  18
ENDBRANCH  16  17
ENDBRANCH  15  16
ENDBRANCH  11  15
ENDBRANCH   6   9
ENDBRANCH   3   5
ENDBRANCH   1   3
BRANCH   1  20
HETATM   20  C   UNL     1      40.551 -10.714   5.461  1.00  0.00     0.036 A 
HETATM   21  C   UNL     1      39.922 -11.880   5.892  1.00  0.00     0.067 A 
HETATM   22  C   UNL     1      40.459 -13.140   5.581  1.00  0.00     0.082 A 
HETATM   23  C   UNL     1      41.633 -13.265   4.824  1.00  0.00     0.050 A 
HETATM   24  C   UNL     1      42.265 -12.083   4.410  1.00  0.00     0.021 A 
HETATM   25  C   UNL     1      41.726 -10.827   4.710  1.00  0.00     0.030 A 
BRANCH  22  26
HETATM   26  O   UNL     1      39.807 -14.255   6.038  1.00  0.00    -0.360 OA
HETATM   27  H   UNL     1      39.462 -14.088   6.930  1.00  0.00     0.217 HD
ENDBRANCH  22  26
BRANCH  23  28
HETATM   28  C   UNL     1      42.227 -14.541   4.426  1.00  0.00     0.183 A 
HETATM   29  O   UNL     1      42.561 -15.421   5.424  1.00  0.00    -0.289 OA
HETATM   30  C   UNL     1      43.004 -16.526   4.761  1.00  0.00     0.107 A 
HETATM   31  C   UNL     1      42.909 -16.273   3.405  1.00  0.00     0.093 A 
HETATM   32  C   UNL     1      43.463 -17.712   5.320  1.00  0.00     0.046 A 
HETATM   33  N   UNL     1      42.404 -15.015   3.201  1.00  0.00    -0.221 NA
HETATM   34  C   UNL     1      43.297 -17.270   2.504  1.00  0.00     0.035 A 
HETATM   35  C   UNL     1      43.767 -18.486   3.024  1.00  0.00     0.009 A 
HETATM   36  C   UNL     1      43.857 -18.710   4.411  1.00  0.00    -0.059 A 
HETATM   37  C   UNL     1      44.340 -20.040   4.917  1.00  0.00     0.048 C 
ENDBRANCH  23  28
ENDBRANCH   1  20
TORSDOF 10
ENDMDL
MODEL 8
REMARK VINA RESULT:      -8.4      5.686      9.352
REMARK  10 active torsions:
REMARK  status: ('A' for Active; 'I' for Inactive)
REMARK    1  A    between atoms: C_2  and  C_3 
REMARK    2  A    between atoms: C_3  and  C_4 
REMARK    3  A    between atoms: C_4  and  O_5 
REMARK    4  A    between atoms: O_5  and  C_6 
REMARK    5  A    between atoms: C_8  and  C_9 
REMARK       I    between atoms: C_9  and  N_10 
REMARK    6  A    between atoms: N_10  and  C_11 
REMARK    7  A    between atoms: C_11  and  N_12 
REMARK    8  A    between atoms: N_12  and  C_13 
REMARK    9  A    between atoms: C_15  and  O_16 
REMARK   10  A    between atoms: C_17  and  C_18 
ROOT
HETATM    1  N   UNL     1      41.826  -9.423   4.075  1.00  0.00    -0.333 N 
HETATM    2  H   UNL     1      42.428  -8.803   4.622  1.00  0.00     0.168 HD
ENDROOT
BRANCH   1   3
HETATM    3  C   UNL     1      40.869  -8.742   3.364  1.00  0.00     0.179 C 
HETATM    4  S   UNL     1      40.316  -7.176   3.557  1.00  0.00    -0.040 SA
BRANCH   3   5
HETATM    5  N   UNL     1      40.296  -9.462   2.326  1.00  0.00    -0.299 N 
HETATM    6  C   UNL     1      39.184 -10.294   2.363  1.00  0.00     0.257 C 
HETATM    7  O   UNL     1      38.712 -10.727   3.412  1.00  0.00    -0.267 OA
HETATM    8  H   UNL     1      40.740  -9.278   1.439  1.00  0.00     0.171 HD
BRANCH   6   9
HETATM    9  C   UNL     1      38.603 -10.711   1.052  1.00  0.00     0.035 A 
HETATM   10  C   UNL     1      38.874 -11.952   0.465  1.00  0.00     0.053 A 
HETATM   11  C   UNL     1      38.290 -12.276  -0.761  1.00  0.00     0.069 A 
HETATM   12  C   UNL     1      37.489 -11.365  -1.442  1.00  0.00     0.037 A 
HETATM   13  C   UNL     1      37.235 -10.120  -0.873  1.00  0.00     0.004 A 
HETATM   14  C   UNL     1      37.785  -9.795   0.370  1.00  0.00     0.017 A 
BRANCH  11  15
HETATM   15  O   UNL     1      38.565 -13.485  -1.336  1.00  0.00    -0.351 OA
BRANCH  15  16
HETATM   16  C   UNL     1      39.011 -13.323  -2.689  1.00  0.00     0.175 C 
BRANCH  16  17
HETATM   17  C   UNL     1      40.532 -13.195  -2.708  1.00  0.00     0.026 C 
BRANCH  17  18
HETATM   18  C   UNL     1      40.994 -11.805  -3.151  1.00  0.00    -0.002 C 
HETATM   19  C   UNL     1      41.397 -10.950  -1.960  1.00  0.00     0.005 C 
ENDBRANCH  17  18
ENDBRANCH  16  17
ENDBRANCH  15  16
ENDBRANCH  11  15
ENDBRANCH   6   9
ENDBRANCH   3   5
ENDBRANCH   1   3
BRANCH   1  20
HETATM   20  C   UNL     1      42.113 -10.795   4.224  1.00  0.00     0.036 A 
HETATM   21  C   UNL     1      41.697 -11.587   5.292  1.00  0.00     0.067 A 
HETATM   22  C   UNL     1      41.972 -12.963   5.313  1.00  0.00     0.082 A 
HETATM   23  C   UNL     1      42.663 -13.584   4.261  1.00  0.00     0.050 A 
HETATM   24  C   UNL     1      43.090 -12.773   3.200  1.00  0.00     0.021 A 
HETATM   25  C   UNL     1      42.808 -11.403   3.173  1.00  0.00     0.030 A 
BRANCH  22  26
HETATM   26  O   UNL     1      41.550 -13.695   6.392  1.00  0.00    -0.360 OA
HETATM   27  H   UNL     1      42.225 -13.666   7.089  1.00  0.00     0.217 HD
ENDBRANCH  22  26
BRANCH  23  28
HETATM   28  C   UNL     1      42.947 -15.018   4.193  1.00  0.00     0.183 A 
HETATM   29  O   UNL     1      42.692 -15.656   3.006  1.00  0.00    -0.289 OA
HETATM   30  C   UNL     1      43.122 -16.931   3.213  1.00  0.00     0.107 A 
HETATM   31  C   UNL     1      43.623 -17.006   4.499  1.00  0.00     0.093 A 
HETATM   32  C   UNL     1      43.087 -17.987   2.309  1.00  0.00     0.046 A 
HETATM   33  N   UNL     1      43.518 -15.783   5.111  1.00  0.00    -0.221 NA
HETATM   34  C   UNL     1      44.141 -18.224   4.953  1.00  0.00     0.035 A 
HETATM   35  C   UNL     1      44.127 -19.318   4.073  1.00  0.00     0.009 A 
HETATM   36  C   UNL     1      43.605 -19.210   2.770  1.00  0.00    -0.059 A 
HETATM   37  C   UNL     1      43.639 -20.404   1.858  1.00  0.00     0.048 C 
ENDBRANCH  23  28
ENDBRANCH   1  20
TORSDOF 10
ENDMDL
MODEL 9
REMARK VINA RESULT:      -8.4      2.561     12.719
REMARK  10 active torsions:
REMARK  status: ('A' for Active; 'I' for Inactive)
REMARK    1  A    between atoms: C_2  and  C_3 
REMARK    2  A    between atoms: C_3  and  C_4 
REMARK    3  A    between atoms: C_4  and  O_5 
REMARK    4  A    between atoms: O_5  and  C_6 
REMARK    5  A    between atoms: C_8  and  C_9 
REMARK       I    between atoms: C_9  and  N_10 
REMARK    6  A    between atoms: N_10  and  C_11 
REMARK    7  A    between atoms: C_11  and  N_12 
REMARK    8  A    between atoms: N_12  and  C_13 
REMARK    9  A    between atoms: C_15  and  O_16 
REMARK   10  A    between atoms: C_17  and  C_18 
ROOT
HETATM    1  N   UNL     1      42.673 -10.128  10.031  1.00  0.00    -0.333 N 
HETATM    2  H   UNL     1      42.467 -11.129  10.027  1.00  0.00     0.168 HD
ENDROOT
BRANCH   1   3
HETATM    3  C   UNL     1      43.298  -9.709   8.883  1.00  0.00     0.179 C 
HETATM    4  S   UNL     1      44.152  -8.301   8.592  1.00  0.00    -0.040 SA
BRANCH   3   5
HETATM    5  N   UNL     1      43.216 -10.597   7.820  1.00  0.00    -0.299 N 
HETATM    6  C   UNL     1      44.133 -11.565   7.430  1.00  0.00     0.257 C 
HETATM    7  O   UNL     1      45.297 -11.575   7.825  1.00  0.00    -0.267 OA
HETATM    8  H   UNL     1      42.332 -10.537   7.337  1.00  0.00     0.171 HD
BRANCH   6   9
HETATM    9  C   UNL     1      43.669 -12.581   6.438  1.00  0.00     0.035 A 
HETATM   10  C   UNL     1      43.653 -13.953   6.713  1.00  0.00     0.053 A 
HETATM   11  C   UNL     1      43.200 -14.844   5.739  1.00  0.00     0.069 A 
HETATM   12  C   UNL     1      42.820 -14.401   4.476  1.00  0.00     0.037 A 
HETATM   13  C   UNL     1      42.856 -13.039   4.190  1.00  0.00     0.004 A 
HETATM   14  C   UNL     1      43.275 -12.132   5.168  1.00  0.00     0.017 A 
BRANCH  11  15
HETATM   15  O   UNL     1      43.195 -16.184   6.006  1.00  0.00    -0.351 OA
BRANCH  15  16
HETATM   16  C   UNL     1      44.293 -16.843   5.361  1.00  0.00     0.175 C 
BRANCH  16  17
HETATM   17  C   UNL     1      43.775 -18.062   4.601  1.00  0.00     0.026 C 
BRANCH  17  18
HETATM   18  C   UNL     1      43.503 -17.756   3.126  1.00  0.00    -0.002 C 
HETATM   19  C   UNL     1      43.208 -19.026   2.343  1.00  0.00     0.005 C 
ENDBRANCH  17  18
ENDBRANCH  16  17
ENDBRANCH  15  16
ENDBRANCH  11  15
ENDBRANCH   6   9
ENDBRANCH   3   5
ENDBRANCH   1   3
BRANCH   1  20
HETATM   20  C   UNL     1      42.296  -9.460  11.214  1.00  0.00     0.036 A 
HETATM   21  C   UNL     1      40.983  -9.291  11.652  1.00  0.00     0.067 A 
HETATM   22  C   UNL     1      40.714  -8.675  12.884  1.00  0.00     0.082 A 
HETATM   23  C   UNL     1      41.750  -8.221  13.714  1.00  0.00     0.050 A 
HETATM   24  C   UNL     1      43.065  -8.383  13.255  1.00  0.00     0.021 A 
HETATM   25  C   UNL     1      43.336  -9.005  12.031  1.00  0.00     0.030 A 
BRANCH  22  26
HETATM   26  O   UNL     1      39.406  -8.523  13.263  1.00  0.00    -0.360 OA
HETATM   27  H   UNL     1      38.852  -9.161  12.784  1.00  0.00     0.217 HD
ENDBRANCH  22  26
BRANCH  23  28
HETATM   28  C   UNL     1      41.547  -7.610  15.028  1.00  0.00     0.183 A 
HETATM   29  O   UNL     1      40.917  -8.365  15.985  1.00  0.00    -0.289 OA
HETATM   30  C   UNL     1      40.945  -7.582  17.099  1.00  0.00     0.107 A 
HETATM   31  C   UNL     1      41.593  -6.405  16.774  1.00  0.00     0.093 A 
HETATM   32  C   UNL     1      40.433  -7.889  18.354  1.00  0.00     0.046 A 
HETATM   33  N   UNL     1      41.982  -6.435  15.459  1.00  0.00    -0.221 NA
HETATM   34  C   UNL     1      41.760  -5.430  17.764  1.00  0.00     0.035 A 
HETATM   35  C   UNL     1      41.259  -5.698  19.048  1.00  0.00     0.009 A 
HETATM   36  C   UNL     1      40.599  -6.906  19.345  1.00  0.00    -0.059 A 
HETATM   37  C   UNL     1      40.106  -7.155  20.743  1.00  0.00     0.048 C 
ENDBRANCH  23  28
ENDBRANCH   1  20
TORSDOF 10
ENDMDL
MODEL 10
REMARK VINA RESULT:      -8.2      3.212      4.548
REMARK  10 active torsions:
REMARK  status: ('A' for Active; 'I' for Inactive)
REMARK    1  A    between atoms: C_2  and  C_3 
REMARK    2  A    between atoms: C_3  and  C_4 
REMARK    3  A    between atoms: C_4  and  O_5 
REMARK    4  A    between atoms: O_5  and  C_6 
REMARK    5  A    between atoms: C_8  and  C_9 
REMARK       I    between atoms: C_9  and  N_10 
REMARK    6  A    between atoms: N_10  and  C_11 
REMARK    7  A    between atoms: C_11  and  N_12 
REMARK    8  A    between atoms: N_12  and  C_13 
REMARK    9  A    between atoms: C_15  and  O_16 
REMARK   10  A    between atoms: C_17  and  C_18 
ROOT
HETATM    1  N   UNL     1      38.739 -10.290   4.629  1.00  0.00    -0.333 N 
HETATM    2  H   UNL     1      37.980 -10.309   3.944  1.00  0.00     0.168 HD
ENDROOT
BRANCH   1   3
HETATM    3  C   UNL     1      38.831  -9.088   5.285  1.00  0.00     0.179 C 
HETATM    4  S   UNL     1      37.832  -7.751   5.197  1.00  0.00    -0.040 SA
BRANCH   3   5
HETATM    5  N   UNL     1      39.905  -8.984   6.157  1.00  0.00    -0.299 N 
HETATM    6  C   UNL     1      41.232  -8.695   5.864  1.00  0.00     0.257 C 
HETATM    7  O   UNL     1      41.691  -8.765   4.725  1.00  0.00    -0.267 OA
HETATM    8  H   UNL     1      39.626  -9.077   7.123  1.00  0.00     0.171 HD
BRANCH   6   9
HETATM    9  C   UNL     1      42.123  -8.352   7.012  1.00  0.00     0.035 A 
HETATM   10  C   UNL     1      43.031  -9.263   7.564  1.00  0.00     0.053 A 
HETATM   11  C   UNL     1      43.837  -8.870   8.633  1.00  0.00     0.069 A 
HETATM   12  C   UNL     1      43.715  -7.606   9.202  1.00  0.00     0.037 A 
HETATM   13  C   UNL     1      42.797  -6.704   8.671  1.00  0.00     0.004 A 
HETATM   14  C   UNL     1      42.008  -7.072   7.578  1.00  0.00     0.017 A 
BRANCH  11  15
HETATM   15  O   UNL     1      44.714  -9.766   9.177  1.00  0.00    -0.351 OA
BRANCH  15  16
HETATM   16  C   UNL     1      44.727  -9.673  10.607  1.00  0.00     0.175 C 
BRANCH  16  17
HETATM   17  C   UNL     1      43.751 -10.692  11.190  1.00  0.00     0.026 C 
BRANCH  17  18
HETATM   18  C   UNL     1      42.719 -10.046  12.117  1.00  0.00    -0.002 C 
HETATM   19  C   UNL     1      41.456  -9.667  11.360  1.00  0.00     0.005 C 
ENDBRANCH  17  18
ENDBRANCH  16  17
ENDBRANCH  15  16
ENDBRANCH  11  15
ENDBRANCH   6   9
ENDBRANCH   3   5
ENDBRANCH   1   3
BRANCH   1  20
HETATM   20  C   UNL     1      39.499 -11.476   4.689  1.00  0.00     0.036 A 
HETATM   21  C   UNL     1      39.498 -12.371   5.757  1.00  0.00     0.067 A 
HETATM   22  C   UNL     1      40.235 -13.564   5.691  1.00  0.00     0.082 A 
HETATM   23  C   UNL     1      40.984 -13.896   4.553  1.00  0.00     0.050 A 
HETATM   24  C   UNL     1      40.989 -12.979   3.491  1.00  0.00     0.021 A 
HETATM   25  C   UNL     1      40.248 -11.794   3.551  1.00  0.00     0.030 A 
BRANCH  22  26
HETATM   26  O   UNL     1      40.209 -14.405   6.773  1.00  0.00    -0.360 OA
HETATM   27  H   UNL     1      39.709 -15.207   6.550  1.00  0.00     0.217 HD
ENDBRANCH  22  26
BRANCH  23  28
HETATM   28  C   UNL     1      41.740 -15.139   4.395  1.00  0.00     0.183 A 
HETATM   29  O   UNL     1      41.472 -15.904   3.288  1.00  0.00    -0.289 OA
HETATM   30  C   UNL     1      42.365 -16.930   3.368  1.00  0.00     0.107 A 
HETATM   31  C   UNL     1      43.132 -16.737   4.502  1.00  0.00     0.093 A 
HETATM   32  C   UNL     1      42.510 -17.988   2.478  1.00  0.00     0.046 A 
HETATM   33  N   UNL     1      42.736 -15.592   5.143  1.00  0.00    -0.221 NA
HETATM   34  C   UNL     1      44.138 -17.662   4.801  1.00  0.00     0.035 A 
HETATM   35  C   UNL     1      44.322 -18.747   3.930  1.00  0.00     0.009 A 
HETATM   36  C   UNL     1      43.520 -18.917   2.785  1.00  0.00    -0.059 A 
HETATM   37  C   UNL     1      43.775 -20.080   1.868  1.00  0.00     0.048 C 
ENDBRANCH  23  28
ENDBRANCH   1  20
TORSDOF 10
ENDMDL
