MODEL 1
REMARK VINA RESULT:      -8.5      0.000      0.000
REMARK  5 active torsions:
REMARK  status: ('A' for Active; 'I' for Inactive)
REMARK    1  A    between atoms: C_5  and  O_6 
REMARK    2  A    between atoms: O_6  and  C_7 
REMARK    3  A    between atoms: C_7  and  C_8 
REMARK       I    between atoms: C_8  and  N_9 
REMARK    4  A    between atoms: N_9  and  N_10 
REMARK    5  A    between atoms: C_11  and  C_12 
ROOT
HETATM    1  C   UNL     1      41.262 -15.298   4.581  1.00  0.00     0.261 C 
HETATM    2  N   UNL     1      40.614 -15.681   3.412  1.00  0.00    -0.246 N 
HETATM    3  O   UNL     1      41.229 -14.181   5.095  1.00  0.00    -0.269 OA
HETATM    4  H   UNL     1      40.936 -16.547   2.982  1.00  0.00     0.192 HD
ENDROOT
BRANCH   2   5
HETATM    5  N   UNL     1      39.927 -14.848   2.558  1.00  0.00    -0.184 NA
HETATM    6  C   UNL     1      40.578 -14.277   1.595  1.00  0.00     0.152 C 
BRANCH   6   7
HETATM    7  C   UNL     1      39.876 -13.439   0.643  1.00  0.00     0.011 A 
HETATM    8  C   UNL     1      39.382 -13.836  -0.642  1.00  0.00     0.004 A 
HETATM    9  C   UNL     1      38.781 -12.720  -1.224  1.00  0.00     0.043 A 
HETATM   10  C   UNL     1      39.383 -15.050  -1.364  1.00  0.00     0.014 A 
HETATM   11  C   UNL     1      38.187 -12.752  -2.491  1.00  0.00     0.030 A 
HETATM   12  N   UNL     1      38.901 -11.683  -0.326  1.00  0.00    -0.364 N 
HETATM   13  C   UNL     1      38.204 -13.967  -3.185  1.00  0.00     0.002 A 
HETATM   14  C   UNL     1      38.791 -15.101  -2.630  1.00  0.00     0.001 A 
HETATM   15  H   UNL     1      38.549 -10.748  -0.481  1.00  0.00     0.165 HD
HETATM   16  C   UNL     1      39.550 -12.105   0.802  1.00  0.00     0.102 A 
ENDBRANCH   6   7
ENDBRANCH   2   5
BRANCH   1  17
HETATM   17  C   UNL     1      42.010 -16.444   5.256  1.00  0.00     0.280 C 
BRANCH  17  18
HETATM   18  O   UNL     1      43.337 -16.597   4.742  1.00  0.00    -0.342 OA
BRANCH  18  19
HETATM   19  C   UNL     1      43.567 -17.929   4.495  1.00  0.00     0.075 A 
HETATM   20  C   UNL     1      43.561 -18.430   3.182  1.00  0.00    -0.023 A 
HETATM   21  C   UNL     1      43.705 -19.822   2.996  1.00  0.00    -0.053 A 
HETATM   22  C   UNL     1      43.351 -17.508   2.012  1.00  0.00     0.052 C 
HETATM   23  C   UNL     1      43.649 -20.449   1.628  1.00  0.00     0.049 C 
HETATM   24  C   UNL     1      43.938 -20.650   4.108  1.00  0.00     0.007 A 
HETATM   25  C   UNL     1      44.006 -20.120   5.395  1.00  0.00     0.003 A 
HETATM   26  C   UNL     1      43.821 -18.757   5.590  1.00  0.00     0.037 A 
ENDBRANCH  18  19
ENDBRANCH  17  18
ENDBRANCH   1  17
TORSDOF 5
ENDMDL
MODEL 2
REMARK VINA RESULT:      -8.2      5.117      7.439
REMARK  5 active torsions:
REMARK  status: ('A' for Active; 'I' for Inactive)
REMARK    1  A    between atoms: C_5  and  O_6 
REMARK    2  A    between atoms: O_6  and  C_7 
REMARK    3  A    between atoms: C_7  and  C_8 
REMARK       I    between atoms: C_8  and  N_9 
REMARK    4  A    between atoms: N_9  and  N_10 
REMARK    5  A    between atoms: C_11  and  C_12 
ROOT
HETATM    1  C   UNL     1      42.327 -14.897   6.312  1.00  0.00     0.261 C 
HETATM    2  N   UNL     1      43.613 -14.396   6.479  1.00  0.00    -0.246 N 
HETATM    3  O   UNL     1      41.283 -14.348   6.663  1.00  0.00    -0.269 OA
HETATM    4  H   UNL     1      44.374 -15.065   6.371  1.00  0.00     0.192 HD
ENDROOT
BRANCH   2   5
HETATM    5  N   UNL     1      43.954 -13.261   7.181  1.00  0.00    -0.184 NA
HETATM    6  C   UNL     1      44.629 -12.339   6.571  1.00  0.00     0.152 C 
BRANCH   6   7
HETATM    7  C   UNL     1      44.956 -11.106   7.260  1.00  0.00     0.011 A 
HETATM    8  C   UNL     1      44.033 -10.096   7.687  1.00  0.00     0.004 A 
HETATM    9  C   UNL     1      44.772  -9.084   8.300  1.00  0.00     0.043 A 
HETATM   10  C   UNL     1      42.629  -9.954   7.618  1.00  0.00     0.014 A 
HETATM   11  C   UNL     1      44.183  -7.935   8.840  1.00  0.00     0.030 A 
HETATM   12  N   UNL     1      46.094  -9.464   8.251  1.00  0.00    -0.364 N 
HETATM   13  C   UNL     1      42.791  -7.819   8.756  1.00  0.00     0.002 A 
HETATM   14  C   UNL     1      42.024  -8.813   8.156  1.00  0.00     0.001 A 
HETATM   15  H   UNL     1      46.860  -8.921   8.626  1.00  0.00     0.165 HD
HETATM   16  C   UNL     1      46.216 -10.680   7.635  1.00  0.00     0.102 A 
ENDBRANCH   6   7
ENDBRANCH   2   5
BRANCH   1  17
HETATM   17  C   UNL     1      42.292 -16.224   5.558  1.00  0.00     0.280 C 
BRANCH  17  18
HETATM   18  O   UNL     1      43.462 -16.418   4.758  1.00  0.00    -0.342 OA
BRANCH  18  19
HETATM   19  C   UNL     1      43.626 -17.763   4.530  1.00  0.00     0.075 A 
HETATM   20  C   UNL     1      43.562 -18.287   3.227  1.00  0.00    -0.023 A 
HETATM   21  C   UNL     1      43.640 -19.687   3.064  1.00  0.00    -0.053 A 
HETATM   22  C   UNL     1      43.362 -17.376   2.046  1.00  0.00     0.052 C 
HETATM   23  C   UNL     1      43.519 -20.335   1.709  1.00  0.00     0.049 C 
HETATM   24  C   UNL     1      43.865 -20.505   4.184  1.00  0.00     0.007 A 
HETATM   25  C   UNL     1      43.991 -19.955   5.460  1.00  0.00     0.003 A 
HETATM   26  C   UNL     1      43.872 -18.582   5.634  1.00  0.00     0.037 A 
ENDBRANCH  18  19
ENDBRANCH  17  18
ENDBRANCH   1  17
TORSDOF 5
ENDMDL
MODEL 3
REMARK VINA RESULT:      -8.1      2.437      8.038
REMARK  5 active torsions:
REMARK  status: ('A' for Active; 'I' for Inactive)
REMARK    1  A    between atoms: C_5  and  O_6 
REMARK    2  A    between atoms: O_6  and  C_7 
REMARK    3  A    between atoms: C_7  and  C_8 
REMARK       I    between atoms: C_8  and  N_9 
REMARK    4  A    between atoms: N_9  and  N_10 
REMARK    5  A    between atoms: C_11  and  C_12 
ROOT
HETATM    1  C   UNL     1      42.814 -12.237   2.940  1.00  0.00     0.261 C 
HETATM    2  N   UNL     1      42.099 -13.424   3.054  1.00  0.00    -0.246 N 
HETATM    3  O   UNL     1      43.940 -12.023   3.386  1.00  0.00    -0.269 OA
HETATM    4  H   UNL     1      41.100 -13.369   2.861  1.00  0.00     0.192 HD
ENDROOT
BRANCH   2   5
HETATM    5  N   UNL     1      42.473 -14.525   3.792  1.00  0.00    -0.184 NA
HETATM    6  C   UNL     1      42.980 -15.541   3.171  1.00  0.00     0.152 C 
BRANCH   6   7
HETATM    7  C   UNL     1      43.438 -16.695   3.921  1.00  0.00     0.011 A 
HETATM    8  C   UNL     1      43.471 -18.053   3.464  1.00  0.00     0.004 A 
HETATM    9  C   UNL     1      43.975 -18.833   4.504  1.00  0.00     0.043 A 
HETATM   10  C   UNL     1      43.126 -18.690   2.252  1.00  0.00     0.014 A 
HETATM   11  C   UNL     1      44.145 -20.219   4.398  1.00  0.00     0.030 A 
HETATM   12  N   UNL     1      44.241 -17.984   5.554  1.00  0.00    -0.364 N 
HETATM   13  C   UNL     1      43.794 -20.826   3.188  1.00  0.00     0.002 A 
HETATM   14  C   UNL     1      43.293 -20.074   2.128  1.00  0.00     0.001 A 
HETATM   15  H   UNL     1      44.622 -18.276   6.444  1.00  0.00     0.165 HD
HETATM   16  C   UNL     1      43.930 -16.696   5.213  1.00  0.00     0.102 A 
ENDBRANCH   6   7
ENDBRANCH   2   5
BRANCH   1  17
HETATM   17  C   UNL     1      42.086 -11.175   2.120  1.00  0.00     0.280 C 
BRANCH  17  18
HETATM   18  O   UNL     1      40.832 -11.648   1.618  1.00  0.00    -0.342 OA
BRANCH  18  19
HETATM   19  C   UNL     1      40.864 -11.616   0.245  1.00  0.00     0.075 A 
HETATM   20  C   UNL     1      40.486 -12.739  -0.511  1.00  0.00    -0.023 A 
HETATM   21  C   UNL     1      40.632 -12.682  -1.914  1.00  0.00    -0.053 A 
HETATM   22  C   UNL     1      39.992 -13.988   0.168  1.00  0.00     0.052 C 
HETATM   23  C   UNL     1      40.309 -13.861  -2.794  1.00  0.00     0.049 C 
HETATM   24  C   UNL     1      41.060 -11.487  -2.519  1.00  0.00     0.007 A 
HETATM   25  C   UNL     1      41.366 -10.364  -1.751  1.00  0.00     0.003 A 
HETATM   26  C   UNL     1      41.267 -10.428  -0.367  1.00  0.00     0.037 A 
ENDBRANCH  18  19
ENDBRANCH  17  18
ENDBRANCH   1  17
TORSDOF 5
ENDMDL
MODEL 4
REMARK VINA RESULT:      -8.1      4.578      7.155
REMARK  5 active torsions:
REMARK  status: ('A' for Active; 'I' for Inactive)
REMARK    1  A    between atoms: C_5  and  O_6 
REMARK    2  A    between atoms: O_6  and  C_7 
REMARK    3  A    between atoms: C_7  and  C_8 
REMARK       I    between atoms: C_8  and  N_9 
REMARK    4  A    between atoms: N_9  and  N_10 
REMARK    5  A    between atoms: C_11  and  C_12 
ROOT
HETATM    1  C   UNL     1      41.510 -15.326   4.585  1.00  0.00     0.261 C 
HETATM    2  N   UNL     1      42.286 -14.173   4.585  1.00  0.00    -0.246 N 
HETATM    3  O   UNL     1      40.621 -15.603   5.390  1.00  0.00    -0.269 OA
HETATM    4  H   UNL     1      43.134 -14.201   4.023  1.00  0.00     0.192 HD
ENDROOT
BRANCH   2   5
HETATM    5  N   UNL     1      42.284 -13.198   5.558  1.00  0.00    -0.184 NA
HETATM    6  C   UNL     1      43.037 -12.158   5.390  1.00  0.00     0.152 C 
BRANCH   6   7
HETATM    7  C   UNL     1      43.018 -11.085   6.365  1.00  0.00     0.011 A 
HETATM    8  C   UNL     1      44.147 -10.549   7.067  1.00  0.00     0.004 A 
HETATM    9  C   UNL     1      43.678  -9.539   7.907  1.00  0.00     0.043 A 
HETATM   10  C   UNL     1      45.532 -10.825   7.058  1.00  0.00     0.014 A 
HETATM   11  C   UNL     1      44.520  -8.796   8.742  1.00  0.00     0.030 A 
HETATM   12  N   UNL     1      42.316  -9.460   7.721  1.00  0.00    -0.364 N 
HETATM   13  C   UNL     1      45.887  -9.091   8.715  1.00  0.00     0.002 A 
HETATM   14  C   UNL     1      46.388 -10.089   7.884  1.00  0.00     0.001 A 
HETATM   15  H   UNL     1      41.710  -8.808   8.200  1.00  0.00     0.165 HD
HETATM   16  C   UNL     1      41.910 -10.379   6.793  1.00  0.00     0.102 A 
ENDBRANCH   6   7
ENDBRANCH   2   5
BRANCH   1  17
HETATM   17  C   UNL     1      41.811 -16.252   3.409  1.00  0.00     0.280 C 
BRANCH  17  18
HETATM   18  O   UNL     1      43.204 -16.563   3.313  1.00  0.00    -0.342 OA
BRANCH  18  19
HETATM   19  C   UNL     1      43.352 -17.929   3.279  1.00  0.00     0.075 A 
HETATM   20  C   UNL     1      43.759 -18.640   4.421  1.00  0.00    -0.023 A 
HETATM   21  C   UNL     1      43.989 -20.027   4.300  1.00  0.00    -0.053 A 
HETATM   22  C   UNL     1      43.995 -17.923   5.723  1.00  0.00     0.052 C 
HETATM   23  C   UNL     1      44.485 -20.853   5.458  1.00  0.00     0.049 C 
HETATM   24  C   UNL     1      43.722 -20.671   3.079  1.00  0.00     0.007 A 
HETATM   25  C   UNL     1      43.255 -19.955   1.978  1.00  0.00     0.003 A 
HETATM   26  C   UNL     1      43.068 -18.581   2.077  1.00  0.00     0.037 A 
ENDBRANCH  18  19
ENDBRANCH  17  18
ENDBRANCH   1  17
TORSDOF 5
ENDMDL
MODEL 5
REMARK VINA RESULT:      -8.0      6.426      9.818
REMARK  5 active torsions:
REMARK  status: ('A' for Active; 'I' for Inactive)
REMARK    1  A    between atoms: C_5  and  O_6 
REMARK    2  A    between atoms: O_6  and  C_7 
REMARK    3  A    between atoms: C_7  and  C_8 
REMARK       I    between atoms: C_8  and  N_9 
REMARK    4  A    between atoms: N_9  and  N_10 
REMARK    5  A    between atoms: C_11  and  C_12 
ROOT
HETATM    1  C   UNL     1      44.249 -11.513   7.104  1.00  0.00     0.261 C 
HETATM    2  N   UNL     1      43.294 -12.519   7.201  1.00  0.00    -0.246 N 
HETATM    3  O   UNL     1      45.415 -11.653   6.737  1.00  0.00    -0.269 OA
HETATM    4  H   UNL     1      42.465 -12.301   7.751  1.00  0.00     0.192 HD
ENDROOT
BRANCH   2   5
HETATM    5  N   UNL     1      43.518 -13.867   7.025  1.00  0.00    -0.184 NA
HETATM    6  C   UNL     1      43.106 -14.423   5.931  1.00  0.00     0.152 C 
BRANCH   6   7
HETATM    7  C   UNL     1      43.374 -15.826   5.686  1.00  0.00     0.011 A 
HETATM    8  C   UNL     1      43.358 -16.490   4.416  1.00  0.00     0.004 A 
HETATM    9  C   UNL     1      43.666 -17.832   4.639  1.00  0.00     0.043 A 
HETATM   10  C   UNL     1      43.118 -16.068   3.089  1.00  0.00     0.014 A 
HETATM   11  C   UNL     1      43.739 -18.775   3.607  1.00  0.00     0.030 A 
HETATM   12  N   UNL     1      43.865 -17.980   5.993  1.00  0.00    -0.364 N 
HETATM   13  C   UNL     1      43.495 -18.331   2.303  1.00  0.00     0.002 A 
HETATM   14  C   UNL     1      43.191 -16.997   2.046  1.00  0.00     0.001 A 
HETATM   15  H   UNL     1      44.107 -18.852   6.444  1.00  0.00     0.165 HD
HETATM   16  C   UNL     1      43.700 -16.781   6.631  1.00  0.00     0.102 A 
ENDBRANCH   6   7
ENDBRANCH   2   5
BRANCH   1  17
HETATM   17  C   UNL     1      43.700 -10.130   7.445  1.00  0.00     0.280 C 
BRANCH  17  18
HETATM   18  O   UNL     1      44.675  -9.311   8.098  1.00  0.00    -0.342 OA
BRANCH  18  19
HETATM   19  C   UNL     1      44.041  -8.530   9.034  1.00  0.00     0.075 A 
HETATM   20  C   UNL     1      44.051  -8.883  10.394  1.00  0.00    -0.023 A 
HETATM   21  C   UNL     1      43.302  -8.096  11.296  1.00  0.00    -0.053 A 
HETATM   22  C   UNL     1      44.799 -10.102  10.863  1.00  0.00     0.052 C 
HETATM   23  C   UNL     1      43.209  -8.439  12.760  1.00  0.00     0.049 C 
HETATM   24  C   UNL     1      42.647  -6.942  10.831  1.00  0.00     0.007 A 
HETATM   25  C   UNL     1      42.707  -6.575   9.488  1.00  0.00     0.003 A 
HETATM   26  C   UNL     1      43.406  -7.370   8.587  1.00  0.00     0.037 A 
ENDBRANCH  18  19
ENDBRANCH  17  18
ENDBRANCH   1  17
TORSDOF 5
ENDMDL
MODEL 6
REMARK VINA RESULT:      -7.9      6.387      9.643
REMARK  5 active torsions:
REMARK  status: ('A' for Active; 'I' for Inactive)
REMARK    1  A    between atoms: C_5  and  O_6 
REMARK    2  A    between atoms: O_6  and  C_7 
REMARK    3  A    between atoms: C_7  and  C_8 
REMARK       I    between atoms: C_8  and  N_9 
REMARK    4  A    between atoms: N_9  and  N_10 
REMARK    5  A    between atoms: C_11  and  C_12 
ROOT
HETATM    1  C   UNL     1      44.353 -11.505   7.129  1.00  0.00     0.261 C 
HETATM    2  N   UNL     1      43.519 -12.615   7.199  1.00  0.00    -0.246 N 
HETATM    3  O   UNL     1      45.475 -11.472   6.627  1.00  0.00    -0.269 OA
HETATM    4  H   UNL     1      42.743 -12.555   7.856  1.00  0.00     0.192 HD
ENDROOT
BRANCH   2   5
HETATM    5  N   UNL     1      43.852 -13.901   6.835  1.00  0.00    -0.184 NA
HETATM    6  C   UNL     1      42.933 -14.655   6.321  1.00  0.00     0.152 C 
BRANCH   6   7
HETATM    7  C   UNL     1      43.261 -15.994   5.873  1.00  0.00     0.011 A 
HETATM    8  C   UNL     1      43.246 -16.470   4.521  1.00  0.00     0.004 A 
HETATM    9  C   UNL     1      43.621 -17.813   4.545  1.00  0.00     0.043 A 
HETATM   10  C   UNL     1      42.957 -15.875   3.273  1.00  0.00     0.014 A 
HETATM   11  C   UNL     1      43.714 -18.594   3.387  1.00  0.00     0.030 A 
HETATM   12  N   UNL     1      43.858 -18.143   5.860  1.00  0.00    -0.364 N 
HETATM   13  C   UNL     1      43.421 -17.982   2.164  1.00  0.00     0.002 A 
HETATM   14  C   UNL     1      43.049 -16.641   2.106  1.00  0.00     0.001 A 
HETATM   15  H   UNL     1      44.151 -19.057   6.177  1.00  0.00     0.165 HD
HETATM   16  C   UNL     1      43.652 -17.056   6.665  1.00  0.00     0.102 A 
ENDBRANCH   6   7
ENDBRANCH   2   5
BRANCH   1  17
HETATM   17  C   UNL     1      43.715 -10.239   7.694  1.00  0.00     0.280 C 
BRANCH  17  18
HETATM   18  O   UNL     1      44.602  -9.533   8.567  1.00  0.00    -0.342 OA
BRANCH  18  19
HETATM   19  C   UNL     1      44.000  -9.393   9.794  1.00  0.00     0.075 A 
HETATM   20  C   UNL     1      43.478  -8.155  10.204  1.00  0.00    -0.023 A 
HETATM   21  C   UNL     1      42.959  -8.047  11.512  1.00  0.00    -0.053 A 
HETATM   22  C   UNL     1      43.524  -6.963   9.286  1.00  0.00     0.052 C 
HETATM   23  C   UNL     1      42.436  -6.742  12.053  1.00  0.00     0.049 C 
HETATM   24  C   UNL     1      42.895  -9.188  12.330  1.00  0.00     0.007 A 
HETATM   25  C   UNL     1      43.359 -10.422  11.876  1.00  0.00     0.003 A 
HETATM   26  C   UNL     1      43.912 -10.526  10.605  1.00  0.00     0.037 A 
ENDBRANCH  18  19
ENDBRANCH  17  18
ENDBRANCH   1  17
TORSDOF 5
ENDMDL
MODEL 7
REMARK VINA RESULT:      -7.9      2.107      8.428
REMARK  5 active torsions:
REMARK  status: ('A' for Active; 'I' for Inactive)
REMARK    1  A    between atoms: C_5  and  O_6 
REMARK    2  A    between atoms: O_6  and  C_7 
REMARK    3  A    between atoms: C_7  and  C_8 
REMARK       I    between atoms: C_8  and  N_9 
REMARK    4  A    between atoms: N_9  and  N_10 
REMARK    5  A    between atoms: C_11  and  C_12 
ROOT
HETATM    1  C   UNL     1      41.771 -12.692   1.319  1.00  0.00     0.261 C 
HETATM    2  N   UNL     1      42.025 -14.058   1.261  1.00  0.00    -0.246 N 
HETATM    3  O   UNL     1      42.194 -11.912   2.171  1.00  0.00    -0.269 OA
HETATM    4  H   UNL     1      41.411 -14.604   0.658  1.00  0.00     0.192 HD
ENDROOT
BRANCH   2   5
HETATM    5  N   UNL     1      42.687 -14.799   2.214  1.00  0.00    -0.184 NA
HETATM    6  C   UNL     1      42.358 -16.042   2.368  1.00  0.00     0.152 C 
BRANCH   6   7
HETATM    7  C   UNL     1      43.072 -16.867   3.322  1.00  0.00     0.011 A 
HETATM    8  C   UNL     1      43.334 -18.272   3.208  1.00  0.00     0.004 A 
HETATM    9  C   UNL     1      44.041 -18.660   4.346  1.00  0.00     0.043 A 
HETATM   10  C   UNL     1      43.040 -19.251   2.233  1.00  0.00     0.014 A 
HETATM   11  C   UNL     1      44.464 -19.977   4.562  1.00  0.00     0.030 A 
HETATM   12  N   UNL     1      44.208 -17.536   5.122  1.00  0.00    -0.364 N 
HETATM   13  C   UNL     1      44.159 -20.927   3.582  1.00  0.00     0.002 A 
HETATM   14  C   UNL     1      43.459 -20.571   2.432  1.00  0.00     0.001 A 
HETATM   15  H   UNL     1      44.692 -17.519   6.009  1.00  0.00     0.165 HD
HETATM   16  C   UNL     1      43.636 -16.452   4.514  1.00  0.00     0.102 A 
ENDBRANCH   6   7
ENDBRANCH   2   5
BRANCH   1  17
HETATM   17  C   UNL     1      40.935 -12.187   0.147  1.00  0.00     0.280 C 
BRANCH  17  18
HETATM   18  O   UNL     1      39.540 -12.447   0.330  1.00  0.00    -0.342 OA
BRANCH  18  19
HETATM   19  C   UNL     1      39.028 -12.966  -0.835  1.00  0.00     0.075 A 
HETATM   20  C   UNL     1      37.928 -12.365  -1.470  1.00  0.00    -0.023 A 
HETATM   21  C   UNL     1      37.384 -12.997  -2.609  1.00  0.00    -0.053 A 
HETATM   22  C   UNL     1      37.315 -11.108  -0.912  1.00  0.00     0.052 C 
HETATM   23  C   UNL     1      36.169 -12.454  -3.313  1.00  0.00     0.049 C 
HETATM   24  C   UNL     1      38.005 -14.148  -3.126  1.00  0.00     0.007 A 
HETATM   25  C   UNL     1      39.136 -14.688  -2.516  1.00  0.00     0.003 A 
HETATM   26  C   UNL     1      39.650 -14.096  -1.369  1.00  0.00     0.037 A 
ENDBRANCH  18  19
ENDBRANCH  17  18
ENDBRANCH   1  17
TORSDOF 5
ENDMDL
MODEL 8
REMARK VINA RESULT:      -7.8      1.434      2.063
REMARK  5 active torsions:
REMARK  status: ('A' for Active; 'I' for Inactive)
REMARK    1  A    between atoms: C_5  and  O_6 
REMARK    2  A    between atoms: O_6  and  C_7 
REMARK    3  A    between atoms: C_7  and  C_8 
REMARK       I    between atoms: C_8  and  N_9 
REMARK    4  A    between atoms: N_9  and  N_10 
REMARK    5  A    between atoms: C_11  and  C_12 
ROOT
HETATM    1  C   UNL     1      41.009 -14.974   3.743  1.00  0.00     0.261 C 
HETATM    2  N   UNL     1      40.498 -15.498   2.561  1.00  0.00    -0.246 N 
HETATM    3  O   UNL     1      40.961 -13.796   4.094  1.00  0.00    -0.269 OA
HETATM    4  H   UNL     1      40.831 -16.424   2.298  1.00  0.00     0.192 HD
ENDROOT
BRANCH   2   5
HETATM    5  N   UNL     1      39.962 -14.773   1.520  1.00  0.00    -0.184 NA
HETATM    6  C   UNL     1      40.538 -14.840   0.362  1.00  0.00     0.152 C 
BRANCH   6   7
HETATM    7  C   UNL     1      39.969 -14.136  -0.771  1.00  0.00     0.011 A 
HETATM    8  C   UNL     1      40.221 -12.775  -1.144  1.00  0.00     0.004 A 
HETATM    9  C   UNL     1      39.468 -12.508  -2.287  1.00  0.00     0.043 A 
HETATM   10  C   UNL     1      41.031 -11.745  -0.618  1.00  0.00     0.014 A 
HETATM   11  C   UNL     1      39.477 -11.262  -2.927  1.00  0.00     0.030 A 
HETATM   12  N   UNL     1      38.786 -13.661  -2.601  1.00  0.00    -0.364 N 
HETATM   13  C   UNL     1      40.287 -10.259  -2.384  1.00  0.00     0.002 A 
HETATM   14  C   UNL     1      41.055 -10.496  -1.247  1.00  0.00     0.001 A 
HETATM   15  H   UNL     1      38.162 -13.761  -3.390  1.00  0.00     0.165 HD
HETATM   16  C   UNL     1      39.085 -14.648  -1.702  1.00  0.00     0.102 A 
ENDBRANCH   6   7
ENDBRANCH   2   5
BRANCH   1  17
HETATM   17  C   UNL     1      41.612 -16.035   4.659  1.00  0.00     0.280 C 
BRANCH  17  18
HETATM   18  O   UNL     1      43.029 -16.148   4.491  1.00  0.00    -0.342 OA
BRANCH  18  19
HETATM   19  C   UNL     1      43.364 -17.479   4.427  1.00  0.00     0.075 A 
HETATM   20  C   UNL     1      43.476 -18.135   3.189  1.00  0.00    -0.023 A 
HETATM   21  C   UNL     1      43.726 -19.525   3.188  1.00  0.00    -0.053 A 
HETATM   22  C   UNL     1      43.279 -17.380   1.903  1.00  0.00     0.052 C 
HETATM   23  C   UNL     1      43.800 -20.316   1.909  1.00  0.00     0.049 C 
HETATM   24  C   UNL     1      43.943 -20.191   4.407  1.00  0.00     0.007 A 
HETATM   25  C   UNL     1      43.893 -19.505   5.619  1.00  0.00     0.003 A 
HETATM   26  C   UNL     1      43.603 -18.146   5.630  1.00  0.00     0.037 A 
ENDBRANCH  18  19
ENDBRANCH  17  18
ENDBRANCH   1  17
TORSDOF 5
ENDMDL
MODEL 9
REMARK VINA RESULT:      -7.7      6.427      9.424
REMARK  5 active torsions:
REMARK  status: ('A' for Active; 'I' for Inactive)
REMARK    1  A    between atoms: C_5  and  O_6 
REMARK    2  A    between atoms: O_6  and  C_7 
REMARK    3  A    between atoms: C_7  and  C_8 
REMARK       I    between atoms: C_8  and  N_9 
REMARK    4  A    between atoms: N_9  and  N_10 
REMARK    5  A    between atoms: C_11  and  C_12 
ROOT
HETATM    1  C   UNL     1      43.791 -11.334   6.883  1.00  0.00     0.261 C 
HETATM    2  N   UNL     1      43.412 -11.236   5.549  1.00  0.00    -0.246 N 
HETATM    3  O   UNL     1      44.453 -12.241   7.384  1.00  0.00    -0.269 OA
HETATM    4  H   UNL     1      42.667 -10.574   5.340  1.00  0.00     0.192 HD
ENDROOT
BRANCH   2   5
HETATM    5  N   UNL     1      43.602 -12.198   4.582  1.00  0.00    -0.184 NA
HETATM    6  C   UNL     1      42.713 -13.131   4.458  1.00  0.00     0.152 C 
BRANCH   6   7
HETATM    7  C   UNL     1      42.849 -14.128   3.414  1.00  0.00     0.011 A 
HETATM    8  C   UNL     1      43.114 -15.525   3.596  1.00  0.00     0.004 A 
HETATM    9  C   UNL     1      43.171 -16.109   2.331  1.00  0.00     0.043 A 
HETATM   10  C   UNL     1      43.302 -16.350   4.727  1.00  0.00     0.014 A 
HETATM   11  C   UNL     1      43.413 -17.475   2.138  1.00  0.00     0.030 A 
HETATM   12  N   UNL     1      42.947 -15.109   1.413  1.00  0.00    -0.364 N 
HETATM   13  C   UNL     1      43.597 -18.269   3.274  1.00  0.00     0.002 A 
HETATM   14  C   UNL     1      43.541 -17.718   4.551  1.00  0.00     0.001 A 
HETATM   15  H   UNL     1      42.927 -15.245   0.412  1.00  0.00     0.165 HD
HETATM   16  C   UNL     1      42.745 -13.916   2.052  1.00  0.00     0.102 A 
ENDBRANCH   6   7
ENDBRANCH   2   5
BRANCH   1  17
HETATM   17  C   UNL     1      43.358 -10.133   7.720  1.00  0.00     0.280 C 
BRANCH  17  18
HETATM   18  O   UNL     1      44.431  -9.614   8.512  1.00  0.00    -0.342 OA
BRANCH  18  19
HETATM   19  C   UNL     1      43.921  -8.708   9.410  1.00  0.00     0.075 A 
HETATM   20  C   UNL     1      43.742  -9.054  10.760  1.00  0.00    -0.023 A 
HETATM   21  C   UNL     1      43.124  -8.117  11.616  1.00  0.00    -0.053 A 
HETATM   22  C   UNL     1      44.152 -10.412  11.262  1.00  0.00     0.052 C 
HETATM   23  C   UNL     1      42.839  -8.430  13.061  1.00  0.00     0.049 C 
HETATM   24  C   UNL     1      42.788  -6.843  11.123  1.00  0.00     0.007 A 
HETATM   25  C   UNL     1      43.037  -6.500   9.795  1.00  0.00     0.003 A 
HETATM   26  C   UNL     1      43.605  -7.433   8.936  1.00  0.00     0.037 A 
ENDBRANCH  18  19
ENDBRANCH  17  18
ENDBRANCH   1  17
TORSDOF 5
ENDMDL
MODEL 10
REMARK VINA RESULT:      -7.7      2.096      3.145
REMARK  5 active torsions:
REMARK  status: ('A' for Active; 'I' for Inactive)
REMARK    1  A    between atoms: C_5  and  O_6 
REMARK    2  A    between atoms: O_6  and  C_7 
REMARK    3  A    between atoms: C_7  and  C_8 
REMARK       I    between atoms: C_8  and  N_9 
REMARK    4  A    between atoms: N_9  and  N_10 
REMARK    5  A    between atoms: C_11  and  C_12 
ROOT
HETATM    1  C   UNL     1      41.482 -15.283   1.376  1.00  0.00     0.261 C 
HETATM    2  N   UNL     1      40.251 -15.215   0.735  1.00  0.00    -0.246 N 
HETATM    3  O   UNL     1      42.283 -14.358   1.507  1.00  0.00    -0.269 OA
HETATM    4  H   UNL     1      39.822 -16.106   0.488  1.00  0.00     0.192 HD
ENDROOT
BRANCH   2   5
HETATM    5  N   UNL     1      39.767 -14.139   0.024  1.00  0.00    -0.184 NA
HETATM    6  C   UNL     1      39.348 -14.336  -1.185  1.00  0.00     0.152 C 
BRANCH   6   7
HETATM    7  C   UNL     1      38.780 -13.238  -1.943  1.00  0.00     0.011 A 
HETATM    8  C   UNL     1      39.449 -12.031  -2.330  1.00  0.00     0.004 A 
HETATM    9  C   UNL     1      38.533 -11.253  -3.037  1.00  0.00     0.043 A 
HETATM   10  C   UNL     1      40.758 -11.532  -2.152  1.00  0.00     0.014 A 
HETATM   11  C   UNL     1      38.855  -9.998  -3.569  1.00  0.00     0.030 A 
HETATM   12  N   UNL     1      37.352 -11.958  -3.082  1.00  0.00    -0.364 N 
HETATM   13  C   UNL     1      40.158  -9.527  -3.377  1.00  0.00     0.002 A 
HETATM   14  C   UNL     1      41.098 -10.282  -2.681  1.00  0.00     0.001 A 
HETATM   15  H   UNL     1      36.509 -11.636  -3.537  1.00  0.00     0.165 HD
HETATM   16  C   UNL     1      37.491 -13.155  -2.434  1.00  0.00     0.102 A 
ENDBRANCH   6   7
ENDBRANCH   2   5
BRANCH   1  17
HETATM   17  C   UNL     1      41.760 -16.648   1.999  1.00  0.00     0.280 C 
BRANCH  17  18
HETATM   18  O   UNL     1      43.160 -16.939   2.053  1.00  0.00    -0.342 OA
BRANCH  18  19
HETATM   19  C   UNL     1      43.468 -17.412   3.306  1.00  0.00     0.075 A 
HETATM   20  C   UNL     1      43.756 -18.771   3.513  1.00  0.00    -0.023 A 
HETATM   21  C   UNL     1      43.968 -19.217   4.836  1.00  0.00    -0.053 A 
HETATM   22  C   UNL     1      43.782 -19.733   2.356  1.00  0.00     0.052 C 
HETATM   23  C   UNL     1      44.222 -20.667   5.153  1.00  0.00     0.049 C 
HETATM   24  C   UNL     1      43.975 -18.286   5.889  1.00  0.00     0.007 A 
HETATM   25  C   UNL     1      43.752 -16.930   5.649  1.00  0.00     0.003 A 
HETATM   26  C   UNL     1      43.499 -16.491   4.355  1.00  0.00     0.037 A 
ENDBRANCH  18  19
ENDBRANCH  17  18
ENDBRANCH   1  17
TORSDOF 5
ENDMDL
