MODEL 1
REMARK VINA RESULT:      -8.6      0.000      0.000
REMARK  8 active torsions:
REMARK  status: ('A' for Active; 'I' for Inactive)
REMARK    1  A    between atoms: O_2  and  C_3 
REMARK    2  A    between atoms: C_3  and  C_4 
REMARK    3  A    between atoms: C_4  and  C_5 
REMARK    4  A    between atoms: C_5  and  N_6 
REMARK    5  A    between atoms: N_6  and  C_8 
REMARK    6  A    between atoms: N_6  and  C_21 
REMARK    7  A    between atoms: C_8  and  C_9 
REMARK    8  A    between atoms: C_21  and  C_22 
ROOT
HETATM    1  N   UNL     1      41.687 -12.474   4.263  1.00  0.00    -0.058 N 
HETATM    2  H   UNL     1      41.935 -12.897   5.170  1.00  0.00     0.280 HD
ENDROOT
BRANCH   1   3
HETATM    3  C   UNL     1      40.186 -12.547   4.078  1.00  0.00     0.238 C 
BRANCH   3   4
HETATM    4  C   UNL     1      39.453 -12.589   5.415  1.00  0.00     0.054 C 
BRANCH   4   5
HETATM    5  C   UNL     1      40.145 -13.558   6.371  1.00  0.00     0.168 C 
BRANCH   5   6
HETATM    6  O   UNL     1      40.332 -14.785   5.672  1.00  0.00    -0.396 OA
HETATM    7  C   UNL     1      40.227 -15.909   6.544  1.00  0.00     0.201 C 
ENDBRANCH   5   6
ENDBRANCH   4   5
ENDBRANCH   3   4
ENDBRANCH   1   3
BRANCH   1   8
HETATM    8  C   UNL     1      42.499 -13.240   3.211  1.00  0.00     0.313 C 
BRANCH   8   9
HETATM    9  C   UNL     1      42.915 -14.645   3.640  1.00  0.00     0.133 A 
HETATM   10  N   UNL     1      42.863 -15.623   2.789  1.00  0.00    -0.233 NA
HETATM   11  C   UNL     1      43.274 -16.900   3.227  1.00  0.00     0.076 A 
HETATM   12  C   UNL     1      43.701 -17.142   4.539  1.00  0.00     0.061 A 
HETATM   13  C   UNL     1      43.259 -17.964   2.324  1.00  0.00     0.056 A 
HETATM   14  C   UNL     1      43.718 -16.000   5.466  1.00  0.00     0.259 A 
HETATM   15  C   UNL     1      44.103 -18.415   4.956  1.00  0.00     0.021 A 
HETATM   16  O   UNL     1      44.068 -16.098   6.633  1.00  0.00    -0.267 OA
HETATM   17  N   UNL     1      43.313 -14.799   4.940  1.00  0.00    -0.309 N 
HETATM   18  H   UNL     1      43.357 -14.034   5.603  1.00  0.00     0.170 HD
HETATM   19  C   UNL     1      44.076 -19.469   4.045  1.00  0.00     0.025 A 
HETATM   20  C   UNL     1      43.654 -19.240   2.735  1.00  0.00     0.036 A 
HETATM   21 CL   UNL     1      43.617 -20.541   1.611  1.00  0.00    -0.084 Cl
ENDBRANCH   8   9
ENDBRANCH   1   8
BRANCH   1  22
HETATM   22  C   UNL     1      42.124 -11.008   4.416  1.00  0.00     0.313 C 
BRANCH  22  23
HETATM   23  C   UNL     1      43.041 -10.800   5.611  1.00  0.00     0.133 A 
HETATM   24  N   UNL     1      42.553 -10.308   6.705  1.00  0.00    -0.233 NA
HETATM   25  C   UNL     1      43.435 -10.133   7.792  1.00  0.00     0.076 A 
HETATM   26  C   UNL     1      44.781 -10.521   7.738  1.00  0.00     0.061 A 
HETATM   27  C   UNL     1      42.954  -9.560   8.969  1.00  0.00     0.056 A 
HETATM   28  C   UNL     1      45.259 -11.131   6.487  1.00  0.00     0.259 A 
HETATM   29  C   UNL     1      45.638 -10.349   8.828  1.00  0.00     0.021 A 
HETATM   30  O   UNL     1      46.389 -11.580   6.358  1.00  0.00    -0.267 OA
HETATM   31  N   UNL     1      44.341 -11.194   5.471  1.00  0.00    -0.309 N 
HETATM   32  H   UNL     1      44.672 -11.671   4.640  1.00  0.00     0.170 HD
HETATM   33  C   UNL     1      45.143  -9.774   9.998  1.00  0.00     0.025 A 
HETATM   34  C   UNL     1      43.804  -9.383  10.063  1.00  0.00     0.036 A 
HETATM   35 CL   UNL     1      43.192  -8.679  11.508  1.00  0.00    -0.084 Cl
ENDBRANCH  22  23
ENDBRANCH   1  22
TORSDOF 8
ENDMDL
MODEL 2
REMARK VINA RESULT:      -8.5      3.323      6.593
REMARK  8 active torsions:
REMARK  status: ('A' for Active; 'I' for Inactive)
REMARK    1  A    between atoms: O_2  and  C_3 
REMARK    2  A    between atoms: C_3  and  C_4 
REMARK    3  A    between atoms: C_4  and  C_5 
REMARK    4  A    between atoms: C_5  and  N_6 
REMARK    5  A    between atoms: N_6  and  C_8 
REMARK    6  A    between atoms: N_6  and  C_21 
REMARK    7  A    between atoms: C_8  and  C_9 
REMARK    8  A    between atoms: C_21  and  C_22 
ROOT
HETATM    1  N   UNL     1      42.976 -12.316   4.606  1.00  0.00    -0.058 N 
HETATM    2  H   UNL     1      43.372 -12.644   3.712  1.00  0.00     0.280 HD
ENDROOT
BRANCH   1   3
HETATM    3  C   UNL     1      43.974 -11.398   5.280  1.00  0.00     0.238 C 
BRANCH   3   4
HETATM    4  C   UNL     1      44.655 -12.076   6.465  1.00  0.00     0.054 C 
BRANCH   4   5
HETATM    5  C   UNL     1      45.593 -11.099   7.170  1.00  0.00     0.168 C 
BRANCH   5   6
HETATM    6  O   UNL     1      45.308 -11.166   8.564  1.00  0.00    -0.396 OA
HETATM    7  C   UNL     1      44.098 -10.484   8.888  1.00  0.00     0.201 C 
ENDBRANCH   5   6
ENDBRANCH   4   5
ENDBRANCH   3   4
ENDBRANCH   1   3
BRANCH   1   8
HETATM    8  C   UNL     1      42.638 -13.584   5.401  1.00  0.00     0.313 C 
BRANCH   8   9
HETATM    9  C   UNL     1      42.895 -14.886   4.645  1.00  0.00     0.133 A 
HETATM   10  N   UNL     1      43.242 -15.954   5.296  1.00  0.00    -0.233 NA
HETATM   11  C   UNL     1      43.451 -17.136   4.556  1.00  0.00     0.076 A 
HETATM   12  C   UNL     1      43.326 -17.183   3.162  1.00  0.00     0.061 A 
HETATM   13  C   UNL     1      43.794 -18.308   5.233  1.00  0.00     0.056 A 
HETATM   14  C   UNL     1      42.952 -15.936   2.476  1.00  0.00     0.259 A 
HETATM   15  C   UNL     1      43.540 -18.364   2.445  1.00  0.00     0.021 A 
HETATM   16  O   UNL     1      42.819 -15.861   1.263  1.00  0.00    -0.267 OA
HETATM   17  N   UNL     1      42.757 -14.845   3.285  1.00  0.00    -0.309 N 
HETATM   18  H   UNL     1      42.483 -14.012   2.778  1.00  0.00     0.170 HD
HETATM   19  C   UNL     1      43.889 -19.524   3.134  1.00  0.00     0.025 A 
HETATM   20  C   UNL     1      44.014 -19.491   4.524  1.00  0.00     0.036 A 
HETATM   21 CL   UNL     1      44.448 -20.921   5.374  1.00  0.00    -0.084 Cl
ENDBRANCH   8   9
ENDBRANCH   1   8
BRANCH   1  22
HETATM   22  C   UNL     1      41.733 -11.517   4.181  1.00  0.00     0.313 C 
BRANCH  22  23
HETATM   23  C   UNL     1      41.501 -11.567   2.679  1.00  0.00     0.133 A 
HETATM   24  N   UNL     1      40.872 -12.578   2.169  1.00  0.00    -0.233 NA
HETATM   25  C   UNL     1      40.674 -12.585   0.773  1.00  0.00     0.076 A 
HETATM   26  C   UNL     1      41.081 -11.527  -0.050  1.00  0.00     0.061 A 
HETATM   27  C   UNL     1      40.043 -13.682   0.185  1.00  0.00     0.056 A 
HETATM   28  C   UNL     1      41.734 -10.379   0.598  1.00  0.00     0.259 A 
HETATM   29  C   UNL     1      40.867 -11.548  -1.431  1.00  0.00     0.021 A 
HETATM   30  O   UNL     1      42.055  -9.368  -0.010  1.00  0.00    -0.267 OA
HETATM   31  N   UNL     1      41.939 -10.500   1.948  1.00  0.00    -0.309 N 
HETATM   32  H   UNL     1      42.336  -9.675   2.385  1.00  0.00     0.170 HD
HETATM   33  C   UNL     1      40.236 -12.651  -2.005  1.00  0.00     0.025 A 
HETATM   34  C   UNL     1      39.828 -13.712  -1.195  1.00  0.00     0.036 A 
HETATM   35 CL   UNL     1      39.044 -15.070  -1.902  1.00  0.00    -0.084 Cl
ENDBRANCH  22  23
ENDBRANCH   1  22
TORSDOF 8
ENDMDL
MODEL 3
REMARK VINA RESULT:      -8.2      1.745      8.176
REMARK  8 active torsions:
REMARK  status: ('A' for Active; 'I' for Inactive)
REMARK    1  A    between atoms: O_2  and  C_3 
REMARK    2  A    between atoms: C_3  and  C_4 
REMARK    3  A    between atoms: C_4  and  C_5 
REMARK    4  A    between atoms: C_5  and  N_6 
REMARK    5  A    between atoms: N_6  and  C_8 
REMARK    6  A    between atoms: N_6  and  C_21 
REMARK    7  A    between atoms: C_8  and  C_9 
REMARK    8  A    between atoms: C_21  and  C_22 
ROOT
HETATM    1  N   UNL     1      42.139 -12.545   4.998  1.00  0.00    -0.058 N 
HETATM    2  H   UNL     1      42.126 -12.895   4.028  1.00  0.00     0.280 HD
ENDROOT
BRANCH   1   3
HETATM    3  C   UNL     1      40.716 -12.422   5.498  1.00  0.00     0.238 C 
BRANCH   3   4
HETATM    4  C   UNL     1      39.721 -13.058   4.532  1.00  0.00     0.054 C 
BRANCH   4   5
HETATM    5  C   UNL     1      39.796 -12.379   3.167  1.00  0.00     0.168 C 
BRANCH   5   6
HETATM    6  O   UNL     1      40.686 -13.143   2.359  1.00  0.00    -0.396 OA
HETATM    7  C   UNL     1      41.328 -12.337   1.374  1.00  0.00     0.201 C 
ENDBRANCH   5   6
ENDBRANCH   4   5
ENDBRANCH   3   4
ENDBRANCH   1   3
BRANCH   1   8
HETATM    8  C   UNL     1      42.916 -11.223   4.953  1.00  0.00     0.313 C 
BRANCH   8   9
HETATM    9  C   UNL     1      43.554 -10.823   6.282  1.00  0.00     0.133 A 
HETATM   10  N   UNL     1      42.815 -10.347   7.236  1.00  0.00    -0.233 NA
HETATM   11  C   UNL     1      43.448 -10.008   8.451  1.00  0.00     0.076 A 
HETATM   12  C   UNL     1      44.829 -10.141   8.642  1.00  0.00     0.061 A 
HETATM   13  C   UNL     1      42.673  -9.524   9.507  1.00  0.00     0.056 A 
HETATM   14  C   UNL     1      45.619 -10.665   7.517  1.00  0.00     0.259 A 
HETATM   15  C   UNL     1      45.438  -9.797   9.852  1.00  0.00     0.021 A 
HETATM   16  O   UNL     1      46.830 -10.817   7.571  1.00  0.00    -0.267 OA
HETATM   17  N   UNL     1      44.909 -10.977   6.384  1.00  0.00    -0.309 N 
HETATM   18  H   UNL     1      45.485 -11.352   5.640  1.00  0.00     0.170 HD
HETATM   19  C   UNL     1      44.653  -9.309  10.895  1.00  0.00     0.025 A 
HETATM   20  C   UNL     1      43.275  -9.175  10.718  1.00  0.00     0.036 A 
HETATM   21 CL   UNL     1      42.306  -8.568  12.002  1.00  0.00    -0.084 Cl
ENDBRANCH   8   9
ENDBRANCH   1   8
BRANCH   1  22
HETATM   22  C   UNL     1      42.872 -13.653   5.772  1.00  0.00     0.313 C 
BRANCH  22  23
HETATM   23  C   UNL     1      43.076 -14.905   4.935  1.00  0.00     0.133 A 
HETATM   24  N   UNL     1      43.361 -16.022   5.525  1.00  0.00    -0.233 NA
HETATM   25  C   UNL     1      43.539 -17.162   4.713  1.00  0.00     0.076 A 
HETATM   26  C   UNL     1      43.365 -17.130   3.323  1.00  0.00     0.061 A 
HETATM   27  C   UNL     1      43.896 -18.370   5.313  1.00  0.00     0.056 A 
HETATM   28  C   UNL     1      42.979 -15.845   2.720  1.00  0.00     0.259 A 
HETATM   29  C   UNL     1      43.537 -18.272   2.537  1.00  0.00     0.021 A 
HETATM   30  O   UNL     1      42.721 -15.721   1.531  1.00  0.00    -0.267 OA
HETATM   31  N   UNL     1      42.897 -14.785   3.586  1.00  0.00    -0.309 N 
HETATM   32  H   UNL     1      42.573 -13.924   3.161  1.00  0.00     0.170 HD
HETATM   33  C   UNL     1      43.894 -19.473   3.149  1.00  0.00     0.025 A 
HETATM   34  C   UNL     1      44.071 -19.516   4.533  1.00  0.00     0.036 A 
HETATM   35 CL   UNL     1      44.506 -20.998   5.290  1.00  0.00    -0.084 Cl
ENDBRANCH  22  23
ENDBRANCH   1  22
TORSDOF 8
ENDMDL
MODEL 4
REMARK VINA RESULT:      -8.2      3.117      7.370
REMARK  8 active torsions:
REMARK  status: ('A' for Active; 'I' for Inactive)
REMARK    1  A    between atoms: O_2  and  C_3 
REMARK    2  A    between atoms: C_3  and  C_4 
REMARK    3  A    between atoms: C_4  and  C_5 
REMARK    4  A    between atoms: C_5  and  N_6 
REMARK    5  A    between atoms: N_6  and  C_8 
REMARK    6  A    between atoms: N_6  and  C_21 
REMARK    7  A    between atoms: C_8  and  C_9 
REMARK    8  A    between atoms: C_21  and  C_22 
ROOT
HETATM    1  N   UNL     1      41.791 -12.919   5.353  1.00  0.00    -0.058 N 
HETATM    2  H   UNL     1      41.636 -13.719   5.985  1.00  0.00     0.280 HD
ENDROOT
BRANCH   1   3
HETATM    3  C   UNL     1      42.374 -11.770   6.147  1.00  0.00     0.238 C 
BRANCH   3   4
HETATM    4  C   UNL     1      43.848 -11.550   5.822  1.00  0.00     0.054 C 
BRANCH   4   5
HETATM    5  C   UNL     1      44.722 -11.974   7.000  1.00  0.00     0.168 C 
BRANCH   5   6
HETATM    6  O   UNL     1      45.747 -10.996   7.144  1.00  0.00    -0.396 OA
HETATM    7  C   UNL     1      45.601 -10.253   8.353  1.00  0.00     0.201 C 
ENDBRANCH   5   6
ENDBRANCH   4   5
ENDBRANCH   3   4
ENDBRANCH   1   3
BRANCH   1   8
HETATM    8  C   UNL     1      40.429 -12.626   4.710  1.00  0.00     0.313 C 
BRANCH   8   9
HETATM    9  C   UNL     1      40.309 -13.081   3.258  1.00  0.00     0.133 A 
HETATM   10  N   UNL     1      40.469 -12.225   2.296  1.00  0.00    -0.233 NA
HETATM   11  C   UNL     1      40.366 -12.698   0.970  1.00  0.00     0.076 A 
HETATM   12  C   UNL     1      40.070 -14.033   0.669  1.00  0.00     0.061 A 
HETATM   13  C   UNL     1      40.565 -11.806  -0.085  1.00  0.00     0.056 A 
HETATM   14  C   UNL     1      39.877 -14.954   1.801  1.00  0.00     0.259 A 
HETATM   15  C   UNL     1      39.969 -14.482  -0.651  1.00  0.00     0.021 A 
HETATM   16  O   UNL     1      39.612 -16.138   1.655  1.00  0.00    -0.267 OA
HETATM   17  N   UNL     1      40.012 -14.401   3.049  1.00  0.00    -0.309 N 
HETATM   18  H   UNL     1      39.891 -15.070   3.801  1.00  0.00     0.170 HD
HETATM   19  C   UNL     1      40.164 -13.579  -1.694  1.00  0.00     0.025 A 
HETATM   20  C   UNL     1      40.461 -12.246  -1.406  1.00  0.00     0.036 A 
HETATM   21 CL   UNL     1      40.698 -11.129  -2.692  1.00  0.00    -0.084 Cl
ENDBRANCH   8   9
ENDBRANCH   1   8
BRANCH   1  22
HETATM   22  C   UNL     1      42.833 -13.445   4.352  1.00  0.00     0.313 C 
BRANCH  22  23
HETATM   23  C   UNL     1      43.139 -14.920   4.559  1.00  0.00     0.133 A 
HETATM   24  N   UNL     1      43.123 -15.719   3.539  1.00  0.00    -0.233 NA
HETATM   25  C   UNL     1      43.415 -17.079   3.772  1.00  0.00     0.076 A 
HETATM   26  C   UNL     1      43.769 -17.566   5.037  1.00  0.00     0.061 A 
HETATM   27  C   UNL     1      43.357 -17.976   2.705  1.00  0.00     0.056 A 
HETATM   28  C   UNL     1      43.832 -16.597   6.142  1.00  0.00     0.259 A 
HETATM   29  C   UNL     1      44.065 -18.916   5.247  1.00  0.00     0.021 A 
HETATM   30  O   UNL     1      44.209 -16.895   7.267  1.00  0.00    -0.267 OA
HETATM   31  N   UNL     1      43.465 -15.314   5.825  1.00  0.00    -0.309 N 
HETATM   32  H   UNL     1      43.572 -14.651   6.584  1.00  0.00     0.170 HD
HETATM   33  C   UNL     1      44.003 -19.801   4.171  1.00  0.00     0.025 A 
HETATM   34  C   UNL     1      43.650 -19.327   2.906  1.00  0.00     0.036 A 
HETATM   35 CL   UNL     1      43.578 -20.417   1.578  1.00  0.00    -0.084 Cl
ENDBRANCH  22  23
ENDBRANCH   1  22
TORSDOF 8
ENDMDL
MODEL 5
REMARK VINA RESULT:      -8.1      1.665      7.819
REMARK  8 active torsions:
REMARK  status: ('A' for Active; 'I' for Inactive)
REMARK    1  A    between atoms: O_2  and  C_3 
REMARK    2  A    between atoms: C_3  and  C_4 
REMARK    3  A    between atoms: C_4  and  C_5 
REMARK    4  A    between atoms: C_5  and  N_6 
REMARK    5  A    between atoms: N_6  and  C_8 
REMARK    6  A    between atoms: N_6  and  C_21 
REMARK    7  A    between atoms: C_8  and  C_9 
REMARK    8  A    between atoms: C_21  and  C_22 
ROOT
HETATM    1  N   UNL     1      40.555 -11.582   4.857  1.00  0.00    -0.058 N 
HETATM    2  H   UNL     1      41.543 -11.857   4.749  1.00  0.00     0.280 HD
ENDROOT
BRANCH   1   3
HETATM    3  C   UNL     1      39.963 -11.320   3.489  1.00  0.00     0.238 C 
BRANCH   3   4
HETATM    4  C   UNL     1      40.916 -11.735   2.372  1.00  0.00     0.054 C 
BRANCH   4   5
HETATM    5  C   UNL     1      42.100 -10.775   2.298  1.00  0.00     0.168 C 
BRANCH   5   6
HETATM    6  O   UNL     1      43.048 -11.190   3.278  1.00  0.00    -0.396 OA
HETATM    7  C   UNL     1      43.466 -12.538   3.068  1.00  0.00     0.201 C 
ENDBRANCH   5   6
ENDBRANCH   4   5
ENDBRANCH   3   4
ENDBRANCH   1   3
BRANCH   1   8
HETATM    8  C   UNL     1      40.562 -10.367   5.793  1.00  0.00     0.313 C 
BRANCH   8   9
HETATM    9  C   UNL     1      41.764 -10.304   6.733  1.00  0.00     0.133 A 
HETATM   10  N   UNL     1      41.656  -9.712   7.882  1.00  0.00    -0.233 NA
HETATM   11  C   UNL     1      42.790  -9.696   8.723  1.00  0.00     0.076 A 
HETATM   12  C   UNL     1      44.013 -10.263   8.346  1.00  0.00     0.061 A 
HETATM   13  C   UNL     1      42.694  -9.094   9.979  1.00  0.00     0.056 A 
HETATM   14  C   UNL     1      44.082 -10.901   7.022  1.00  0.00     0.259 A 
HETATM   15  C   UNL     1      45.126 -10.235   9.191  1.00  0.00     0.021 A 
HETATM   16  O   UNL     1      45.099 -11.424   6.589  1.00  0.00    -0.267 OA
HETATM   17  N   UNL     1      42.924 -10.877   6.287  1.00  0.00    -0.309 N 
HETATM   18  H   UNL     1      43.006 -11.343   5.390  1.00  0.00     0.170 HD
HETATM   19  C   UNL     1      45.018  -9.625  10.439  1.00  0.00     0.025 A 
HETATM   20  C   UNL     1      43.803  -9.057  10.827  1.00  0.00     0.036 A 
HETATM   21 CL   UNL     1      43.669  -8.301  12.365  1.00  0.00    -0.084 Cl
ENDBRANCH   8   9
ENDBRANCH   1   8
BRANCH   1  22
HETATM   22  C   UNL     1      39.900 -12.825   5.481  1.00  0.00     0.313 C 
BRANCH  22  23
HETATM   23  C   UNL     1      40.865 -13.995   5.588  1.00  0.00     0.133 A 
HETATM   24  N   UNL     1      41.100 -14.719   4.541  1.00  0.00    -0.233 NA
HETATM   25  C   UNL     1      42.003 -15.793   4.680  1.00  0.00     0.076 A 
HETATM   26  C   UNL     1      42.679 -16.057   5.879  1.00  0.00     0.061 A 
HETATM   27  C   UNL     1      42.241 -16.624   3.584  1.00  0.00     0.056 A 
HETATM   28  C   UNL     1      42.417 -15.159   7.014  1.00  0.00     0.259 A 
HETATM   29  C   UNL     1      43.579 -17.120   5.995  1.00  0.00     0.021 A 
HETATM   30  O   UNL     1      43.012 -15.245   8.080  1.00  0.00    -0.267 OA
HETATM   31  N   UNL     1      41.474 -14.188   6.795  1.00  0.00    -0.309 N 
HETATM   32  H   UNL     1      41.351 -13.545   7.569  1.00  0.00     0.170 HD
HETATM   33  C   UNL     1      43.806 -17.942   4.892  1.00  0.00     0.025 A 
HETATM   34  C   UNL     1      43.137 -17.690   3.693  1.00  0.00     0.036 A 
HETATM   35 CL   UNL     1      43.421 -18.701   2.331  1.00  0.00    -0.084 Cl
ENDBRANCH  22  23
ENDBRANCH   1  22
TORSDOF 8
ENDMDL
MODEL 6
REMARK VINA RESULT:      -7.9      3.383      7.918
REMARK  8 active torsions:
REMARK  status: ('A' for Active; 'I' for Inactive)
REMARK    1  A    between atoms: O_2  and  C_3 
REMARK    2  A    between atoms: C_3  and  C_4 
REMARK    3  A    between atoms: C_4  and  C_5 
REMARK    4  A    between atoms: C_5  and  N_6 
REMARK    5  A    between atoms: N_6  and  C_8 
REMARK    6  A    between atoms: N_6  and  C_21 
REMARK    7  A    between atoms: C_8  and  C_9 
REMARK    8  A    between atoms: C_21  and  C_22 
ROOT
HETATM    1  N   UNL     1      40.417 -13.382   1.132  1.00  0.00    -0.058 N 
HETATM    2  H   UNL     1      41.420 -13.615   1.075  1.00  0.00     0.280 HD
ENDROOT
BRANCH   1   3
HETATM    3  C   UNL     1      39.737 -13.810  -0.151  1.00  0.00     0.238 C 
BRANCH   3   4
HETATM    4  C   UNL     1      40.266 -13.038  -1.355  1.00  0.00     0.054 C 
BRANCH   4   5
HETATM    5  C   UNL     1      40.346 -13.948  -2.578  1.00  0.00     0.168 C 
BRANCH   5   6
HETATM    6  O   UNL     1      39.268 -13.597  -3.441  1.00  0.00    -0.396 OA
HETATM    7  C   UNL     1      38.285 -14.628  -3.502  1.00  0.00     0.201 C 
ENDBRANCH   5   6
ENDBRANCH   4   5
ENDBRANCH   3   4
ENDBRANCH   1   3
BRANCH   1   8
HETATM    8  C   UNL     1      40.356 -11.876   1.416  1.00  0.00     0.313 C 
BRANCH   8   9
HETATM    9  C   UNL     1      40.864 -11.476   2.799  1.00  0.00     0.133 A 
HETATM   10  N   UNL     1      42.098 -11.707   3.127  1.00  0.00    -0.233 NA
HETATM   11  C   UNL     1      42.525 -11.304   4.410  1.00  0.00     0.076 A 
HETATM   12  C   UNL     1      41.663 -10.699   5.333  1.00  0.00     0.061 A 
HETATM   13  C   UNL     1      43.856 -11.510   4.777  1.00  0.00     0.056 A 
HETATM   14  C   UNL     1      40.269 -10.483   4.915  1.00  0.00     0.259 A 
HETATM   15  C   UNL     1      42.104 -10.309   6.601  1.00  0.00     0.021 A 
HETATM   16  O   UNL     1      39.431  -9.968   5.640  1.00  0.00    -0.267 OA
HETATM   17  N   UNL     1      39.957 -10.897   3.644  1.00  0.00    -0.309 N 
HETATM   18  H   UNL     1      38.994 -10.713   3.386  1.00  0.00     0.170 HD
HETATM   19  C   UNL     1      43.433 -10.528   6.957  1.00  0.00     0.025 A 
HETATM   20  C   UNL     1      44.303 -11.127   6.044  1.00  0.00     0.036 A 
HETATM   21 CL   UNL     1      45.942 -11.402   6.483  1.00  0.00    -0.084 Cl
ENDBRANCH   8   9
ENDBRANCH   1   8
BRANCH   1  22
HETATM   22  C   UNL     1      39.912 -14.240   2.304  1.00  0.00     0.313 C 
BRANCH  22  23
HETATM   23  C   UNL     1      40.996 -15.147   2.865  1.00  0.00     0.133 A 
HETATM   24  N   UNL     1      41.286 -16.246   2.244  1.00  0.00    -0.233 NA
HETATM   25  C   UNL     1      42.299 -17.058   2.795  1.00  0.00     0.076 A 
HETATM   26  C   UNL     1      43.021 -16.689   3.938  1.00  0.00     0.061 A 
HETATM   27  C   UNL     1      42.603 -18.273   2.179  1.00  0.00     0.056 A 
HETATM   28  C   UNL     1      42.688 -15.398   4.560  1.00  0.00     0.259 A 
HETATM   29  C   UNL     1      44.029 -17.502   4.463  1.00  0.00     0.021 A 
HETATM   30  O   UNL     1      43.307 -14.940   5.510  1.00  0.00    -0.267 OA
HETATM   31  N   UNL     1      41.644 -14.718   3.988  1.00  0.00    -0.309 N 
HETATM   32  H   UNL     1      41.469 -13.806   4.395  1.00  0.00     0.170 HD
HETATM   33  C   UNL     1      44.321 -18.713   3.837  1.00  0.00     0.025 A 
HETATM   34  C   UNL     1      43.607 -19.092   2.699  1.00  0.00     0.036 A 
HETATM   35 CL   UNL     1      43.971 -20.584   1.923  1.00  0.00    -0.084 Cl
ENDBRANCH  22  23
ENDBRANCH   1  22
TORSDOF 8
ENDMDL
MODEL 7
REMARK VINA RESULT:      -7.9      3.342      6.604
REMARK  8 active torsions:
REMARK  status: ('A' for Active; 'I' for Inactive)
REMARK    1  A    between atoms: O_2  and  C_3 
REMARK    2  A    between atoms: C_3  and  C_4 
REMARK    3  A    between atoms: C_4  and  C_5 
REMARK    4  A    between atoms: C_5  and  N_6 
REMARK    5  A    between atoms: N_6  and  C_8 
REMARK    6  A    between atoms: N_6  and  C_21 
REMARK    7  A    between atoms: C_8  and  C_9 
REMARK    8  A    between atoms: C_21  and  C_22 
ROOT
HETATM    1  N   UNL     1      40.640 -12.482   5.035  1.00  0.00    -0.058 N 
HETATM    2  H   UNL     1      41.350 -12.834   4.375  1.00  0.00     0.280 HD
ENDROOT
BRANCH   1   3
HETATM    3  C   UNL     1      41.128 -11.183   5.639  1.00  0.00     0.238 C 
BRANCH   3   4
HETATM    4  C   UNL     1      42.368 -10.658   4.922  1.00  0.00     0.054 C 
BRANCH   4   5
HETATM    5  C   UNL     1      43.487 -11.695   4.965  1.00  0.00     0.168 C 
BRANCH   5   6
HETATM    6  O   UNL     1      43.529 -12.222   6.287  1.00  0.00    -0.396 OA
HETATM    7  C   UNL     1      44.719 -11.837   6.972  1.00  0.00     0.201 C 
ENDBRANCH   5   6
ENDBRANCH   4   5
ENDBRANCH   3   4
ENDBRANCH   1   3
BRANCH   1   8
HETATM    8  C   UNL     1      40.416 -13.613   6.048  1.00  0.00     0.313 C 
BRANCH   8   9
HETATM    9  C   UNL     1      41.374 -14.792   5.894  1.00  0.00     0.133 A 
HETATM   10  N   UNL     1      41.420 -15.445   4.773  1.00  0.00    -0.233 NA
HETATM   11  C   UNL     1      42.333 -16.516   4.674  1.00  0.00     0.076 A 
HETATM   12  C   UNL     1      43.153 -16.907   5.739  1.00  0.00     0.061 A 
HETATM   13  C   UNL     1      42.428 -17.216   3.469  1.00  0.00     0.056 A 
HETATM   14  C   UNL     1      43.041 -16.144   6.993  1.00  0.00     0.259 A 
HETATM   15  C   UNL     1      44.050 -17.972   5.622  1.00  0.00     0.021 A 
HETATM   16  O   UNL     1      43.704 -16.399   7.987  1.00  0.00    -0.267 OA
HETATM   17  N   UNL     1      42.135 -15.113   6.984  1.00  0.00    -0.309 N 
HETATM   18  H   UNL     1      42.101 -14.601   7.858  1.00  0.00     0.170 HD
HETATM   19  C   UNL     1      44.129 -18.666   4.417  1.00  0.00     0.025 A 
HETATM   20  C   UNL     1      43.319 -18.286   3.346  1.00  0.00     0.036 A 
HETATM   21 CL   UNL     1      43.412 -19.143   1.859  1.00  0.00    -0.084 Cl
ENDBRANCH   8   9
ENDBRANCH   1   8
BRANCH   1  22
HETATM   22  C   UNL     1      39.416 -12.217   4.143  1.00  0.00     0.313 C 
BRANCH  22  23
HETATM   23  C   UNL     1      39.584 -12.794   2.746  1.00  0.00     0.133 A 
HETATM   24  N   UNL     1      39.838 -11.996   1.758  1.00  0.00    -0.233 NA
HETATM   25  C   UNL     1      39.989 -12.571   0.478  1.00  0.00     0.076 A 
HETATM   26  C   UNL     1      39.929 -13.954   0.263  1.00  0.00     0.061 A 
HETATM   27  C   UNL     1      40.214 -11.735  -0.616  1.00  0.00     0.056 A 
HETATM   28  C   UNL     1      39.702 -14.812   1.437  1.00  0.00     0.259 A 
HETATM   29  C   UNL     1      40.092 -14.505  -1.011  1.00  0.00     0.021 A 
HETATM   30  O   UNL     1      39.713 -16.033   1.378  1.00  0.00    -0.267 OA
HETATM   31  N   UNL     1      39.501 -14.152   2.621  1.00  0.00    -0.309 N 
HETATM   32  H   UNL     1      39.404 -14.761   3.426  1.00  0.00     0.170 HD
HETATM   33  C   UNL     1      40.316 -13.658  -2.095  1.00  0.00     0.025 A 
HETATM   34  C   UNL     1      40.376 -12.278  -1.893  1.00  0.00     0.036 A 
HETATM   35 CL   UNL     1      40.657 -11.233  -3.230  1.00  0.00    -0.084 Cl
ENDBRANCH  22  23
ENDBRANCH   1  22
TORSDOF 8
ENDMDL
MODEL 8
REMARK VINA RESULT:      -7.9      1.901      7.920
REMARK  8 active torsions:
REMARK  status: ('A' for Active; 'I' for Inactive)
REMARK    1  A    between atoms: O_2  and  C_3 
REMARK    2  A    between atoms: C_3  and  C_4 
REMARK    3  A    between atoms: C_4  and  C_5 
REMARK    4  A    between atoms: C_5  and  N_6 
REMARK    5  A    between atoms: N_6  and  C_8 
REMARK    6  A    between atoms: N_6  and  C_21 
REMARK    7  A    between atoms: C_8  and  C_9 
REMARK    8  A    between atoms: C_21  and  C_22 
ROOT
HETATM    1  N   UNL     1      41.179 -12.475   3.560  1.00  0.00    -0.058 N 
HETATM    2  H   UNL     1      42.186 -12.696   3.568  1.00  0.00     0.280 HD
ENDROOT
BRANCH   1   3
HETATM    3  C   UNL     1      40.810 -11.908   2.205  1.00  0.00     0.238 C 
BRANCH   3   4
HETATM    4  C   UNL     1      41.313 -12.792   1.068  1.00  0.00     0.054 C 
BRANCH   4   5
HETATM    5  C   UNL     1      40.844 -12.246  -0.278  1.00  0.00     0.168 C 
BRANCH   5   6
HETATM    6  O   UNL     1      39.646 -12.935  -0.623  1.00  0.00    -0.396 OA
HETATM    7  C   UNL     1      39.814 -14.350  -0.558  1.00  0.00     0.201 C 
ENDBRANCH   5   6
ENDBRANCH   4   5
ENDBRANCH   3   4
ENDBRANCH   1   3
BRANCH   1   8
HETATM    8  C   UNL     1      40.953 -11.517   4.736  1.00  0.00     0.313 C 
BRANCH   8   9
HETATM    9  C   UNL     1      42.210 -11.212   5.548  1.00  0.00     0.133 A 
HETATM   10  N   UNL     1      42.103 -10.745   6.754  1.00  0.00    -0.233 NA
HETATM   11  C   UNL     1      43.292 -10.496   7.471  1.00  0.00     0.076 A 
HETATM   12  C   UNL     1      44.562 -10.706   6.917  1.00  0.00     0.061 A 
HETATM   13  C   UNL     1      43.208 -10.024   8.782  1.00  0.00     0.056 A 
HETATM   14  C   UNL     1      44.621 -11.215   5.538  1.00  0.00     0.259 A 
HETATM   15  C   UNL     1      45.729 -10.450   7.642  1.00  0.00     0.021 A 
HETATM   16  O   UNL     1      45.673 -11.430   4.955  1.00  0.00    -0.267 OA
HETATM   17  N   UNL     1      43.410 -11.439   4.932  1.00  0.00    -0.309 N 
HETATM   18  H   UNL     1      43.493 -11.807   3.992  1.00  0.00     0.170 HD
HETATM   19  C   UNL     1      45.629  -9.973   8.947  1.00  0.00     0.025 A 
HETATM   20  C   UNL     1      44.370  -9.761   9.511  1.00  0.00     0.036 A 
HETATM   21 CL   UNL     1      44.245  -9.168  11.120  1.00  0.00    -0.084 Cl
ENDBRANCH   8   9
ENDBRANCH   1   8
BRANCH   1  22
HETATM   22  C   UNL     1      40.506 -13.844   3.755  1.00  0.00     0.313 C 
BRANCH  22  23
HETATM   23  C   UNL     1      41.516 -14.954   3.997  1.00  0.00     0.133 A 
HETATM   24  N   UNL     1      41.601 -15.928   3.147  1.00  0.00    -0.233 NA
HETATM   25  C   UNL     1      42.552 -16.938   3.406  1.00  0.00     0.076 A 
HETATM   26  C   UNL     1      43.423 -16.887   4.502  1.00  0.00     0.061 A 
HETATM   27  C   UNL     1      42.636 -18.026   2.537  1.00  0.00     0.056 A 
HETATM   28  C   UNL     1      43.319 -15.723   5.395  1.00  0.00     0.259 A 
HETATM   29  C   UNL     1      44.366 -17.892   4.736  1.00  0.00     0.021 A 
HETATM   30  O   UNL     1      44.082 -15.535   6.332  1.00  0.00    -0.267 OA
HETATM   31  N   UNL     1      42.320 -14.834   5.094  1.00  0.00    -0.309 N 
HETATM   32  H   UNL     1      42.302 -14.010   5.686  1.00  0.00     0.170 HD
HETATM   33  C   UNL     1      44.438 -18.974   3.860  1.00  0.00     0.025 A 
HETATM   34  C   UNL     1      43.574 -19.036   2.765  1.00  0.00     0.036 A 
HETATM   35 CL   UNL     1      43.667 -20.368   1.681  1.00  0.00    -0.084 Cl
ENDBRANCH  22  23
ENDBRANCH   1  22
TORSDOF 8
ENDMDL
MODEL 9
REMARK VINA RESULT:      -7.8      2.763      3.714
REMARK  8 active torsions:
REMARK  status: ('A' for Active; 'I' for Inactive)
REMARK    1  A    between atoms: O_2  and  C_3 
REMARK    2  A    between atoms: C_3  and  C_4 
REMARK    3  A    between atoms: C_4  and  C_5 
REMARK    4  A    between atoms: C_5  and  N_6 
REMARK    5  A    between atoms: N_6  and  C_8 
REMARK    6  A    between atoms: N_6  and  C_21 
REMARK    7  A    between atoms: C_8  and  C_9 
REMARK    8  A    between atoms: C_21  and  C_22 
ROOT
HETATM    1  N   UNL     1      41.776 -11.167   6.797  1.00  0.00    -0.058 N 
HETATM    2  H   UNL     1      41.942 -11.827   7.573  1.00  0.00     0.280 HD
ENDROOT
BRANCH   1   3
HETATM    3  C   UNL     1      40.381 -10.595   6.926  1.00  0.00     0.238 C 
BRANCH   3   4
HETATM    4  C   UNL     1      40.185  -9.376   6.029  1.00  0.00     0.054 C 
BRANCH   4   5
HETATM    5  C   UNL     1      39.462  -8.267   6.788  1.00  0.00     0.168 C 
BRANCH   5   6
HETATM    6  O   UNL     1      38.934  -8.841   7.980  1.00  0.00    -0.396 OA
HETATM    7  C   UNL     1      39.019  -7.938   9.082  1.00  0.00     0.201 C 
ENDBRANCH   5   6
ENDBRANCH   4   5
ENDBRANCH   3   4
ENDBRANCH   1   3
BRANCH   1   8
HETATM    8  C   UNL     1      42.023 -11.967   5.511  1.00  0.00     0.313 C 
BRANCH   8   9
HETATM    9  C   UNL     1      42.468 -13.409   5.743  1.00  0.00     0.133 A 
HETATM   10  N   UNL     1      42.643 -14.202   4.732  1.00  0.00    -0.233 NA
HETATM   11  C   UNL     1      43.071 -15.520   4.996  1.00  0.00     0.076 A 
HETATM   12  C   UNL     1      43.280 -15.996   6.296  1.00  0.00     0.061 A 
HETATM   13  C   UNL     1      43.298 -16.387   3.925  1.00  0.00     0.056 A 
HETATM   14  C   UNL     1      43.045 -15.058   7.405  1.00  0.00     0.259 A 
HETATM   15  C   UNL     1      43.702 -17.307   6.538  1.00  0.00     0.021 A 
HETATM   16  O   UNL     1      43.192 -15.367   8.578  1.00  0.00    -0.267 OA
HETATM   17  N   UNL     1      42.644 -13.797   7.043  1.00  0.00    -0.309 N 
HETATM   18  H   UNL     1      42.510 -13.175   7.833  1.00  0.00     0.170 HD
HETATM   19  C   UNL     1      43.919 -18.163   5.460  1.00  0.00     0.025 A 
HETATM   20  C   UNL     1      43.716 -17.699   4.159  1.00  0.00     0.036 A 
HETATM   21 CL   UNL     1      43.978 -18.755   2.828  1.00  0.00    -0.084 Cl
ENDBRANCH   8   9
ENDBRANCH   1   8
BRANCH   1  22
HETATM   22  C   UNL     1      42.819 -10.063   7.033  1.00  0.00     0.313 C 
BRANCH  22  23
HETATM   23  C   UNL     1      42.954  -9.701   8.504  1.00  0.00     0.133 A 
HETATM   24  N   UNL     1      42.555  -8.537   8.908  1.00  0.00    -0.233 NA
HETATM   25  C   UNL     1      42.695  -8.240  10.280  1.00  0.00     0.076 A 
HETATM   26  C   UNL     1      43.190  -9.169  11.204  1.00  0.00     0.061 A 
HETATM   27  C   UNL     1      42.321  -6.977  10.741  1.00  0.00     0.056 A 
HETATM   28  C   UNL     1      43.567 -10.496  10.692  1.00  0.00     0.259 A 
HETATM   29  C   UNL     1      43.312  -8.860  12.562  1.00  0.00     0.021 A 
HETATM   30  O   UNL     1      43.933 -11.409  11.420  1.00  0.00    -0.267 OA
HETATM   31  N   UNL     1      43.457 -10.660   9.336  1.00  0.00    -0.309 N 
HETATM   32  H   UNL     1      43.665 -11.598   9.011  1.00  0.00     0.170 HD
HETATM   33  C   UNL     1      42.935  -7.594  13.007  1.00  0.00     0.025 A 
HETATM   34  C   UNL     1      42.441  -6.660  12.096  1.00  0.00     0.036 A 
HETATM   35 CL   UNL     1      41.970  -5.099  12.647  1.00  0.00    -0.084 Cl
ENDBRANCH  22  23
ENDBRANCH   1  22
TORSDOF 8
ENDMDL
MODEL 10
REMARK VINA RESULT:      -7.7      3.937      6.668
REMARK  8 active torsions:
REMARK  status: ('A' for Active; 'I' for Inactive)
REMARK    1  A    between atoms: O_2  and  C_3 
REMARK    2  A    between atoms: C_3  and  C_4 
REMARK    3  A    between atoms: C_4  and  C_5 
REMARK    4  A    between atoms: C_5  and  N_6 
REMARK    5  A    between atoms: N_6  and  C_8 
REMARK    6  A    between atoms: N_6  and  C_21 
REMARK    7  A    between atoms: C_8  and  C_9 
REMARK    8  A    between atoms: C_21  and  C_22 
ROOT
HETATM    1  N   UNL     1      40.796 -13.232   3.765  1.00  0.00    -0.058 N 
HETATM    2  H   UNL     1      40.609 -12.282   3.409  1.00  0.00     0.280 HD
ENDROOT
BRANCH   1   3
HETATM    3  C   UNL     1      40.228 -13.355   5.163  1.00  0.00     0.238 C 
BRANCH   3   4
HETATM    4  C   UNL     1      39.409 -12.127   5.550  1.00  0.00     0.054 C 
BRANCH   4   5
HETATM    5  C   UNL     1      40.331 -10.959   5.890  1.00  0.00     0.168 C 
BRANCH   5   6
HETATM    6  O   UNL     1      40.594 -10.257   4.679  1.00  0.00    -0.396 OA
HETATM    7  C   UNL     1      41.962  -9.866   4.582  1.00  0.00     0.201 C 
ENDBRANCH   5   6
ENDBRANCH   4   5
ENDBRANCH   3   4
ENDBRANCH   1   3
BRANCH   1   8
HETATM    8  C   UNL     1      42.315 -13.419   3.674  1.00  0.00     0.313 C 
BRANCH   8   9
HETATM    9  C   UNL     1      42.795 -14.830   4.006  1.00  0.00     0.133 A 
HETATM   10  N   UNL     1      42.765 -15.754   3.096  1.00  0.00    -0.233 NA
HETATM   11  C   UNL     1      43.235 -17.038   3.445  1.00  0.00     0.076 A 
HETATM   12  C   UNL     1      43.697 -17.345   4.731  1.00  0.00     0.061 A 
HETATM   13  C   UNL     1      43.245 -18.044   2.477  1.00  0.00     0.056 A 
HETATM   14  C   UNL     1      43.688 -16.263   5.728  1.00  0.00     0.259 A 
HETATM   15  C   UNL     1      44.157 -18.623   5.060  1.00  0.00     0.021 A 
HETATM   16  O   UNL     1      44.064 -16.419   6.881  1.00  0.00    -0.267 OA
HETATM   17  N   UNL     1      43.225 -15.049   5.286  1.00  0.00    -0.309 N 
HETATM   18  H   UNL     1      43.252 -14.325   5.996  1.00  0.00     0.170 HD
HETATM   19  C   UNL     1      44.154 -19.619   4.085  1.00  0.00     0.025 A 
HETATM   20  C   UNL     1      43.698 -19.325   2.799  1.00  0.00     0.036 A 
HETATM   21 CL   UNL     1      43.690 -20.554   1.597  1.00  0.00    -0.084 Cl
ENDBRANCH   8   9
ENDBRANCH   1   8
BRANCH   1  22
HETATM   22  C   UNL     1      40.014 -14.140   2.801  1.00  0.00     0.313 C 
BRANCH  22  23
HETATM   23  C   UNL     1      40.060 -13.636   1.367  1.00  0.00     0.133 A 
HETATM   24  N   UNL     1      40.597 -12.483   1.119  1.00  0.00    -0.233 NA
HETATM   25  C   UNL     1      40.622 -12.052  -0.224  1.00  0.00     0.076 A 
HETATM   26  C   UNL     1      40.144 -12.843  -1.277  1.00  0.00     0.061 A 
HETATM   27  C   UNL     1      41.148 -10.794  -0.521  1.00  0.00     0.056 A 
HETATM   28  C   UNL     1      39.605 -14.169  -0.936  1.00  0.00     0.259 A 
HETATM   29  C   UNL     1      40.188 -12.403  -2.603  1.00  0.00     0.021 A 
HETATM   30  O   UNL     1      39.238 -14.973  -1.781  1.00  0.00    -0.267 OA
HETATM   31  N   UNL     1      39.563 -14.464   0.402  1.00  0.00    -0.309 N 
HETATM   32  H   UNL     1      39.244 -15.403   0.611  1.00  0.00     0.170 HD
HETATM   33  C   UNL     1      40.715 -11.144  -2.885  1.00  0.00     0.025 A 
HETATM   34  C   UNL     1      41.193 -10.346  -1.843  1.00  0.00     0.036 A 
HETATM   35 CL   UNL     1      41.850  -8.795  -2.191  1.00  0.00    -0.084 Cl
ENDBRANCH  22  23
ENDBRANCH   1  22
TORSDOF 8
ENDMDL
