MODEL 1
REMARK VINA RESULT:      -8.8      0.000      0.000
REMARK  5 active torsions:
REMARK  status: ('A' for Active; 'I' for Inactive)
REMARK    1  A    between atoms: C_6  and  O_7 
REMARK    2  A    between atoms: O_7  and  C_8 
REMARK    3  A    between atoms: C_8  and  C_9 
REMARK       I    between atoms: C_9  and  N_10 
REMARK    4  A    between atoms: N_10  and  N_11 
REMARK    5  A    between atoms: C_12  and  C_13 
ROOT
HETATM    1  C   UNL     1      40.789 -13.174   2.727  1.00  0.00     0.261 C 
HETATM    2  N   UNL     1      41.990 -13.856   2.605  1.00  0.00    -0.246 N 
HETATM    3  O   UNL     1      39.930 -13.393   3.579  1.00  0.00    -0.269 OA
HETATM    4  H   UNL     1      42.654 -13.577   1.888  1.00  0.00     0.192 HD
ENDROOT
BRANCH   2   5
HETATM    5  N   UNL     1      42.255 -14.893   3.447  1.00  0.00    -0.184 NA
HETATM    6  C   UNL     1      43.232 -15.675   3.125  1.00  0.00     0.153 C 
BRANCH   6   7
HETATM    7  C   UNL     1      43.541 -16.813   3.973  1.00  0.00     0.018 A 
HETATM    8  C   UNL     1      43.598 -18.205   3.618  1.00  0.00     0.004 A 
HETATM    9  C   UNL     1      43.950 -18.917   4.765  1.00  0.00     0.043 A 
HETATM   10  C   UNL     1      43.385 -18.932   2.427  1.00  0.00     0.014 A 
HETATM   11  C   UNL     1      44.102 -20.310   4.780  1.00  0.00     0.030 A 
HETATM   12  N   UNL     1      44.099 -18.002   5.777  1.00  0.00    -0.358 N 
HETATM   13  C   UNL     1      43.886 -21.001   3.586  1.00  0.00     0.002 A 
HETATM   14  C   UNL     1      43.531 -20.325   2.423  1.00  0.00     0.001 A 
HETATM   15  H   UNL     1      44.358 -18.246   6.724  1.00  0.00     0.166 HD
HETATM   16  C   UNL     1      43.859 -16.728   5.324  1.00  0.00     0.018 A 
HETATM   17  C   UNL     1      43.970 -15.557   6.232  1.00  0.00     0.069 C 
ENDBRANCH   6   7
ENDBRANCH   2   5
BRANCH   1  18
HETATM   18  C   UNL     1      40.553 -12.152   1.620  1.00  0.00     0.280 C 
BRANCH  18  19
HETATM   19  O   UNL     1      41.265 -12.465   0.425  1.00  0.00    -0.341 OA
BRANCH  19  20
HETATM   20  C   UNL     1      40.508 -13.048  -0.562  1.00  0.00     0.086 A 
HETATM   21  C   UNL     1      40.329 -12.340  -1.758  1.00  0.00     0.044 A 
HETATM   22  C   UNL     1      39.578 -12.884  -2.807  1.00  0.00     0.028 A 
HETATM   23 BR   UNL     1      41.071 -10.606  -1.997  1.00  0.00    -0.048 Br
HETATM   24  C   UNL     1      39.016 -14.160  -2.685  1.00  0.00    -0.061 A 
HETATM   25  C   UNL     1      38.183 -14.744  -3.788  1.00  0.00     0.048 C 
HETATM   26  C   UNL     1      39.202 -14.871  -1.496  1.00  0.00     0.009 A 
HETATM   27  C   UNL     1      39.949 -14.325  -0.448  1.00  0.00     0.039 A 
ENDBRANCH  19  20
ENDBRANCH  18  19
ENDBRANCH   1  18
TORSDOF 5
ENDMDL
MODEL 2
REMARK VINA RESULT:      -8.5      2.087      2.332
REMARK  5 active torsions:
REMARK  status: ('A' for Active; 'I' for Inactive)
REMARK    1  A    between atoms: C_6  and  O_7 
REMARK    2  A    between atoms: O_7  and  C_8 
REMARK    3  A    between atoms: C_8  and  C_9 
REMARK       I    between atoms: C_9  and  N_10 
REMARK    4  A    between atoms: N_10  and  N_11 
REMARK    5  A    between atoms: C_12  and  C_13 
ROOT
HETATM    1  C   UNL     1      40.339 -14.425   1.425  1.00  0.00     0.261 C 
HETATM    2  N   UNL     1      41.195 -14.309   2.510  1.00  0.00    -0.246 N 
HETATM    3  O   UNL     1      39.848 -15.475   1.015  1.00  0.00    -0.269 OA
HETATM    4  H   UNL     1      41.520 -13.389   2.796  1.00  0.00     0.192 HD
ENDROOT
BRANCH   2   5
HETATM    5  N   UNL     1      41.588 -15.433   3.170  1.00  0.00    -0.184 NA
HETATM    6  C   UNL     1      42.857 -15.590   3.356  1.00  0.00     0.153 C 
BRANCH   6   7
HETATM    7  C   UNL     1      43.335 -16.785   4.030  1.00  0.00     0.018 A 
HETATM    8  C   UNL     1      43.426 -18.126   3.518  1.00  0.00     0.004 A 
HETATM    9  C   UNL     1      43.959 -18.925   4.530  1.00  0.00     0.043 A 
HETATM   10  C   UNL     1      43.106 -18.740   2.288  1.00  0.00     0.014 A 
HETATM   11  C   UNL     1      44.191 -20.298   4.373  1.00  0.00     0.030 A 
HETATM   12  N   UNL     1      44.183 -18.111   5.612  1.00  0.00    -0.358 N 
HETATM   13  C   UNL     1      43.865 -20.876   3.143  1.00  0.00     0.002 A 
HETATM   14  C   UNL     1      43.329 -20.111   2.113  1.00  0.00     0.001 A 
HETATM   15  H   UNL     1      44.572 -18.432   6.487  1.00  0.00     0.166 HD
HETATM   16  C   UNL     1      43.815 -16.817   5.334  1.00  0.00     0.018 A 
HETATM   17  C   UNL     1      43.974 -15.740   6.346  1.00  0.00     0.069 C 
ENDBRANCH   6   7
ENDBRANCH   2   5
BRANCH   1  18
HETATM   18  C   UNL     1      40.114 -13.112   0.683  1.00  0.00     0.280 C 
BRANCH  18  19
HETATM   19  O   UNL     1      39.928 -13.300  -0.718  1.00  0.00    -0.341 OA
BRANCH  19  20
HETATM   20  C   UNL     1      38.888 -12.588  -1.264  1.00  0.00     0.086 A 
HETATM   21  C   UNL     1      38.136 -13.197  -2.279  1.00  0.00     0.044 A 
HETATM   22  C   UNL     1      37.056 -12.528  -2.868  1.00  0.00     0.028 A 
HETATM   23 BR   UNL     1      38.566 -14.935  -2.916  1.00  0.00    -0.048 Br
HETATM   24  C   UNL     1      36.694 -11.249  -2.431  1.00  0.00    -0.061 A 
HETATM   25  C   UNL     1      35.558 -10.508  -3.073  1.00  0.00     0.048 C 
HETATM   26  C   UNL     1      37.437 -10.646  -1.412  1.00  0.00     0.009 A 
HETATM   27  C   UNL     1      38.518 -11.312  -0.827  1.00  0.00     0.039 A 
ENDBRANCH  19  20
ENDBRANCH  18  19
ENDBRANCH   1  18
TORSDOF 5
ENDMDL
MODEL 3
REMARK VINA RESULT:      -8.3      3.761      6.222
REMARK  5 active torsions:
REMARK  status: ('A' for Active; 'I' for Inactive)
REMARK    1  A    between atoms: C_6  and  O_7 
REMARK    2  A    between atoms: O_7  and  C_8 
REMARK    3  A    between atoms: C_8  and  C_9 
REMARK       I    between atoms: C_9  and  N_10 
REMARK    4  A    between atoms: N_10  and  N_11 
REMARK    5  A    between atoms: C_12  and  C_13 
ROOT
HETATM    1  C   UNL     1      40.536 -13.246   5.239  1.00  0.00     0.261 C 
HETATM    2  N   UNL     1      41.360 -14.121   5.930  1.00  0.00    -0.246 N 
HETATM    3  O   UNL     1      40.011 -13.472   4.151  1.00  0.00    -0.269 OA
HETATM    4  H   UNL     1      41.717 -13.857   6.845  1.00  0.00     0.192 HD
ENDROOT
BRANCH   2   5
HETATM    5  N   UNL     1      41.678 -15.320   5.367  1.00  0.00    -0.184 NA
HETATM    6  C   UNL     1      42.836 -15.413   4.800  1.00  0.00     0.153 C 
BRANCH   6   7
HETATM    7  C   UNL     1      43.216 -16.659   4.159  1.00  0.00     0.018 A 
HETATM    8  C   UNL     1      43.434 -17.946   4.762  1.00  0.00     0.004 A 
HETATM    9  C   UNL     1      43.767 -18.836   3.741  1.00  0.00     0.043 A 
HETATM   10  C   UNL     1      43.379 -18.443   6.083  1.00  0.00     0.014 A 
HETATM   11  C   UNL     1      44.043 -20.191   3.972  1.00  0.00     0.030 A 
HETATM   12  N   UNL     1      43.756 -18.126   2.567  1.00  0.00    -0.358 N 
HETATM   13  C   UNL     1      43.980 -20.652   5.289  1.00  0.00     0.002 A 
HETATM   14  C   UNL     1      43.654 -19.793   6.333  1.00  0.00     0.001 A 
HETATM   15  H   UNL     1      43.958 -18.530   1.662  1.00  0.00     0.166 HD
HETATM   16  C   UNL     1      43.425 -16.812   2.793  1.00  0.00     0.018 A 
HETATM   17  C   UNL     1      43.333 -15.840   1.673  1.00  0.00     0.069 C 
ENDBRANCH   6   7
ENDBRANCH   2   5
BRANCH   1  18
HETATM   18  C   UNL     1      40.398 -11.882   5.909  1.00  0.00     0.280 C 
BRANCH  18  19
HETATM   19  O   UNL     1      41.287 -10.911   5.363  1.00  0.00    -0.341 OA
BRANCH  19  20
HETATM   20  C   UNL     1      42.528 -10.868   5.950  1.00  0.00     0.086 A 
HETATM   21  C   UNL     1      43.629 -11.287   5.192  1.00  0.00     0.044 A 
HETATM   22  C   UNL     1      44.922 -11.256   5.730  1.00  0.00     0.028 A 
HETATM   23 BR   UNL     1      43.416 -11.936   3.418  1.00  0.00    -0.048 Br
HETATM   24  C   UNL     1      45.135 -10.781   7.028  1.00  0.00    -0.061 A 
HETATM   25  C   UNL     1      46.510 -10.771   7.630  1.00  0.00     0.048 C 
HETATM   26  C   UNL     1      44.038 -10.354   7.782  1.00  0.00     0.009 A 
HETATM   27  C   UNL     1      42.748 -10.388   7.246  1.00  0.00     0.039 A 
ENDBRANCH  19  20
ENDBRANCH  18  19
ENDBRANCH   1  18
TORSDOF 5
ENDMDL
MODEL 4
REMARK VINA RESULT:      -8.3      5.865      9.212
REMARK  5 active torsions:
REMARK  status: ('A' for Active; 'I' for Inactive)
REMARK    1  A    between atoms: C_6  and  O_7 
REMARK    2  A    between atoms: O_7  and  C_8 
REMARK    3  A    between atoms: C_8  and  C_9 
REMARK       I    between atoms: C_9  and  N_10 
REMARK    4  A    between atoms: N_10  and  N_11 
REMARK    5  A    between atoms: C_12  and  C_13 
ROOT
HETATM    1  C   UNL     1      44.619 -11.475   7.145  1.00  0.00     0.261 C 
HETATM    2  N   UNL     1      43.559 -12.368   7.118  1.00  0.00    -0.246 N 
HETATM    3  O   UNL     1      45.360 -11.222   6.197  1.00  0.00    -0.269 OA
HETATM    4  H   UNL     1      42.979 -12.483   7.945  1.00  0.00     0.192 HD
ENDROOT
BRANCH   2   5
HETATM    5  N   UNL     1      43.316 -13.079   5.983  1.00  0.00    -0.184 NA
HETATM    6  C   UNL     1      42.653 -14.181   6.111  1.00  0.00     0.153 C 
BRANCH   6   7
HETATM    7  C   UNL     1      42.390 -14.994   4.937  1.00  0.00     0.018 A 
HETATM    8  C   UNL     1      43.029 -16.218   4.533  1.00  0.00     0.004 A 
HETATM    9  C   UNL     1      42.425 -16.633   3.346  1.00  0.00     0.043 A 
HETATM   10  C   UNL     1      44.064 -17.016   5.065  1.00  0.00     0.014 A 
HETATM   11  C   UNL     1      42.801 -17.802   2.670  1.00  0.00     0.030 A 
HETATM   12  N   UNL     1      41.463 -15.705   3.035  1.00  0.00    -0.358 N 
HETATM   13  C   UNL     1      43.829 -18.571   3.221  1.00  0.00     0.002 A 
HETATM   14  C   UNL     1      44.455 -18.186   4.402  1.00  0.00     0.001 A 
HETATM   15  H   UNL     1      40.867 -15.763   2.221  1.00  0.00     0.166 HD
HETATM   16  C   UNL     1      41.422 -14.709   3.980  1.00  0.00     0.018 A 
HETATM   17  C   UNL     1      40.449 -13.590   3.874  1.00  0.00     0.069 C 
ENDBRANCH   6   7
ENDBRANCH   2   5
BRANCH   1  18
HETATM   18  C   UNL     1      44.875 -10.874   8.523  1.00  0.00     0.280 C 
BRANCH  18  19
HETATM   19  O   UNL     1      44.093  -9.707   8.764  1.00  0.00    -0.341 OA
BRANCH  19  20
HETATM   20  C   UNL     1      43.664  -9.556  10.060  1.00  0.00     0.086 A 
HETATM   21  C   UNL     1      43.247  -8.282  10.471  1.00  0.00     0.044 A 
HETATM   22  C   UNL     1      42.788  -8.066  11.776  1.00  0.00     0.028 A 
HETATM   23 BR   UNL     1      43.311  -6.795   9.289  1.00  0.00    -0.048 Br
HETATM   24  C   UNL     1      42.714  -9.128  12.684  1.00  0.00    -0.061 A 
HETATM   25  C   UNL     1      42.253  -8.906  14.095  1.00  0.00     0.048 C 
HETATM   26  C   UNL     1      43.120 -10.401  12.272  1.00  0.00     0.009 A 
HETATM   27  C   UNL     1      43.582 -10.615  10.970  1.00  0.00     0.039 A 
ENDBRANCH  19  20
ENDBRANCH  18  19
ENDBRANCH   1  18
TORSDOF 5
ENDMDL
MODEL 5
REMARK VINA RESULT:      -8.2      1.598      2.343
REMARK  5 active torsions:
REMARK  status: ('A' for Active; 'I' for Inactive)
REMARK    1  A    between atoms: C_6  and  O_7 
REMARK    2  A    between atoms: O_7  and  C_8 
REMARK    3  A    between atoms: C_8  and  C_9 
REMARK       I    between atoms: C_9  and  N_10 
REMARK    4  A    between atoms: N_10  and  N_11 
REMARK    5  A    between atoms: C_12  and  C_13 
ROOT
HETATM    1  C   UNL     1      40.416 -13.890   2.039  1.00  0.00     0.261 C 
HETATM    2  N   UNL     1      41.713 -14.126   2.470  1.00  0.00    -0.246 N 
HETATM    3  O   UNL     1      39.436 -14.576   2.324  1.00  0.00    -0.269 OA
HETATM    4  H   UNL     1      42.453 -13.478   2.212  1.00  0.00     0.192 HD
ENDROOT
BRANCH   2   5
HETATM    5  N   UNL     1      41.972 -15.226   3.230  1.00  0.00    -0.184 NA
HETATM    6  C   UNL     1      43.204 -15.611   3.304  1.00  0.00     0.153 C 
BRANCH   6   7
HETATM    7  C   UNL     1      43.534 -16.795   4.078  1.00  0.00     0.018 A 
HETATM    8  C   UNL     1      43.581 -18.164   3.643  1.00  0.00     0.004 A 
HETATM    9  C   UNL     1      43.962 -18.939   4.739  1.00  0.00     0.043 A 
HETATM   10  C   UNL     1      43.338 -18.823   2.418  1.00  0.00     0.014 A 
HETATM   11  C   UNL     1      44.114 -20.331   4.671  1.00  0.00     0.030 A 
HETATM   12  N   UNL     1      44.137 -18.083   5.797  1.00  0.00    -0.358 N 
HETATM   13  C   UNL     1      43.867 -20.953   3.444  1.00  0.00     0.002 A 
HETATM   14  C   UNL     1      43.483 -20.213   2.331  1.00  0.00     0.001 A 
HETATM   15  H   UNL     1      44.419 -18.381   6.721  1.00  0.00     0.166 HD
HETATM   16  C   UNL     1      43.886 -16.786   5.423  1.00  0.00     0.018 A 
HETATM   17  C   UNL     1      44.021 -15.668   6.393  1.00  0.00     0.069 C 
ENDBRANCH   6   7
ENDBRANCH   2   5
BRANCH   1  18
HETATM   18  C   UNL     1      40.300 -12.722   1.066  1.00  0.00     0.280 C 
BRANCH  18  19
HETATM   19  O   UNL     1      40.964 -12.972  -0.171  1.00  0.00    -0.341 OA
BRANCH  19  20
HETATM   20  C   UNL     1      40.932 -11.930  -1.066  1.00  0.00     0.086 A 
HETATM   21  C   UNL     1      40.342 -12.157  -2.317  1.00  0.00     0.044 A 
HETATM   22  C   UNL     1      40.268 -11.132  -3.268  1.00  0.00     0.028 A 
HETATM   23 BR   UNL     1      39.646 -13.862  -2.784  1.00  0.00    -0.048 Br
HETATM   24  C   UNL     1      40.760  -9.856  -2.972  1.00  0.00    -0.061 A 
HETATM   25  C   UNL     1      40.716  -8.756  -3.992  1.00  0.00     0.048 C 
HETATM   26  C   UNL     1      41.340  -9.627  -1.720  1.00  0.00     0.009 A 
HETATM   27  C   UNL     1      41.417 -10.651  -0.772  1.00  0.00     0.039 A 
ENDBRANCH  19  20
ENDBRANCH  18  19
ENDBRANCH   1  18
TORSDOF 5
ENDMDL
MODEL 6
REMARK VINA RESULT:      -8.1      6.079      9.253
REMARK  5 active torsions:
REMARK  status: ('A' for Active; 'I' for Inactive)
REMARK    1  A    between atoms: C_6  and  O_7 
REMARK    2  A    between atoms: O_7  and  C_8 
REMARK    3  A    between atoms: C_8  and  C_9 
REMARK       I    between atoms: C_9  and  N_10 
REMARK    4  A    between atoms: N_10  and  N_11 
REMARK    5  A    between atoms: C_12  and  C_13 
ROOT
HETATM    1  C   UNL     1      44.631 -10.985   7.207  1.00  0.00     0.261 C 
HETATM    2  N   UNL     1      43.827 -12.044   7.600  1.00  0.00    -0.246 N 
HETATM    3  O   UNL     1      45.483 -11.030   6.321  1.00  0.00    -0.269 OA
HETATM    4  H   UNL     1      43.123 -11.899   8.319  1.00  0.00     0.192 HD
ENDROOT
BRANCH   2   5
HETATM    5  N   UNL     1      43.998 -13.263   7.017  1.00  0.00    -0.184 NA
HETATM    6  C   UNL     1      43.079 -13.655   6.197  1.00  0.00     0.153 C 
BRANCH   6   7
HETATM    7  C   UNL     1      43.197 -14.959   5.567  1.00  0.00     0.018 A 
HETATM    8  C   UNL     1      43.144 -15.285   4.168  1.00  0.00     0.004 A 
HETATM    9  C   UNL     1      43.321 -16.665   4.053  1.00  0.00     0.043 A 
HETATM   10  C   UNL     1      42.964 -14.539   2.984  1.00  0.00     0.014 A 
HETATM   11  C   UNL     1      43.330 -17.331   2.820  1.00  0.00     0.030 A 
HETATM   12  N   UNL     1      43.473 -17.160   5.324  1.00  0.00    -0.358 N 
HETATM   13  C   UNL     1      43.150 -16.565   1.666  1.00  0.00     0.002 A 
HETATM   14  C   UNL     1      42.968 -15.188   1.742  1.00  0.00     0.001 A 
HETATM   15  H   UNL     1      43.622 -18.137   5.534  1.00  0.00     0.166 HD
HETATM   16  C   UNL     1      43.403 -16.150   6.253  1.00  0.00     0.018 A 
HETATM   17  C   UNL     1      43.552 -16.432   7.705  1.00  0.00     0.069 C 
ENDBRANCH   6   7
ENDBRANCH   2   5
BRANCH   1  18
HETATM   18  C   UNL     1      44.444  -9.731   8.054  1.00  0.00     0.280 C 
BRANCH  18  19
HETATM   19  O   UNL     1      43.135  -9.636   8.610  1.00  0.00    -0.341 OA
BRANCH  19  20
HETATM   20  C   UNL     1      43.091  -9.211   9.916  1.00  0.00     0.086 A 
HETATM   21  C   UNL     1      42.816  -7.858  10.157  1.00  0.00     0.044 A 
HETATM   22  C   UNL     1      42.746  -7.365  11.466  1.00  0.00     0.028 A 
HETATM   23 BR   UNL     1      42.555  -6.634   8.726  1.00  0.00    -0.048 Br
HETATM   24  C   UNL     1      42.924  -8.224  12.555  1.00  0.00    -0.061 A 
HETATM   25  C   UNL     1      42.882  -7.705  13.963  1.00  0.00     0.048 C 
HETATM   26  C   UNL     1      43.188  -9.576  12.315  1.00  0.00     0.009 A 
HETATM   27  C   UNL     1      43.262 -10.067  11.009  1.00  0.00     0.039 A 
ENDBRANCH  19  20
ENDBRANCH  18  19
ENDBRANCH   1  18
TORSDOF 5
ENDMDL
MODEL 7
REMARK VINA RESULT:      -8.0      5.112      8.182
REMARK  5 active torsions:
REMARK  status: ('A' for Active; 'I' for Inactive)
REMARK    1  A    between atoms: C_6  and  O_7 
REMARK    2  A    between atoms: O_7  and  C_8 
REMARK    3  A    between atoms: C_8  and  C_9 
REMARK       I    between atoms: C_9  and  N_10 
REMARK    4  A    between atoms: N_10  and  N_11 
REMARK    5  A    between atoms: C_12  and  C_13 
ROOT
HETATM    1  C   UNL     1      43.585 -12.452   6.240  1.00  0.00     0.261 C 
HETATM    2  N   UNL     1      42.864 -13.108   5.253  1.00  0.00    -0.246 N 
HETATM    3  O   UNL     1      44.689 -12.794   6.659  1.00  0.00    -0.269 OA
HETATM    4  H   UNL     1      41.974 -12.726   4.946  1.00  0.00     0.192 HD
ENDROOT
BRANCH   2   5
HETATM    5  N   UNL     1      43.362 -14.256   4.716  1.00  0.00    -0.184 NA
HETATM    6  C   UNL     1      42.539 -15.242   4.572  1.00  0.00     0.153 C 
BRANCH   6   7
HETATM    7  C   UNL     1      43.023 -16.499   4.030  1.00  0.00     0.018 A 
HETATM    8  C   UNL     1      43.302 -17.726   4.727  1.00  0.00     0.004 A 
HETATM    9  C   UNL     1      43.730 -18.657   3.780  1.00  0.00     0.043 A 
HETATM   10  C   UNL     1      43.230 -18.137   6.075  1.00  0.00     0.014 A 
HETATM   11  C   UNL     1      44.084 -19.972   4.111  1.00  0.00     0.030 A 
HETATM   12  N   UNL     1      43.716 -18.028   2.560  1.00  0.00    -0.358 N 
HETATM   13  C   UNL     1      44.002 -20.349   5.454  1.00  0.00     0.002 A 
HETATM   14  C   UNL     1      43.582 -19.446   6.426  1.00  0.00     0.001 A 
HETATM   15  H   UNL     1      43.978 -18.476   1.693  1.00  0.00     0.166 HD
HETATM   16  C   UNL     1      43.293 -16.727   2.686  1.00  0.00     0.018 A 
HETATM   17  C   UNL     1      43.179 -15.840   1.499  1.00  0.00     0.069 C 
ENDBRANCH   6   7
ENDBRANCH   2   5
BRANCH   1  18
HETATM   18  C   UNL     1      42.837 -11.280   6.864  1.00  0.00     0.280 C 
BRANCH  18  19
HETATM   19  O   UNL     1      43.691 -10.174   7.148  1.00  0.00    -0.341 OA
BRANCH  19  20
HETATM   20  C   UNL     1      43.657  -9.737   8.450  1.00  0.00     0.086 A 
HETATM   21  C   UNL     1      42.949  -8.560   8.730  1.00  0.00     0.044 A 
HETATM   22  C   UNL     1      42.868  -8.068  10.038  1.00  0.00     0.028 A 
HETATM   23 BR   UNL     1      42.097  -7.571   7.349  1.00  0.00    -0.048 Br
HETATM   24  C   UNL     1      43.472  -8.762  11.093  1.00  0.00    -0.061 A 
HETATM   25  C   UNL     1      43.419  -8.231  12.495  1.00  0.00     0.048 C 
HETATM   26  C   UNL     1      44.170  -9.941  10.816  1.00  0.00     0.009 A 
HETATM   27  C   UNL     1      44.254 -10.429   9.509  1.00  0.00     0.039 A 
ENDBRANCH  19  20
ENDBRANCH  18  19
ENDBRANCH   1  18
TORSDOF 5
ENDMDL
MODEL 8
REMARK VINA RESULT:      -7.9      5.842      8.564
REMARK  5 active torsions:
REMARK  status: ('A' for Active; 'I' for Inactive)
REMARK    1  A    between atoms: C_6  and  O_7 
REMARK    2  A    between atoms: O_7  and  C_8 
REMARK    3  A    between atoms: C_8  and  C_9 
REMARK       I    between atoms: C_9  and  N_10 
REMARK    4  A    between atoms: N_10  and  N_11 
REMARK    5  A    between atoms: C_12  and  C_13 
ROOT
HETATM    1  C   UNL     1      43.841 -11.636   4.558  1.00  0.00     0.261 C 
HETATM    2  N   UNL     1      42.994 -11.677   5.655  1.00  0.00    -0.246 N 
HETATM    3  O   UNL     1      45.034 -11.341   4.592  1.00  0.00    -0.269 OA
HETATM    4  H   UNL     1      42.028 -11.971   5.531  1.00  0.00     0.192 HD
ENDROOT
BRANCH   2   5
HETATM    5  N   UNL     1      43.471 -11.320   6.879  1.00  0.00    -0.184 NA
HETATM    6  C   UNL     1      43.248 -10.106   7.264  1.00  0.00     0.153 C 
BRANCH   6   7
HETATM    7  C   UNL     1      43.759  -9.662   8.548  1.00  0.00     0.018 A 
HETATM    8  C   UNL     1      43.029  -9.389   9.757  1.00  0.00     0.004 A 
HETATM    9  C   UNL     1      43.955  -9.006  10.728  1.00  0.00     0.043 A 
HETATM   10  C   UNL     1      41.666  -9.433  10.121  1.00  0.00     0.014 A 
HETATM   11  C   UNL     1      43.588  -8.669  12.038  1.00  0.00     0.030 A 
HETATM   12  N   UNL     1      45.194  -9.039  10.140  1.00  0.00    -0.358 N 
HETATM   13  C   UNL     1      42.231  -8.723  12.368  1.00  0.00     0.002 A 
HETATM   14  C   UNL     1      41.280  -9.098  11.425  1.00  0.00     0.001 A 
HETATM   15  H   UNL     1      46.053  -8.809  10.621  1.00  0.00     0.166 HD
HETATM   16  C   UNL     1      45.102  -9.433   8.827  1.00  0.00     0.018 A 
HETATM   17  C   UNL     1      46.315  -9.561   7.977  1.00  0.00     0.069 C 
ENDBRANCH   6   7
ENDBRANCH   2   5
BRANCH   1  18
HETATM   18  C   UNL     1      43.136 -11.901   3.232  1.00  0.00     0.280 C 
BRANCH  18  19
HETATM   19  O   UNL     1      42.046 -12.811   3.364  1.00  0.00    -0.341 OA
BRANCH  19  20
HETATM   20  C   UNL     1      42.348 -14.121   3.078  1.00  0.00     0.086 A 
HETATM   21  C   UNL     1      41.838 -15.113   3.925  1.00  0.00     0.044 A 
HETATM   22  C   UNL     1      42.101 -16.467   3.680  1.00  0.00     0.028 A 
HETATM   23 BR   UNL     1      40.798 -14.667   5.452  1.00  0.00    -0.048 Br
HETATM   24  C   UNL     1      42.856 -16.850   2.567  1.00  0.00    -0.061 A 
HETATM   25  C   UNL     1      43.172 -18.294   2.308  1.00  0.00     0.048 C 
HETATM   26  C   UNL     1      43.357 -15.860   1.715  1.00  0.00     0.009 A 
HETATM   27  C   UNL     1      43.098 -14.509   1.962  1.00  0.00     0.039 A 
ENDBRANCH  19  20
ENDBRANCH  18  19
ENDBRANCH   1  18
TORSDOF 5
ENDMDL
MODEL 9
REMARK VINA RESULT:      -7.8      3.320      8.940
REMARK  5 active torsions:
REMARK  status: ('A' for Active; 'I' for Inactive)
REMARK    1  A    between atoms: C_6  and  O_7 
REMARK    2  A    between atoms: O_7  and  C_8 
REMARK    3  A    between atoms: C_8  and  C_9 
REMARK       I    between atoms: C_9  and  N_10 
REMARK    4  A    between atoms: N_10  and  N_11 
REMARK    5  A    between atoms: C_12  and  C_13 
ROOT
HETATM    1  C   UNL     1      41.035 -13.846   2.637  1.00  0.00     0.261 C 
HETATM    2  N   UNL     1      41.075 -13.805   1.252  1.00  0.00    -0.246 N 
HETATM    3  O   UNL     1      40.058 -13.565   3.330  1.00  0.00    -0.269 OA
HETATM    4  H   UNL     1      41.920 -14.092   0.766  1.00  0.00     0.192 HD
ENDROOT
BRANCH   2   5
HETATM    5  N   UNL     1      39.979 -13.376   0.567  1.00  0.00    -0.184 NA
HETATM    6  C   UNL     1      40.018 -13.472  -0.721  1.00  0.00     0.153 C 
BRANCH   6   7
HETATM    7  C   UNL     1      38.887 -13.003  -1.504  1.00  0.00     0.018 A 
HETATM    8  C   UNL     1      38.211 -11.737  -1.430  1.00  0.00     0.004 A 
HETATM    9  C   UNL     1      37.199 -11.746  -2.390  1.00  0.00     0.043 A 
HETATM   10  C   UNL     1      38.362 -10.579  -0.637  1.00  0.00     0.014 A 
HETATM   11  C   UNL     1      36.338 -10.660  -2.598  1.00  0.00     0.030 A 
HETATM   12  N   UNL     1      37.252 -12.963  -3.021  1.00  0.00    -0.358 N 
HETATM   13  C   UNL     1      36.513  -9.528  -1.799  1.00  0.00     0.002 A 
HETATM   14  C   UNL     1      37.510  -9.485  -0.830  1.00  0.00     0.001 A 
HETATM   15  H   UNL     1      36.629 -13.238  -3.769  1.00  0.00     0.166 HD
HETATM   16  C   UNL     1      38.262 -13.738  -2.505  1.00  0.00     0.018 A 
HETATM   17  C   UNL     1      38.532 -15.100  -3.035  1.00  0.00     0.069 C 
ENDBRANCH   6   7
ENDBRANCH   2   5
BRANCH   1  18
HETATM   18  C   UNL     1      42.378 -14.185   3.276  1.00  0.00     0.280 C 
BRANCH  18  19
HETATM   19  O   UNL     1      42.287 -15.271   4.195  1.00  0.00    -0.341 OA
BRANCH  19  20
HETATM   20  C   UNL     1      42.665 -16.491   3.689  1.00  0.00     0.086 A 
HETATM   21  C   UNL     1      43.595 -17.245   4.417  1.00  0.00     0.044 A 
HETATM   22  C   UNL     1      44.012 -18.501   3.959  1.00  0.00     0.028 A 
HETATM   23 BR   UNL     1      44.348 -16.588   6.033  1.00  0.00    -0.048 Br
HETATM   24  C   UNL     1      43.484 -19.034   2.778  1.00  0.00    -0.061 A 
HETATM   25  C   UNL     1      43.944 -20.365   2.259  1.00  0.00     0.048 C 
HETATM   26  C   UNL     1      42.549 -18.286   2.057  1.00  0.00     0.009 A 
HETATM   27  C   UNL     1      42.135 -17.031   2.512  1.00  0.00     0.039 A 
ENDBRANCH  19  20
ENDBRANCH  18  19
ENDBRANCH   1  18
TORSDOF 5
ENDMDL
MODEL 10
REMARK VINA RESULT:      -7.6      2.239      3.572
REMARK  5 active torsions:
REMARK  status: ('A' for Active; 'I' for Inactive)
REMARK    1  A    between atoms: C_6  and  O_7 
REMARK    2  A    between atoms: O_7  and  C_8 
REMARK    3  A    between atoms: C_8  and  C_9 
REMARK       I    between atoms: C_9  and  N_10 
REMARK    4  A    between atoms: N_10  and  N_11 
REMARK    5  A    between atoms: C_12  and  C_13 
ROOT
HETATM    1  C   UNL     1      41.586 -13.198   0.949  1.00  0.00     0.261 C 
HETATM    2  N   UNL     1      41.981 -14.526   0.880  1.00  0.00    -0.246 N 
HETATM    3  O   UNL     1      41.795 -12.442   1.896  1.00  0.00    -0.269 OA
HETATM    4  H   UNL     1      41.794 -15.061   0.036  1.00  0.00     0.192 HD
ENDROOT
BRANCH   2   5
HETATM    5  N   UNL     1      42.609 -15.090   1.948  1.00  0.00    -0.184 NA
HETATM    6  C   UNL     1      42.059 -16.138   2.466  1.00  0.00     0.153 C 
BRANCH   6   7
HETATM    7  C   UNL     1      42.672 -16.764   3.624  1.00  0.00     0.018 A 
HETATM    8  C   UNL     1      42.713 -16.290   4.981  1.00  0.00     0.004 A 
HETATM    9  C   UNL     1      43.398 -17.242   5.737  1.00  0.00     0.043 A 
HETATM   10  C   UNL     1      42.233 -15.139   5.642  1.00  0.00     0.014 A 
HETATM   11  C   UNL     1      43.622 -17.103   7.113  1.00  0.00     0.030 A 
HETATM   12  N   UNL     1      43.761 -18.252   4.881  1.00  0.00    -0.358 N 
HETATM   13  C   UNL     1      43.133 -15.954   7.740  1.00  0.00     0.002 A 
HETATM   14  C   UNL     1      42.448 -14.982   7.017  1.00  0.00     0.001 A 
HETATM   15  H   UNL     1      44.269 -19.077   5.168  1.00  0.00     0.166 HD
HETATM   16  C   UNL     1      43.333 -17.987   3.603  1.00  0.00     0.018 A 
HETATM   17  C   UNL     1      43.593 -18.941   2.494  1.00  0.00     0.069 C 
ENDBRANCH   6   7
ENDBRANCH   2   5
BRANCH   1  18
HETATM   18  C   UNL     1      40.752 -12.747  -0.245  1.00  0.00     0.280 C 
BRANCH  18  19
HETATM   19  O   UNL     1      39.455 -13.338  -0.261  1.00  0.00    -0.341 OA
BRANCH  19  20
HETATM   20  C   UNL     1      38.522 -12.664  -1.012  1.00  0.00     0.086 A 
HETATM   21  C   UNL     1      38.038 -13.285  -2.171  1.00  0.00     0.044 A 
HETATM   22  C   UNL     1      37.078 -12.654  -2.972  1.00  0.00     0.028 A 
HETATM   23 BR   UNL     1      38.681 -14.987  -2.719  1.00  0.00    -0.048 Br
HETATM   24  C   UNL     1      36.567 -11.403  -2.611  1.00  0.00    -0.061 A 
HETATM   25  C   UNL     1      35.561 -10.702  -3.475  1.00  0.00     0.048 C 
HETATM   26  C   UNL     1      37.042 -10.788  -1.449  1.00  0.00     0.009 A 
HETATM   27  C   UNL     1      38.003 -11.416  -0.651  1.00  0.00     0.039 A 
ENDBRANCH  19  20
ENDBRANCH  18  19
ENDBRANCH   1  18
TORSDOF 5
ENDMDL
