MODEL 1
REMARK VINA RESULT:      -8.8      0.000      0.000
REMARK  6 active torsions:
REMARK  status: ('A' for Active; 'I' for Inactive)
REMARK    1  A    between atoms: O_2  and  C_3 
REMARK    2  A    between atoms: C_5  and  C_6 
REMARK    3  A    between atoms: C_12  and  C_13 
REMARK       I    between atoms: C_13  and  N_14 
REMARK    4  A    between atoms: N_14  and  C_15 
REMARK    5  A    between atoms: C_15  and  C_16 
REMARK    6  A    between atoms: C_23  and  C_24 
ROOT
HETATM    1  C   UNL     1      42.281 -13.113   2.027  1.00  0.00     0.118 C 
HETATM    2  N   UNL     1      42.504 -14.037   3.141  1.00  0.00    -0.365 N 
HETATM    3  C   UNL     1      41.892 -13.886   4.344  1.00  0.00     0.138 A 
HETATM    4  N   UNL     1      41.107 -12.787   4.601  1.00  0.00    -0.240 N 
HETATM    5  N   UNL     1      40.677 -12.706   5.868  1.00  0.00    -0.181 NA
HETATM    6  C   UNL     1      41.129 -13.838   6.414  1.00  0.00     0.160 A 
HETATM    7  C   UNL     1      41.883 -14.630   5.511  1.00  0.00     0.096 A 
HETATM    8  C   UNL     1      40.872 -11.703   3.667  1.00  0.00     0.221 C 
HETATM    9  C   UNL     1      41.944 -11.710   2.565  1.00  0.00     0.066 C 
HETATM   10  H   UNL     1      43.295 -14.667   3.015  1.00  0.00     0.161 HD
ENDROOT
BRANCH   7  11
HETATM   11  C   UNL     1      42.495 -15.908   5.823  1.00  0.00     0.257 C 
HETATM   12  N   UNL     1      43.718 -16.134   5.235  1.00  0.00    -0.352 N 
HETATM   13  H   UNL     1      43.985 -15.529   4.472  1.00  0.00     0.163 HD
HETATM   14  O   UNL     1      41.936 -16.734   6.539  1.00  0.00    -0.267 OA
BRANCH  12  15
HETATM   15  C   UNL     1      44.391 -17.404   5.371  1.00  0.00     0.161 C 
BRANCH  15  16
HETATM   16  C   UNL     1      43.963 -18.382   4.306  1.00  0.00    -0.041 A 
HETATM   17  C   UNL     1      43.445 -17.928   3.083  1.00  0.00     0.009 A 
HETATM   18  C   UNL     1      43.106 -18.832   2.075  1.00  0.00     0.001 A 
HETATM   19  C   UNL     1      43.291 -20.198   2.273  1.00  0.00     0.000 A 
HETATM   20  C   UNL     1      43.815 -20.662   3.478  1.00  0.00     0.001 A 
HETATM   21  C   UNL     1      44.152 -19.759   4.489  1.00  0.00     0.009 A 
ENDBRANCH  15  16
ENDBRANCH  12  15
ENDBRANCH   7  11
BRANCH   1  22
HETATM   22  C   UNL     1      41.305 -13.666   1.001  1.00  0.00    -0.033 A 
HETATM   23  C   UNL     1      41.000 -12.910  -0.145  1.00  0.00     0.046 A 
HETATM   24  C   UNL     1      40.103 -13.372  -1.115  1.00  0.00     0.068 A 
HETATM   25  C   UNL     1      39.509 -14.622  -0.957  1.00  0.00     0.037 A 
HETATM   26  C   UNL     1      39.814 -15.399   0.160  1.00  0.00     0.003 A 
HETATM   27  C   UNL     1      40.705 -14.929   1.126  1.00  0.00     0.009 A 
BRANCH  24  28
HETATM   28  O   UNL     1      39.900 -12.513  -2.160  1.00  0.00    -0.356 OA
HETATM   29  C   UNL     1      41.011 -12.270  -3.015  1.00  0.00     0.210 C 
ENDBRANCH  24  28
ENDBRANCH   1  22
BRANCH   8  30
HETATM   30  C   UNL     1      39.448 -11.752   3.157  1.00  0.00     0.409 C 
HETATM   31  F   UNL     1      39.293 -11.250   1.918  1.00  0.00    -0.169 F 
HETATM   32  F   UNL     1      38.959 -13.014   3.144  1.00  0.00    -0.169 F 
HETATM   33  F   UNL     1      38.634 -11.043   3.982  1.00  0.00    -0.169 F 
ENDBRANCH   8  30
TORSDOF 6
ENDMDL
MODEL 2
REMARK VINA RESULT:      -8.7      3.465      7.204
REMARK  6 active torsions:
REMARK  status: ('A' for Active; 'I' for Inactive)
REMARK    1  A    between atoms: O_2  and  C_3 
REMARK    2  A    between atoms: C_5  and  C_6 
REMARK    3  A    between atoms: C_12  and  C_13 
REMARK       I    between atoms: C_13  and  N_14 
REMARK    4  A    between atoms: N_14  and  C_15 
REMARK    5  A    between atoms: C_15  and  C_16 
REMARK    6  A    between atoms: C_23  and  C_24 
ROOT
HETATM    1  C   UNL     1      43.301 -14.564   4.006  1.00  0.00     0.118 C 
HETATM    2  N   UNL     1      42.596 -13.465   4.670  1.00  0.00    -0.365 N 
HETATM    3  C   UNL     1      41.330 -13.104   4.332  1.00  0.00     0.138 A 
HETATM    4  N   UNL     1      40.690 -13.696   3.269  1.00  0.00    -0.240 N 
HETATM    5  N   UNL     1      39.502 -13.149   2.973  1.00  0.00    -0.181 NA
HETATM    6  C   UNL     1      39.341 -12.237   3.934  1.00  0.00     0.160 A 
HETATM    7  C   UNL     1      40.441 -12.167   4.828  1.00  0.00     0.096 A 
HETATM    8  C   UNL     1      41.273 -14.712   2.415  1.00  0.00     0.221 C 
HETATM    9  C   UNL     1      42.804 -14.709   2.556  1.00  0.00     0.066 C 
HETATM   10  H   UNL     1      43.189 -12.870   5.247  1.00  0.00     0.161 HD
ENDROOT
BRANCH   7  11
HETATM   11  C   UNL     1      40.543 -11.272   5.965  1.00  0.00     0.257 C 
HETATM   12  N   UNL     1      41.700 -10.530   6.027  1.00  0.00    -0.352 N 
HETATM   13  H   UNL     1      42.469 -10.818   5.438  1.00  0.00     0.163 HD
HETATM   14  O   UNL     1      39.667 -11.213   6.822  1.00  0.00    -0.267 OA
BRANCH  12  15
HETATM   15  C   UNL     1      41.985  -9.680   7.158  1.00  0.00     0.161 C 
BRANCH  15  16
HETATM   16  C   UNL     1      43.443  -9.725   7.540  1.00  0.00    -0.041 A 
HETATM   17  C   UNL     1      44.269 -10.767   7.091  1.00  0.00     0.009 A 
HETATM   18  C   UNL     1      45.631 -10.775   7.394  1.00  0.00     0.001 A 
HETATM   19  C   UNL     1      46.186  -9.737   8.138  1.00  0.00     0.000 A 
HETATM   20  C   UNL     1      45.380  -8.690   8.581  1.00  0.00     0.001 A 
HETATM   21  C   UNL     1      44.015  -8.682   8.282  1.00  0.00     0.009 A 
ENDBRANCH  15  16
ENDBRANCH  12  15
ENDBRANCH   7  11
BRANCH   1  22
HETATM   22  C   UNL     1      43.285 -15.842   4.828  1.00  0.00    -0.033 A 
HETATM   23  C   UNL     1      43.852 -17.016   4.297  1.00  0.00     0.046 A 
HETATM   24  C   UNL     1      43.857 -18.219   5.012  1.00  0.00     0.068 A 
HETATM   25  C   UNL     1      43.305 -18.258   6.290  1.00  0.00     0.037 A 
HETATM   26  C   UNL     1      42.758 -17.102   6.845  1.00  0.00     0.003 A 
HETATM   27  C   UNL     1      42.752 -15.906   6.125  1.00  0.00     0.009 A 
BRANCH  24  28
HETATM   28  O   UNL     1      44.429 -19.272   4.352  1.00  0.00    -0.356 OA
HETATM   29  C   UNL     1      44.327 -20.549   4.972  1.00  0.00     0.210 C 
ENDBRANCH  24  28
ENDBRANCH   1  22
BRANCH   8  30
HETATM   30  C   UNL     1      40.622 -16.052   2.678  1.00  0.00     0.409 C 
HETATM   31  F   UNL     1      41.407 -17.108   2.392  1.00  0.00    -0.169 F 
HETATM   32  F   UNL     1      40.230 -16.180   3.967  1.00  0.00    -0.169 F 
HETATM   33  F   UNL     1      39.495 -16.176   1.929  1.00  0.00    -0.169 F 
ENDBRANCH   8  30
TORSDOF 6
ENDMDL
MODEL 3
REMARK VINA RESULT:      -8.6      3.995      7.216
REMARK  6 active torsions:
REMARK  status: ('A' for Active; 'I' for Inactive)
REMARK    1  A    between atoms: O_2  and  C_3 
REMARK    2  A    between atoms: C_5  and  C_6 
REMARK    3  A    between atoms: C_12  and  C_13 
REMARK       I    between atoms: C_13  and  N_14 
REMARK    4  A    between atoms: N_14  and  C_15 
REMARK    5  A    between atoms: C_15  and  C_16 
REMARK    6  A    between atoms: C_23  and  C_24 
ROOT
HETATM    1  C   UNL     1      43.291 -13.141   2.827  1.00  0.00     0.118 C 
HETATM    2  N   UNL     1      43.622 -12.570   4.134  1.00  0.00    -0.365 N 
HETATM    3  C   UNL     1      42.692 -11.976   4.925  1.00  0.00     0.138 A 
HETATM    4  N   UNL     1      41.404 -11.793   4.480  1.00  0.00    -0.240 N 
HETATM    5  N   UNL     1      40.634 -11.078   5.313  1.00  0.00    -0.181 NA
HETATM    6  C   UNL     1      41.432 -10.876   6.364  1.00  0.00     0.160 A 
HETATM    7  C   UNL     1      42.729 -11.425   6.194  1.00  0.00     0.096 A 
HETATM    8  C   UNL     1      40.921 -12.176   3.168  1.00  0.00     0.221 C 
HETATM    9  C   UNL     1      42.103 -12.382   2.207  1.00  0.00     0.066 C 
HETATM   10  H   UNL     1      44.621 -12.468   4.309  1.00  0.00     0.161 HD
ENDROOT
BRANCH   7  11
HETATM   11  C   UNL     1      43.803 -11.361   7.168  1.00  0.00     0.257 C 
HETATM   12  N   UNL     1      43.477 -10.765   8.364  1.00  0.00    -0.352 N 
HETATM   13  H   UNL     1      42.625 -10.223   8.396  1.00  0.00     0.163 HD
HETATM   14  O   UNL     1      44.927 -11.784   6.918  1.00  0.00    -0.267 OA
BRANCH  12  15
HETATM   15  C   UNL     1      44.474 -10.536   9.383  1.00  0.00     0.161 C 
BRANCH  15  16
HETATM   16  C   UNL     1      43.879  -9.905  10.616  1.00  0.00    -0.041 A 
HETATM   17  C   UNL     1      43.726  -8.513  10.706  1.00  0.00     0.009 A 
HETATM   18  C   UNL     1      43.119  -7.935  11.822  1.00  0.00     0.001 A 
HETATM   19  C   UNL     1      42.648  -8.741  12.855  1.00  0.00     0.000 A 
HETATM   20  C   UNL     1      42.783 -10.126  12.774  1.00  0.00     0.001 A 
HETATM   21  C   UNL     1      43.393 -10.706  11.659  1.00  0.00     0.009 A 
ENDBRANCH  15  16
ENDBRANCH  12  15
ENDBRANCH   7  11
BRANCH   1  22
HETATM   22  C   UNL     1      43.141 -14.652   2.876  1.00  0.00    -0.033 A 
HETATM   23  C   UNL     1      43.021 -15.298   4.120  1.00  0.00     0.046 A 
HETATM   24  C   UNL     1      42.887 -16.688   4.219  1.00  0.00     0.068 A 
HETATM   25  C   UNL     1      42.851 -17.455   3.057  1.00  0.00     0.037 A 
HETATM   26  C   UNL     1      42.945 -16.835   1.812  1.00  0.00     0.003 A 
HETATM   27  C   UNL     1      43.084 -15.449   1.721  1.00  0.00     0.009 A 
BRANCH  24  28
HETATM   28  O   UNL     1      42.800 -17.163   5.498  1.00  0.00    -0.356 OA
HETATM   29  C   UNL     1      43.590 -18.304   5.812  1.00  0.00     0.210 C 
ENDBRANCH  24  28
ENDBRANCH   1  22
BRANCH   8  30
HETATM   30  C   UNL     1      39.989 -13.363   3.280  1.00  0.00     0.409 C 
HETATM   31  F   UNL     1      40.095 -14.239   2.264  1.00  0.00    -0.169 F 
HETATM   32  F   UNL     1      40.185 -14.053   4.428  1.00  0.00    -0.169 F 
HETATM   33  F   UNL     1      38.699 -12.939   3.312  1.00  0.00    -0.169 F 
ENDBRANCH   8  30
TORSDOF 6
ENDMDL
MODEL 4
REMARK VINA RESULT:      -8.5      2.684      6.634
REMARK  6 active torsions:
REMARK  status: ('A' for Active; 'I' for Inactive)
REMARK    1  A    between atoms: O_2  and  C_3 
REMARK    2  A    between atoms: C_5  and  C_6 
REMARK    3  A    between atoms: C_12  and  C_13 
REMARK       I    between atoms: C_13  and  N_14 
REMARK    4  A    between atoms: N_14  and  C_15 
REMARK    5  A    between atoms: C_15  and  C_16 
REMARK    6  A    between atoms: C_23  and  C_24 
ROOT
HETATM    1  C   UNL     1      40.514 -15.076   4.594  1.00  0.00     0.118 C 
HETATM    2  N   UNL     1      39.864 -13.988   3.862  1.00  0.00    -0.365 N 
HETATM    3  C   UNL     1      40.209 -12.686   4.038  1.00  0.00     0.138 A 
HETATM    4  N   UNL     1      41.123 -12.324   4.999  1.00  0.00    -0.240 N 
HETATM    5  N   UNL     1      41.265 -10.999   5.147  1.00  0.00    -0.181 NA
HETATM    6  C   UNL     1      40.482 -10.501   4.187  1.00  0.00     0.160 A 
HETATM    7  C   UNL     1      39.804 -11.503   3.445  1.00  0.00     0.096 A 
HETATM    8  C   UNL     1      41.777 -13.246   5.906  1.00  0.00     0.221 C 
HETATM    9  C   UNL     1      41.001 -14.572   5.965  1.00  0.00     0.066 C 
HETATM   10  H   UNL     1      39.010 -14.257   3.376  1.00  0.00     0.161 HD
ENDROOT
BRANCH   7  11
HETATM   11  C   UNL     1      38.890 -11.259   2.344  1.00  0.00     0.257 C 
HETATM   12  N   UNL     1      39.239 -11.846   1.150  1.00  0.00    -0.352 N 
HETATM   13  H   UNL     1      40.184 -12.191   1.060  1.00  0.00     0.163 HD
HETATM   14  O   UNL     1      37.897 -10.550   2.474  1.00  0.00    -0.267 OA
BRANCH  12  15
HETATM   15  C   UNL     1      38.481 -11.600  -0.054  1.00  0.00     0.161 C 
BRANCH  15  16
HETATM   16  C   UNL     1      38.593 -12.746  -1.028  1.00  0.00    -0.041 A 
HETATM   17  C   UNL     1      39.490 -13.799  -0.796  1.00  0.00     0.009 A 
HETATM   18  C   UNL     1      39.549 -14.889  -1.667  1.00  0.00     0.001 A 
HETATM   19  C   UNL     1      38.703 -14.945  -2.772  1.00  0.00     0.000 A 
HETATM   20  C   UNL     1      37.798 -13.911  -3.008  1.00  0.00     0.001 A 
HETATM   21  C   UNL     1      37.741 -12.818  -2.140  1.00  0.00     0.009 A 
ENDBRANCH  15  16
ENDBRANCH  12  15
ENDBRANCH   7  11
BRANCH   1  22
HETATM   22  C   UNL     1      41.562 -15.793   3.758  1.00  0.00    -0.033 A 
HETATM   23  C   UNL     1      42.318 -16.831   4.333  1.00  0.00     0.046 A 
HETATM   24  C   UNL     1      43.298 -17.517   3.607  1.00  0.00     0.068 A 
HETATM   25  C   UNL     1      43.521 -17.182   2.273  1.00  0.00     0.037 A 
HETATM   26  C   UNL     1      42.768 -16.173   1.676  1.00  0.00     0.003 A 
HETATM   27  C   UNL     1      41.796 -15.489   2.408  1.00  0.00     0.009 A 
BRANCH  24  28
HETATM   28  O   UNL     1      43.958 -18.486   4.313  1.00  0.00    -0.356 OA
HETATM   29  C   UNL     1      43.728 -18.523   5.716  1.00  0.00     0.210 C 
ENDBRANCH  24  28
ENDBRANCH   1  22
BRANCH   8  30
HETATM   30  C   UNL     1      43.238 -13.391   5.540  1.00  0.00     0.409 C 
HETATM   31  F   UNL     1      43.780 -14.568   5.905  1.00  0.00    -0.169 F 
HETATM   32  F   UNL     1      43.443 -13.250   4.210  1.00  0.00    -0.169 F 
HETATM   33  F   UNL     1      43.966 -12.412   6.139  1.00  0.00    -0.169 F 
ENDBRANCH   8  30
TORSDOF 6
ENDMDL
MODEL 5
REMARK VINA RESULT:      -8.4      5.845      8.633
REMARK  6 active torsions:
REMARK  status: ('A' for Active; 'I' for Inactive)
REMARK    1  A    between atoms: O_2  and  C_3 
REMARK    2  A    between atoms: C_5  and  C_6 
REMARK    3  A    between atoms: C_12  and  C_13 
REMARK       I    between atoms: C_13  and  N_14 
REMARK    4  A    between atoms: N_14  and  C_15 
REMARK    5  A    between atoms: C_15  and  C_16 
REMARK    6  A    between atoms: C_23  and  C_24 
ROOT
HETATM    1  C   UNL     1      42.782  -8.089   8.485  1.00  0.00     0.118 C 
HETATM    2  N   UNL     1      42.411  -9.180   7.582  1.00  0.00    -0.365 N 
HETATM    3  C   UNL     1      43.130 -10.329   7.495  1.00  0.00     0.138 A 
HETATM    4  N   UNL     1      44.311 -10.472   8.185  1.00  0.00    -0.240 N 
HETATM    5  N   UNL     1      44.976 -11.602   7.901  1.00  0.00    -0.181 NA
HETATM    6  C   UNL     1      44.148 -12.240   7.070  1.00  0.00     0.160 A 
HETATM    7  C   UNL     1      42.967 -11.506   6.787  1.00  0.00     0.096 A 
HETATM    8  C   UNL     1      44.905  -9.454   9.028  1.00  0.00     0.221 C 
HETATM    9  C   UNL     1      44.307  -8.076   8.697  1.00  0.00     0.066 C 
HETATM   10  H   UNL     1      41.706  -8.933   6.888  1.00  0.00     0.161 HD
ENDROOT
BRANCH   7  11
HETATM   11  C   UNL     1      41.891 -11.949   5.920  1.00  0.00     0.257 C 
HETATM   12  N   UNL     1      42.003 -13.239   5.457  1.00  0.00    -0.352 N 
HETATM   13  H   UNL     1      42.902 -13.691   5.549  1.00  0.00     0.163 HD
HETATM   14  O   UNL     1      40.968 -11.205   5.605  1.00  0.00    -0.267 OA
BRANCH  12  15
HETATM   15  C   UNL     1      41.062 -13.776   4.502  1.00  0.00     0.161 C 
BRANCH  15  16
HETATM   16  C   UNL     1      41.733 -14.693   3.511  1.00  0.00    -0.041 A 
HETATM   17  C   UNL     1      42.788 -14.234   2.709  1.00  0.00     0.009 A 
HETATM   18  C   UNL     1      43.448 -15.100   1.836  1.00  0.00     0.001 A 
HETATM   19  C   UNL     1      43.070 -16.438   1.763  1.00  0.00     0.000 A 
HETATM   20  C   UNL     1      42.031 -16.912   2.563  1.00  0.00     0.001 A 
HETATM   21  C   UNL     1      41.367 -16.045   3.434  1.00  0.00     0.009 A 
ENDBRANCH  15  16
ENDBRANCH  12  15
ENDBRANCH   7  11
BRANCH   1  22
HETATM   22  C   UNL     1      41.950  -8.080   9.757  1.00  0.00    -0.033 A 
HETATM   23  C   UNL     1      41.116  -9.175  10.048  1.00  0.00     0.046 A 
HETATM   24  C   UNL     1      40.327  -9.212  11.203  1.00  0.00     0.068 A 
HETATM   25  C   UNL     1      40.378  -8.149  12.101  1.00  0.00     0.037 A 
HETATM   26  C   UNL     1      41.214  -7.063  11.844  1.00  0.00     0.003 A 
HETATM   27  C   UNL     1      41.995  -7.030  10.688  1.00  0.00     0.009 A 
BRANCH  24  28
HETATM   28  O   UNL     1      39.558 -10.337  11.334  1.00  0.00    -0.356 OA
HETATM   29  C   UNL     1      39.343 -10.815  12.656  1.00  0.00     0.210 C 
ENDBRANCH  24  28
ENDBRANCH   1  22
BRANCH   8  30
HETATM   30  C   UNL     1      44.795  -9.851  10.484  1.00  0.00     0.409 C 
HETATM   31  F   UNL     1      44.653  -8.810  11.326  1.00  0.00    -0.169 F 
HETATM   32  F   UNL     1      43.755 -10.689  10.703  1.00  0.00    -0.169 F 
HETATM   33  F   UNL     1      45.910 -10.527  10.867  1.00  0.00    -0.169 F 
ENDBRANCH   8  30
TORSDOF 6
ENDMDL
MODEL 6
REMARK VINA RESULT:      -8.4      6.120      8.710
REMARK  6 active torsions:
REMARK  status: ('A' for Active; 'I' for Inactive)
REMARK    1  A    between atoms: O_2  and  C_3 
REMARK    2  A    between atoms: C_5  and  C_6 
REMARK    3  A    between atoms: C_12  and  C_13 
REMARK       I    between atoms: C_13  and  N_14 
REMARK    4  A    between atoms: N_14  and  C_15 
REMARK    5  A    between atoms: C_15  and  C_16 
REMARK    6  A    between atoms: C_23  and  C_24 
ROOT
HETATM    1  C   UNL     1      42.688  -8.072   8.441  1.00  0.00     0.118 C 
HETATM    2  N   UNL     1      42.602  -9.099   7.402  1.00  0.00    -0.365 N 
HETATM    3  C   UNL     1      43.465 -10.147   7.341  1.00  0.00     0.138 A 
HETATM    4  N   UNL     1      44.532 -10.228   8.204  1.00  0.00    -0.240 N 
HETATM    5  N   UNL     1      45.370 -11.242   7.942  1.00  0.00    -0.181 NA
HETATM    6  C   UNL     1      44.769 -11.879   6.935  1.00  0.00     0.160 A 
HETATM    7  C   UNL     1      43.564 -11.256   6.520  1.00  0.00     0.096 A 
HETATM    8  C   UNL     1      44.855  -9.242   9.216  1.00  0.00     0.221 C 
HETATM    9  C   UNL     1      44.147  -7.912   8.905  1.00  0.00     0.066 C 
HETATM   10  H   UNL     1      41.989  -8.862   6.623  1.00  0.00     0.161 HD
ENDROOT
BRANCH   7  11
HETATM   11  C   UNL     1      42.700 -11.724   5.452  1.00  0.00     0.257 C 
HETATM   12  N   UNL     1      43.263 -12.648   4.604  1.00  0.00    -0.352 N 
HETATM   13  H   UNL     1      44.267 -12.756   4.632  1.00  0.00     0.163 HD
HETATM   14  O   UNL     1      41.559 -11.294   5.309  1.00  0.00    -0.267 OA
BRANCH  12  15
HETATM   15  C   UNL     1      42.557 -13.120   3.436  1.00  0.00     0.161 C 
BRANCH  15  16
HETATM   16  C   UNL     1      42.877 -14.562   3.133  1.00  0.00    -0.041 A 
HETATM   17  C   UNL     1      42.915 -15.519   4.160  1.00  0.00     0.009 A 
HETATM   18  C   UNL     1      43.151 -16.864   3.870  1.00  0.00     0.001 A 
HETATM   19  C   UNL     1      43.339 -17.271   2.552  1.00  0.00     0.000 A 
HETATM   20  C   UNL     1      43.292 -16.333   1.521  1.00  0.00     0.001 A 
HETATM   21  C   UNL     1      43.060 -14.987   1.809  1.00  0.00     0.009 A 
ENDBRANCH  15  16
ENDBRANCH  12  15
ENDBRANCH   7  11
BRANCH   1  22
HETATM   22  C   UNL     1      41.674  -8.285   9.553  1.00  0.00    -0.033 A 
HETATM   23  C   UNL     1      41.669  -7.421  10.663  1.00  0.00     0.046 A 
HETATM   24  C   UNL     1      40.760  -7.579  11.716  1.00  0.00     0.068 A 
HETATM   25  C   UNL     1      39.820  -8.605  11.658  1.00  0.00     0.037 A 
HETATM   26  C   UNL     1      39.791  -9.460  10.557  1.00  0.00     0.003 A 
HETATM   27  C   UNL     1      40.704  -9.299   9.514  1.00  0.00     0.009 A 
BRANCH  24  28
HETATM   28  O   UNL     1      40.896  -6.670  12.729  1.00  0.00    -0.356 OA
HETATM   29  C   UNL     1      42.222  -6.276  13.062  1.00  0.00     0.210 C 
ENDBRANCH  24  28
ENDBRANCH   1  22
BRANCH   8  30
HETATM   30  C   UNL     1      44.570  -9.795  10.595  1.00  0.00     0.409 C 
HETATM   31  F   UNL     1      44.343  -8.852  11.527  1.00  0.00    -0.169 F 
HETATM   32  F   UNL     1      43.503 -10.627  10.596  1.00  0.00    -0.169 F 
HETATM   33  F   UNL     1      45.625 -10.537  11.024  1.00  0.00    -0.169 F 
ENDBRANCH   8  30
TORSDOF 6
ENDMDL
MODEL 7
REMARK VINA RESULT:      -8.3      1.600      2.241
REMARK  6 active torsions:
REMARK  status: ('A' for Active; 'I' for Inactive)
REMARK    1  A    between atoms: O_2  and  C_3 
REMARK    2  A    between atoms: C_5  and  C_6 
REMARK    3  A    between atoms: C_12  and  C_13 
REMARK       I    between atoms: C_13  and  N_14 
REMARK    4  A    between atoms: N_14  and  C_15 
REMARK    5  A    between atoms: C_15  and  C_16 
REMARK    6  A    between atoms: C_23  and  C_24 
ROOT
HETATM    1  C   UNL     1      42.034 -11.584   1.572  1.00  0.00     0.118 C 
HETATM    2  N   UNL     1      42.532 -12.256   2.774  1.00  0.00    -0.365 N 
HETATM    3  C   UNL     1      41.933 -12.118   3.985  1.00  0.00     0.138 A 
HETATM    4  N   UNL     1      40.882 -11.248   4.154  1.00  0.00    -0.240 N 
HETATM    5  N   UNL     1      40.478 -11.119   5.427  1.00  0.00    -0.181 NA
HETATM    6  C   UNL     1      41.239 -12.003   6.077  1.00  0.00     0.160 A 
HETATM    7  C   UNL     1      42.160 -12.674   5.232  1.00  0.00     0.096 A 
HETATM    8  C   UNL     1      40.332 -10.404   3.112  1.00  0.00     0.221 C 
HETATM    9  C   UNL     1      41.336 -10.267   1.956  1.00  0.00     0.066 C 
HETATM   10  H   UNL     1      43.464 -12.658   2.678  1.00  0.00     0.161 HD
ENDROOT
BRANCH   7  11
HETATM   11  C   UNL     1      43.110 -13.685   5.659  1.00  0.00     0.257 C 
HETATM   12  N   UNL     1      42.922 -14.934   5.117  1.00  0.00    -0.352 N 
HETATM   13  H   UNL     1      42.037 -15.118   4.666  1.00  0.00     0.163 HD
HETATM   14  O   UNL     1      43.995 -13.437   6.473  1.00  0.00    -0.267 OA
BRANCH  12  15
HETATM   15  C   UNL     1      43.724 -16.060   5.534  1.00  0.00     0.161 C 
BRANCH  15  16
HETATM   16  C   UNL     1      43.652 -17.195   4.544  1.00  0.00    -0.041 A 
HETATM   17  C   UNL     1      43.215 -16.974   3.229  1.00  0.00     0.009 A 
HETATM   18  C   UNL     1      43.206 -18.013   2.298  1.00  0.00     0.001 A 
HETATM   19  C   UNL     1      43.646 -19.282   2.665  1.00  0.00     0.000 A 
HETATM   20  C   UNL     1      44.094 -19.514   3.965  1.00  0.00     0.001 A 
HETATM   21  C   UNL     1      44.100 -18.476   4.899  1.00  0.00     0.009 A 
ENDBRANCH  15  16
ENDBRANCH  12  15
ENDBRANCH   7  11
BRANCH   1  22
HETATM   22  C   UNL     1      41.224 -12.513   0.683  1.00  0.00    -0.033 A 
HETATM   23  C   UNL     1      40.826 -13.771   1.173  1.00  0.00     0.046 A 
HETATM   24  C   UNL     1      40.084 -14.664   0.391  1.00  0.00     0.068 A 
HETATM   25  C   UNL     1      39.711 -14.297  -0.899  1.00  0.00     0.037 A 
HETATM   26  C   UNL     1      40.074 -13.046  -1.397  1.00  0.00     0.003 A 
HETATM   27  C   UNL     1      40.818 -12.162  -0.614  1.00  0.00     0.009 A 
BRANCH  24  28
HETATM   28  O   UNL     1      39.792 -15.852   1.005  1.00  0.00    -0.356 OA
HETATM   29  C   UNL     1      39.834 -15.865   2.427  1.00  0.00     0.210 C 
ENDBRANCH  24  28
ENDBRANCH   1  22
BRANCH   8  30
HETATM   30  C   UNL     1      38.965 -10.905   2.700  1.00  0.00     0.409 C 
HETATM   31  F   UNL     1      38.684 -10.719   1.397  1.00  0.00    -0.169 F 
HETATM   32  F   UNL     1      38.811 -12.224   2.959  1.00  0.00    -0.169 F 
HETATM   33  F   UNL     1      38.001 -10.266   3.414  1.00  0.00    -0.169 F 
ENDBRANCH   8  30
TORSDOF 6
ENDMDL
MODEL 8
REMARK VINA RESULT:      -8.2      2.733      7.223
REMARK  6 active torsions:
REMARK  status: ('A' for Active; 'I' for Inactive)
REMARK    1  A    between atoms: O_2  and  C_3 
REMARK    2  A    between atoms: C_5  and  C_6 
REMARK    3  A    between atoms: C_12  and  C_13 
REMARK       I    between atoms: C_13  and  N_14 
REMARK    4  A    between atoms: N_14  and  C_15 
REMARK    5  A    between atoms: C_15  and  C_16 
REMARK    6  A    between atoms: C_23  and  C_24 
ROOT
HETATM    1  C   UNL     1      40.611 -15.458   4.936  1.00  0.00     0.118 C 
HETATM    2  N   UNL     1      40.435 -15.063   3.537  1.00  0.00    -0.365 N 
HETATM    3  C   UNL     1      40.878 -13.872   3.056  1.00  0.00     0.138 A 
HETATM    4  N   UNL     1      41.424 -12.933   3.899  1.00  0.00    -0.240 N 
HETATM    5  N   UNL     1      41.695 -11.760   3.309  1.00  0.00    -0.181 NA
HETATM    6  C   UNL     1      41.393 -11.989   2.028  1.00  0.00     0.160 A 
HETATM    7  C   UNL     1      40.892 -13.296   1.798  1.00  0.00     0.096 A 
HETATM    8  C   UNL     1      41.565 -13.092   5.333  1.00  0.00     0.221 C 
HETATM    9  C   UNL     1      40.636 -14.209   5.837  1.00  0.00     0.066 C 
HETATM   10  H   UNL     1      39.785 -15.646   3.012  1.00  0.00     0.161 HD
ENDROOT
BRANCH   7  11
HETATM   11  C   UNL     1      40.484 -13.824   0.510  1.00  0.00     0.257 C 
HETATM   12  N   UNL     1      40.813 -13.046  -0.575  1.00  0.00    -0.352 N 
HETATM   13  H   UNL     1      41.089 -12.091  -0.396  1.00  0.00     0.163 HD
HETATM   14  O   UNL     1      39.862 -14.877   0.411  1.00  0.00    -0.267 OA
BRANCH  12  15
HETATM   15  C   UNL     1      40.377 -13.395  -1.907  1.00  0.00     0.161 C 
BRANCH  15  16
HETATM   16  C   UNL     1      39.051 -12.763  -2.244  1.00  0.00    -0.041 A 
HETATM   17  C   UNL     1      38.928 -11.370  -2.361  1.00  0.00     0.009 A 
HETATM   18  C   UNL     1      37.714 -10.791  -2.733  1.00  0.00     0.001 A 
HETATM   19  C   UNL     1      36.612 -11.597  -3.005  1.00  0.00     0.000 A 
HETATM   20  C   UNL     1      36.722 -12.983  -2.905  1.00  0.00     0.001 A 
HETATM   21  C   UNL     1      37.935 -13.564  -2.529  1.00  0.00     0.009 A 
ENDBRANCH  15  16
ENDBRANCH  12  15
ENDBRANCH   7  11
BRANCH   1  22
HETATM   22  C   UNL     1      41.774 -16.418   5.125  1.00  0.00    -0.033 A 
HETATM   23  C   UNL     1      42.434 -16.939   3.998  1.00  0.00     0.046 A 
HETATM   24  C   UNL     1      43.506 -17.831   4.119  1.00  0.00     0.068 A 
HETATM   25  C   UNL     1      43.948 -18.200   5.387  1.00  0.00     0.037 A 
HETATM   26  C   UNL     1      43.323 -17.679   6.520  1.00  0.00     0.003 A 
HETATM   27  C   UNL     1      42.251 -16.794   6.391  1.00  0.00     0.009 A 
BRANCH  24  28
HETATM   28  O   UNL     1      44.029 -18.260   2.930  1.00  0.00    -0.356 OA
HETATM   29  C   UNL     1      43.477 -19.451   2.381  1.00  0.00     0.210 C 
ENDBRANCH  24  28
ENDBRANCH   1  22
BRANCH   8  30
HETATM   30  C   UNL     1      43.021 -13.276   5.699  1.00  0.00     0.409 C 
HETATM   31  F   UNL     1      43.216 -13.868   6.892  1.00  0.00    -0.169 F 
HETATM   32  F   UNL     1      43.686 -14.007   4.775  1.00  0.00    -0.169 F 
HETATM   33  F   UNL     1      43.645 -12.069   5.743  1.00  0.00    -0.169 F 
ENDBRANCH   8  30
TORSDOF 6
ENDMDL
MODEL 9
REMARK VINA RESULT:      -8.0      3.638      6.310
REMARK  6 active torsions:
REMARK  status: ('A' for Active; 'I' for Inactive)
REMARK    1  A    between atoms: O_2  and  C_3 
REMARK    2  A    between atoms: C_5  and  C_6 
REMARK    3  A    between atoms: C_12  and  C_13 
REMARK       I    between atoms: C_13  and  N_14 
REMARK    4  A    between atoms: N_14  and  C_15 
REMARK    5  A    between atoms: C_15  and  C_16 
REMARK    6  A    between atoms: C_23  and  C_24 
ROOT
HETATM    1  C   UNL     1      39.740 -14.399   2.395  1.00  0.00     0.118 C 
HETATM    2  N   UNL     1      40.062 -13.572   3.560  1.00  0.00    -0.365 N 
HETATM    3  C   UNL     1      41.183 -13.764   4.301  1.00  0.00     0.138 A 
HETATM    4  N   UNL     1      42.021 -14.824   4.047  1.00  0.00    -0.240 N 
HETATM    5  N   UNL     1      43.012 -14.964   4.939  1.00  0.00    -0.181 NA
HETATM    6  C   UNL     1      42.853 -13.904   5.737  1.00  0.00     0.160 A 
HETATM    7  C   UNL     1      41.737 -13.103   5.384  1.00  0.00     0.096 A 
HETATM    8  C   UNL     1      41.802 -15.823   3.020  1.00  0.00     0.221 C 
HETATM    9  C   UNL     1      40.330 -15.810   2.573  1.00  0.00     0.066 C 
HETATM   10  H   UNL     1      39.293 -12.988   3.888  1.00  0.00     0.161 HD
ENDROOT
BRANCH   7  11
HETATM   11  C   UNL     1      41.321 -11.893   6.069  1.00  0.00     0.257 C 
HETATM   12  N   UNL     1      42.338 -11.160   6.635  1.00  0.00    -0.352 N 
HETATM   13  H   UNL     1      43.235 -11.612   6.740  1.00  0.00     0.163 HD
HETATM   14  O   UNL     1      40.139 -11.574   6.157  1.00  0.00    -0.267 OA
BRANCH  12  15
HETATM   15  C   UNL     1      42.061  -9.992   7.438  1.00  0.00     0.161 C 
BRANCH  15  16
HETATM   16  C   UNL     1      43.041  -9.851   8.576  1.00  0.00    -0.041 A 
HETATM   17  C   UNL     1      44.358 -10.318   8.450  1.00  0.00     0.009 A 
HETATM   18  C   UNL     1      45.280 -10.132   9.481  1.00  0.00     0.001 A 
HETATM   19  C   UNL     1      44.901  -9.466  10.644  1.00  0.00     0.000 A 
HETATM   20  C   UNL     1      43.599  -8.986  10.777  1.00  0.00     0.001 A 
HETATM   21  C   UNL     1      42.674  -9.175   9.749  1.00  0.00     0.009 A 
ENDBRANCH  15  16
ENDBRANCH  12  15
ENDBRANCH   7  11
BRANCH   1  22
HETATM   22  C   UNL     1      40.084 -13.713   1.083  1.00  0.00    -0.033 A 
HETATM   23  C   UNL     1      39.774 -14.347  -0.134  1.00  0.00     0.046 A 
HETATM   24  C   UNL     1      40.076 -13.760  -1.368  1.00  0.00     0.068 A 
HETATM   25  C   UNL     1      40.681 -12.506  -1.398  1.00  0.00     0.037 A 
HETATM   26  C   UNL     1      40.977 -11.848  -0.205  1.00  0.00     0.003 A 
HETATM   27  C   UNL     1      40.678 -12.443   1.022  1.00  0.00     0.009 A 
BRANCH  24  28
HETATM   28  O   UNL     1      39.728 -14.510  -2.457  1.00  0.00    -0.356 OA
HETATM   29  C   UNL     1      38.430 -14.289  -2.998  1.00  0.00     0.210 C 
ENDBRANCH  24  28
ENDBRANCH   1  22
BRANCH   8  30
HETATM   30  C   UNL     1      42.799 -15.644   1.896  1.00  0.00     0.409 C 
HETATM   31  F   UNL     1      43.893 -16.420   2.007  1.00  0.00    -0.169 F 
HETATM   32  F   UNL     1      42.248 -15.897   0.686  1.00  0.00    -0.169 F 
HETATM   33  F   UNL     1      43.224 -14.354   1.853  1.00  0.00    -0.169 F 
ENDBRANCH   8  30
TORSDOF 6
ENDMDL
MODEL 10
REMARK VINA RESULT:      -7.7      3.470      5.028
REMARK  6 active torsions:
REMARK  status: ('A' for Active; 'I' for Inactive)
REMARK    1  A    between atoms: O_2  and  C_3 
REMARK    2  A    between atoms: C_5  and  C_6 
REMARK    3  A    between atoms: C_12  and  C_13 
REMARK       I    between atoms: C_13  and  N_14 
REMARK    4  A    between atoms: N_14  and  C_15 
REMARK    5  A    between atoms: C_15  and  C_16 
REMARK    6  A    between atoms: C_23  and  C_24 
ROOT
HETATM    1  C   UNL     1      38.882 -10.690   0.088  1.00  0.00     0.118 C 
HETATM    2  N   UNL     1      39.543 -11.690   0.929  1.00  0.00    -0.365 N 
HETATM    3  C   UNL     1      39.725 -12.974   0.525  1.00  0.00     0.138 A 
HETATM    4  N   UNL     1      39.197 -13.418  -0.664  1.00  0.00    -0.240 N 
HETATM    5  N   UNL     1      39.343 -14.736  -0.869  1.00  0.00    -0.181 NA
HETATM    6  C   UNL     1      40.066 -15.127   0.183  1.00  0.00     0.160 A 
HETATM    7  C   UNL     1      40.353 -14.072   1.087  1.00  0.00     0.096 A 
HETATM    8  C   UNL     1      38.406 -12.610  -1.571  1.00  0.00     0.221 C 
HETATM    9  C   UNL     1      37.860 -11.373  -0.839  1.00  0.00     0.066 C 
HETATM   10  H   UNL     1      39.665 -11.410   1.901  1.00  0.00     0.161 HD
ENDROOT
BRANCH   7  11
HETATM   11  C   UNL     1      41.118 -14.201   2.313  1.00  0.00     0.257 C 
HETATM   12  N   UNL     1      42.086 -15.178   2.302  1.00  0.00    -0.352 N 
HETATM   13  H   UNL     1      42.042 -15.867   1.565  1.00  0.00     0.163 HD
HETATM   14  O   UNL     1      40.887 -13.502   3.295  1.00  0.00    -0.267 OA
BRANCH  12  15
HETATM   15  C   UNL     1      42.849 -15.489   3.487  1.00  0.00     0.161 C 
BRANCH  15  16
HETATM   16  C   UNL     1      43.304 -16.927   3.499  1.00  0.00    -0.041 A 
HETATM   17  C   UNL     1      43.955 -17.464   4.619  1.00  0.00     0.009 A 
HETATM   18  C   UNL     1      44.320 -18.811   4.652  1.00  0.00     0.001 A 
HETATM   19  C   UNL     1      44.028 -19.639   3.571  1.00  0.00     0.000 A 
HETATM   20  C   UNL     1      43.371 -19.121   2.456  1.00  0.00     0.001 A 
HETATM   21  C   UNL     1      43.008 -17.773   2.420  1.00  0.00     0.009 A 
ENDBRANCH  15  16
ENDBRANCH  12  15
ENDBRANCH   7  11
BRANCH   1  22
HETATM   22  C   UNL     1      39.874  -9.771  -0.606  1.00  0.00    -0.033 A 
HETATM   23  C   UNL     1      39.400  -8.756  -1.458  1.00  0.00     0.046 A 
HETATM   24  C   UNL     1      40.273  -7.888  -2.125  1.00  0.00     0.068 A 
HETATM   25  C   UNL     1      41.646  -8.014  -1.928  1.00  0.00     0.037 A 
HETATM   26  C   UNL     1      42.137  -8.998  -1.070  1.00  0.00     0.003 A 
HETATM   27  C   UNL     1      41.261  -9.863  -0.413  1.00  0.00     0.009 A 
BRANCH  24  28
HETATM   28  O   UNL     1      39.658  -6.969  -2.931  1.00  0.00    -0.356 OA
HETATM   29  C   UNL     1      39.314  -7.397  -4.243  1.00  0.00     0.210 C 
ENDBRANCH  24  28
ENDBRANCH   1  22
BRANCH   8  30
HETATM   30  C   UNL     1      39.198 -12.299  -2.821  1.00  0.00     0.409 C 
HETATM   31  F   UNL     1      39.153 -13.269  -3.754  1.00  0.00    -0.169 F 
HETATM   32  F   UNL     1      38.782 -11.155  -3.411  1.00  0.00    -0.169 F 
HETATM   33  F   UNL     1      40.506 -12.106  -2.507  1.00  0.00    -0.169 F 
ENDBRANCH   8  30
TORSDOF 6
ENDMDL
