MODEL 1
REMARK VINA RESULT:      -8.7      0.000      0.000
REMARK  7 active torsions:
REMARK  status: ('A' for Active; 'I' for Inactive)
REMARK    1  A    between atoms: C_3  and  N_4 
REMARK       I    between atoms: N_4  and  C_5 
REMARK    2  A    between atoms: C_5  and  C_6 
REMARK    3  A    between atoms: C_7  and  C_8 
REMARK    4  A    between atoms: C_19  and  C_20 
REMARK    5  A    between atoms: C_20  and  C_21 
REMARK    6  A    between atoms: C_21  and  C_22 
REMARK    7  A    between atoms: C_22  and  O_23 
ROOT
HETATM    1  C   UNL     1      41.127 -12.525   3.983  1.00  0.00     0.062 C 
HETATM    2  C   UNL     1      41.700 -12.942   2.623  1.00  0.00     0.202 C 
HETATM    3  N   UNL     1      40.773 -12.602   1.536  1.00  0.00    -0.083 N 
HETATM    4  C   UNL     1      39.466 -12.249   1.733  1.00  0.00     0.726 A 
HETATM    5  N   UNL     1      39.012 -12.080   2.988  1.00  0.00    -0.192 N 
HETATM    6  N   UNL     1      41.059 -12.713   0.221  1.00  0.00    -0.140 NA
HETATM    7  C   UNL     1      39.850 -12.495  -0.316  1.00  0.00     0.166 A 
HETATM    8  N   UNL     1      38.855 -12.171   0.580  1.00  0.00    -0.046 NA
HETATM    9  C   UNL     1      39.819 -12.180   4.115  1.00  0.00     0.037 C 
HETATM   10  C   UNL     1      39.113 -11.935   5.427  1.00  0.00     0.070 C 
HETATM   11  H   UNL     1      38.036 -11.830   3.118  1.00  0.00     0.184 HD
ENDROOT
BRANCH   1  12
HETATM   12  C   UNL     1      42.111 -12.555   5.110  1.00  0.00     0.256 C 
HETATM   13  N   UNL     1      42.927 -11.449   5.173  1.00  0.00    -0.323 N 
HETATM   14  H   UNL     1      43.005 -10.909   4.321  1.00  0.00     0.169 HD
HETATM   15  O   UNL     1      42.233 -13.567   5.787  1.00  0.00    -0.267 OA
BRANCH  13  16
HETATM   16  C   UNL     1      43.787 -11.050   6.223  1.00  0.00     0.041 A 
HETATM   17  C   UNL     1      43.426 -10.296   7.357  1.00  0.00    -0.035 A 
HETATM   18  C   UNL     1      42.054  -9.742   7.628  1.00  0.00     0.050 C 
HETATM   19  C   UNL     1      44.419  -9.990   8.311  1.00  0.00     0.009 A 
HETATM   20  C   UNL     1      45.748 -10.360   8.126  1.00  0.00     0.001 A 
HETATM   21  C   UNL     1      46.113 -11.053   6.980  1.00  0.00     0.002 A 
HETATM   22  C   UNL     1      45.141 -11.388   6.038  1.00  0.00     0.030 A 
ENDBRANCH  13  16
ENDBRANCH   1  12
BRANCH   2  23
HETATM   23  C   UNL     1      42.031 -14.435   2.532  1.00  0.00    -0.028 A 
HETATM   24  C   UNL     1      41.149 -15.417   3.019  1.00  0.00     0.011 A 
HETATM   25  C   UNL     1      41.467 -16.774   2.917  1.00  0.00     0.024 A 
HETATM   26  C   UNL     1      42.670 -17.162   2.333  1.00  0.00     0.034 A 
HETATM   27 CL   UNL     1      43.063 -18.832   2.212  1.00  0.00    -0.084 Cl
HETATM   28  C   UNL     1      43.557 -16.205   1.843  1.00  0.00     0.024 A 
HETATM   29  C   UNL     1      43.239 -14.848   1.940  1.00  0.00     0.011 A 
ENDBRANCH   2  23
BRANCH   7  30
HETATM   30  C   UNL     1      39.562 -12.696  -1.757  1.00  0.00     0.085 C 
BRANCH  30  31
HETATM   31  C   UNL     1      39.741 -14.150  -2.197  1.00  0.00     0.034 C 
BRANCH  31  32
HETATM   32  C   UNL     1      38.553 -14.689  -2.987  1.00  0.00     0.164 C 
BRANCH  32  33
HETATM   33  O   UNL     1      38.325 -16.053  -2.650  1.00  0.00    -0.401 OA
HETATM   34  H   UNL     1      37.422 -16.123  -2.296  1.00  0.00     0.209 HD
ENDBRANCH  32  33
ENDBRANCH  31  32
ENDBRANCH  30  31
ENDBRANCH   7  30
TORSDOF 7
ENDMDL
MODEL 2
REMARK VINA RESULT:      -8.6      1.909      7.737
REMARK  7 active torsions:
REMARK  status: ('A' for Active; 'I' for Inactive)
REMARK    1  A    between atoms: C_3  and  N_4 
REMARK       I    between atoms: N_4  and  C_5 
REMARK    2  A    between atoms: C_5  and  C_6 
REMARK    3  A    between atoms: C_7  and  C_8 
REMARK    4  A    between atoms: C_19  and  C_20 
REMARK    5  A    between atoms: C_20  and  C_21 
REMARK    6  A    between atoms: C_21  and  C_22 
REMARK    7  A    between atoms: C_22  and  O_23 
ROOT
HETATM    1  C   UNL     1      40.899 -12.019   2.207  1.00  0.00     0.062 C 
HETATM    2  C   UNL     1      41.160 -12.931   3.413  1.00  0.00     0.202 C 
HETATM    3  N   UNL     1      42.107 -12.308   4.346  1.00  0.00    -0.083 N 
HETATM    4  C   UNL     1      42.876 -11.220   4.037  1.00  0.00     0.726 A 
HETATM    5  N   UNL     1      42.687 -10.593   2.862  1.00  0.00    -0.192 N 
HETATM    6  N   UNL     1      42.420 -12.801   5.563  1.00  0.00    -0.140 NA
HETATM    7  C   UNL     1      43.449 -12.007   5.896  1.00  0.00     0.166 A 
HETATM    8  N   UNL     1      43.734 -11.003   4.999  1.00  0.00    -0.046 NA
HETATM    9  C   UNL     1      41.698 -10.948   1.954  1.00  0.00     0.037 C 
HETATM   10  C   UNL     1      41.645 -10.102   0.705  1.00  0.00     0.070 C 
HETATM   11  H   UNL     1      43.274  -9.793   2.642  1.00  0.00     0.184 HD
ENDROOT
BRANCH   1  12
HETATM   12  C   UNL     1      39.736 -12.426   1.358  1.00  0.00     0.256 C 
HETATM   13  N   UNL     1      40.009 -12.463   0.011  1.00  0.00    -0.323 N 
HETATM   14  H   UNL     1      40.817 -11.934  -0.290  1.00  0.00     0.169 HD
HETATM   15  O   UNL     1      38.628 -12.552   1.863  1.00  0.00    -0.267 OA
BRANCH  13  16
HETATM   16  C   UNL     1      39.228 -13.020  -1.030  1.00  0.00     0.041 A 
HETATM   17  C   UNL     1      38.075 -12.450  -1.604  1.00  0.00    -0.035 A 
HETATM   18  C   UNL     1      37.442 -11.155  -1.174  1.00  0.00     0.050 C 
HETATM   19  C   UNL     1      37.419 -13.147  -2.641  1.00  0.00     0.009 A 
HETATM   20  C   UNL     1      37.849 -14.403  -3.061  1.00  0.00     0.001 A 
HETATM   21  C   UNL     1      38.951 -14.988  -2.455  1.00  0.00     0.002 A 
HETATM   22  C   UNL     1      39.628 -14.303  -1.446  1.00  0.00     0.030 A 
ENDBRANCH  13  16
ENDBRANCH   1  12
BRANCH   2  23
HETATM   23  C   UNL     1      41.692 -14.314   3.028  1.00  0.00    -0.028 A 
HETATM   24  C   UNL     1      42.792 -14.468   2.163  1.00  0.00     0.011 A 
HETATM   25  C   UNL     1      43.268 -15.739   1.833  1.00  0.00     0.024 A 
HETATM   26  C   UNL     1      42.647 -16.869   2.360  1.00  0.00     0.034 A 
HETATM   27 CL   UNL     1      43.230 -18.435   1.949  1.00  0.00    -0.084 Cl
HETATM   28  C   UNL     1      41.558 -16.739   3.219  1.00  0.00     0.024 A 
HETATM   29  C   UNL     1      41.084 -15.469   3.553  1.00  0.00     0.011 A 
ENDBRANCH   2  23
BRANCH   7  30
HETATM   30  C   UNL     1      44.301 -12.253   7.086  1.00  0.00     0.085 C 
BRANCH  30  31
HETATM   31  C   UNL     1      44.549 -10.985   7.905  1.00  0.00     0.034 C 
BRANCH  31  32
HETATM   32  C   UNL     1      45.977 -10.463   7.785  1.00  0.00     0.164 C 
BRANCH  32  33
HETATM   33  O   UNL     1      46.579 -10.969   6.598  1.00  0.00    -0.401 OA
HETATM   34  H   UNL     1      46.017 -10.708   5.848  1.00  0.00     0.209 HD
ENDBRANCH  32  33
ENDBRANCH  31  32
ENDBRANCH  30  31
ENDBRANCH   7  30
TORSDOF 7
ENDMDL
MODEL 3
REMARK VINA RESULT:      -8.6      3.101      6.500
REMARK  7 active torsions:
REMARK  status: ('A' for Active; 'I' for Inactive)
REMARK    1  A    between atoms: C_3  and  N_4 
REMARK       I    between atoms: N_4  and  C_5 
REMARK    2  A    between atoms: C_5  and  C_6 
REMARK    3  A    between atoms: C_7  and  C_8 
REMARK    4  A    between atoms: C_19  and  C_20 
REMARK    5  A    between atoms: C_20  and  C_21 
REMARK    6  A    between atoms: C_21  and  C_22 
REMARK    7  A    between atoms: C_22  and  O_23 
ROOT
HETATM    1  C   UNL     1      40.300 -14.460   3.171  1.00  0.00     0.062 C 
HETATM    2  C   UNL     1      40.249 -13.350   4.228  1.00  0.00     0.202 C 
HETATM    3  N   UNL     1      39.452 -12.211   3.755  1.00  0.00    -0.083 N 
HETATM    4  C   UNL     1      39.073 -12.037   2.452  1.00  0.00     0.726 A 
HETATM    5  N   UNL     1      39.327 -13.008   1.557  1.00  0.00    -0.192 N 
HETATM    6  N   UNL     1      39.106 -11.150   4.513  1.00  0.00    -0.140 NA
HETATM    7  C   UNL     1      38.595 -10.333   3.580  1.00  0.00     0.166 A 
HETATM    8  N   UNL     1      38.525 -10.858   2.310  1.00  0.00    -0.046 NA
HETATM    9  C   UNL     1      39.905 -14.227   1.891  1.00  0.00     0.037 C 
HETATM   10  C   UNL     1      40.086 -15.184   0.738  1.00  0.00     0.070 C 
HETATM   11  H   UNL     1      39.050 -12.858   0.591  1.00  0.00     0.184 HD
ENDROOT
BRANCH   1  12
HETATM   12  C   UNL     1      40.829 -15.769   3.667  1.00  0.00     0.256 C 
HETATM   13  N   UNL     1      41.905 -16.246   2.955  1.00  0.00    -0.323 N 
HETATM   14  H   UNL     1      42.026 -15.861   2.026  1.00  0.00     0.169 HD
HETATM   15  O   UNL     1      40.222 -16.384   4.534  1.00  0.00    -0.267 OA
BRANCH  13  16
HETATM   16  C   UNL     1      42.779 -17.309   3.287  1.00  0.00     0.041 A 
HETATM   17  C   UNL     1      43.646 -17.360   4.396  1.00  0.00    -0.035 A 
HETATM   18  C   UNL     1      43.827 -16.261   5.406  1.00  0.00     0.050 C 
HETATM   19  C   UNL     1      44.449 -18.507   4.575  1.00  0.00     0.009 A 
HETATM   20  C   UNL     1      44.446 -19.551   3.654  1.00  0.00     0.001 A 
HETATM   21  C   UNL     1      43.634 -19.472   2.532  1.00  0.00     0.002 A 
HETATM   22  C   UNL     1      42.813 -18.359   2.351  1.00  0.00     0.030 A 
ENDBRANCH  13  16
ENDBRANCH   1  12
BRANCH   2  23
HETATM   23  C   UNL     1      41.631 -12.839   4.644  1.00  0.00    -0.028 A 
HETATM   24  C   UNL     1      42.469 -12.159   3.741  1.00  0.00     0.011 A 
HETATM   25  C   UNL     1      43.723 -11.693   4.144  1.00  0.00     0.024 A 
HETATM   26  C   UNL     1      44.153 -11.905   5.452  1.00  0.00     0.034 A 
HETATM   27 CL   UNL     1      45.699 -11.334   5.946  1.00  0.00    -0.084 Cl
HETATM   28  C   UNL     1      43.338 -12.574   6.362  1.00  0.00     0.024 A 
HETATM   29  C   UNL     1      42.083 -13.038   5.961  1.00  0.00     0.011 A 
ENDBRANCH   2  23
BRANCH   7  30
HETATM   30  C   UNL     1      38.232  -8.922   3.859  1.00  0.00     0.085 C 
BRANCH  30  31
HETATM   31  C   UNL     1      39.264  -8.210   4.735  1.00  0.00     0.034 C 
BRANCH  31  32
HETATM   32  C   UNL     1      38.756  -7.917   6.143  1.00  0.00     0.164 C 
BRANCH  32  33
HETATM   33  O   UNL     1      38.753  -9.114   6.915  1.00  0.00    -0.401 OA
HETATM   34  H   UNL     1      39.479  -9.674   6.593  1.00  0.00     0.209 HD
ENDBRANCH  32  33
ENDBRANCH  31  32
ENDBRANCH  30  31
ENDBRANCH   7  30
TORSDOF 7
ENDMDL
MODEL 4
REMARK VINA RESULT:      -8.2      3.754      6.862
REMARK  7 active torsions:
REMARK  status: ('A' for Active; 'I' for Inactive)
REMARK    1  A    between atoms: C_3  and  N_4 
REMARK       I    between atoms: N_4  and  C_5 
REMARK    2  A    between atoms: C_5  and  C_6 
REMARK    3  A    between atoms: C_7  and  C_8 
REMARK    4  A    between atoms: C_19  and  C_20 
REMARK    5  A    between atoms: C_20  and  C_21 
REMARK    6  A    between atoms: C_21  and  C_22 
REMARK    7  A    between atoms: C_22  and  O_23 
ROOT
HETATM    1  C   UNL     1      43.480 -15.057   5.702  1.00  0.00     0.062 C 
HETATM    2  C   UNL     1      43.369 -14.141   4.477  1.00  0.00     0.202 C 
HETATM    3  N   UNL     1      42.992 -12.778   4.872  1.00  0.00    -0.083 N 
HETATM    4  C   UNL     1      42.513 -12.451   6.110  1.00  0.00     0.726 A 
HETATM    5  N   UNL     1      42.487 -13.387   7.076  1.00  0.00    -0.192 N 
HETATM    6  N   UNL     1      42.959 -11.719   4.036  1.00  0.00    -0.140 NA
HETATM    7  C   UNL     1      42.365 -10.805   4.817  1.00  0.00     0.166 A 
HETATM    8  N   UNL     1      42.109 -11.207   6.108  1.00  0.00    -0.046 NA
HETATM    9  C   UNL     1      42.986 -14.673   6.909  1.00  0.00     0.037 C 
HETATM   10  C   UNL     1      42.877 -15.561   8.126  1.00  0.00     0.070 C 
HETATM   11  H   UNL     1      42.117 -13.131   7.986  1.00  0.00     0.184 HD
ENDROOT
BRANCH   1  12
HETATM   12  C   UNL     1      44.141 -16.373   5.439  1.00  0.00     0.256 C 
HETATM   13  N   UNL     1      43.266 -17.393   5.144  1.00  0.00    -0.323 N 
HETATM   14  H   UNL     1      42.307 -17.248   5.433  1.00  0.00     0.169 HD
HETATM   15  O   UNL     1      45.343 -16.502   5.635  1.00  0.00    -0.267 OA
BRANCH  13  16
HETATM   16  C   UNL     1      43.555 -18.676   4.624  1.00  0.00     0.041 A 
HETATM   17  C   UNL     1      43.527 -19.053   3.267  1.00  0.00    -0.035 A 
HETATM   18  C   UNL     1      43.137 -18.154   2.126  1.00  0.00     0.050 C 
HETATM   19  C   UNL     1      43.848 -20.384   2.927  1.00  0.00     0.009 A 
HETATM   20  C   UNL     1      44.129 -21.339   3.900  1.00  0.00     0.001 A 
HETATM   21  C   UNL     1      44.100 -20.980   5.240  1.00  0.00     0.002 A 
HETATM   22  C   UNL     1      43.810 -19.663   5.596  1.00  0.00     0.030 A 
ENDBRANCH  13  16
ENDBRANCH   1  12
BRANCH   2  23
HETATM   23  C   UNL     1      42.367 -14.640   3.431  1.00  0.00    -0.028 A 
HETATM   24  C   UNL     1      41.102 -15.136   3.799  1.00  0.00     0.011 A 
HETATM   25  C   UNL     1      40.200 -15.577   2.828  1.00  0.00     0.024 A 
HETATM   26  C   UNL     1      40.554 -15.531   1.481  1.00  0.00     0.034 A 
HETATM   27 CL   UNL     1      39.443 -16.079   0.286  1.00  0.00    -0.084 Cl
HETATM   28  C   UNL     1      41.800 -15.043   1.096  1.00  0.00     0.024 A 
HETATM   29  C   UNL     1      42.702 -14.598   2.066  1.00  0.00     0.011 A 
ENDBRANCH   2  23
BRANCH   7  30
HETATM   30  C   UNL     1      41.907  -9.489   4.307  1.00  0.00     0.085 C 
BRANCH  30  31
HETATM   31  C   UNL     1      41.330  -8.598   5.409  1.00  0.00     0.034 C 
BRANCH  31  32
HETATM   32  C   UNL     1      39.808  -8.656   5.492  1.00  0.00     0.164 C 
BRANCH  32  33
HETATM   33  O   UNL     1      39.413  -9.569   6.510  1.00  0.00    -0.401 OA
HETATM   34  H   UNL     1      38.658  -9.176   6.981  1.00  0.00     0.209 HD
ENDBRANCH  32  33
ENDBRANCH  31  32
ENDBRANCH  30  31
ENDBRANCH   7  30
TORSDOF 7
ENDMDL
MODEL 5
REMARK VINA RESULT:      -8.2      3.387      6.046
REMARK  7 active torsions:
REMARK  status: ('A' for Active; 'I' for Inactive)
REMARK    1  A    between atoms: C_3  and  N_4 
REMARK       I    between atoms: N_4  and  C_5 
REMARK    2  A    between atoms: C_5  and  C_6 
REMARK    3  A    between atoms: C_7  and  C_8 
REMARK    4  A    between atoms: C_19  and  C_20 
REMARK    5  A    between atoms: C_20  and  C_21 
REMARK    6  A    between atoms: C_21  and  C_22 
REMARK    7  A    between atoms: C_22  and  O_23 
ROOT
HETATM    1  C   UNL     1      41.744 -13.885   5.806  1.00  0.00     0.062 C 
HETATM    2  C   UNL     1      41.432 -15.151   4.998  1.00  0.00     0.202 C 
HETATM    3  N   UNL     1      42.504 -16.144   5.142  1.00  0.00    -0.083 N 
HETATM    4  C   UNL     1      43.736 -15.862   5.665  1.00  0.00     0.726 A 
HETATM    5  N   UNL     1      43.964 -14.648   6.196  1.00  0.00    -0.192 N 
HETATM    6  N   UNL     1      42.449 -17.407   4.669  1.00  0.00    -0.140 NA
HETATM    7  C   UNL     1      43.715 -17.802   4.866  1.00  0.00     0.166 A 
HETATM    8  N   UNL     1      44.525 -16.893   5.508  1.00  0.00    -0.046 NA
HETATM    9  C   UNL     1      42.989 -13.664   6.305  1.00  0.00     0.037 C 
HETATM   10  C   UNL     1      43.450 -12.378   6.950  1.00  0.00     0.070 C 
HETATM   11  H   UNL     1      44.888 -14.450   6.570  1.00  0.00     0.184 HD
ENDROOT
BRANCH   1  12
HETATM   12  C   UNL     1      40.590 -12.946   5.965  1.00  0.00     0.256 C 
HETATM   13  N   UNL     1      40.793 -11.706   5.404  1.00  0.00    -0.323 N 
HETATM   14  H   UNL     1      41.758 -11.451   5.237  1.00  0.00     0.169 HD
HETATM   15  O   UNL     1      39.641 -13.260   6.670  1.00  0.00    -0.267 OA
BRANCH  13  16
HETATM   16  C   UNL     1      39.847 -10.682   5.168  1.00  0.00     0.041 A 
HETATM   17  C   UNL     1      39.048 -10.533   4.018  1.00  0.00    -0.035 A 
HETATM   18  C   UNL     1      39.098 -11.423   2.806  1.00  0.00     0.050 C 
HETATM   19  C   UNL     1      38.150  -9.446   3.953  1.00  0.00     0.009 A 
HETATM   20  C   UNL     1      38.081  -8.494   4.967  1.00  0.00     0.001 A 
HETATM   21  C   UNL     1      38.910  -8.612   6.073  1.00  0.00     0.002 A 
HETATM   22  C   UNL     1      39.786  -9.693   6.168  1.00  0.00     0.030 A 
ENDBRANCH  13  16
ENDBRANCH   1  12
BRANCH   2  23
HETATM   23  C   UNL     1      41.212 -14.884   3.506  1.00  0.00    -0.028 A 
HETATM   24  C   UNL     1      42.066 -14.038   2.774  1.00  0.00     0.011 A 
HETATM   25  C   UNL     1      41.852 -13.815   1.411  1.00  0.00     0.024 A 
HETATM   26  C   UNL     1      40.781 -14.431   0.768  1.00  0.00     0.034 A 
HETATM   27 CL   UNL     1      40.516 -14.154  -0.909  1.00  0.00    -0.084 Cl
HETATM   28  C   UNL     1      39.925 -15.274   1.474  1.00  0.00     0.024 A 
HETATM   29  C   UNL     1      40.140 -15.501   2.836  1.00  0.00     0.011 A 
ENDBRANCH   2  23
BRANCH   7  30
HETATM   30  C   UNL     1      44.249 -19.080   4.333  1.00  0.00     0.085 C 
BRANCH  30  31
HETATM   31  C   UNL     1      44.074 -19.206   2.818  1.00  0.00     0.034 C 
BRANCH  31  32
HETATM   32  C   UNL     1      43.662 -20.607   2.377  1.00  0.00     0.164 C 
BRANCH  32  33
HETATM   33  O   UNL     1      44.094 -21.564   3.339  1.00  0.00    -0.401 OA
HETATM   34  H   UNL     1      44.956 -21.905   3.049  1.00  0.00     0.209 HD
ENDBRANCH  32  33
ENDBRANCH  31  32
ENDBRANCH  30  31
ENDBRANCH   7  30
TORSDOF 7
ENDMDL
MODEL 6
REMARK VINA RESULT:      -7.8      3.758      8.285
REMARK  7 active torsions:
REMARK  status: ('A' for Active; 'I' for Inactive)
REMARK    1  A    between atoms: C_3  and  N_4 
REMARK       I    between atoms: N_4  and  C_5 
REMARK    2  A    between atoms: C_5  and  C_6 
REMARK    3  A    between atoms: C_7  and  C_8 
REMARK    4  A    between atoms: C_19  and  C_20 
REMARK    5  A    between atoms: C_20  and  C_21 
REMARK    6  A    between atoms: C_21  and  C_22 
REMARK    7  A    between atoms: C_22  and  O_23 
ROOT
HETATM    1  C   UNL     1      42.948 -15.131   5.493  1.00  0.00     0.062 C 
HETATM    2  C   UNL     1      43.212 -13.745   4.890  1.00  0.00     0.202 C 
HETATM    3  N   UNL     1      43.723 -12.818   5.907  1.00  0.00    -0.083 N 
HETATM    4  C   UNL     1      43.677 -13.065   7.252  1.00  0.00     0.726 A 
HETATM    5  N   UNL     1      43.256 -14.265   7.688  1.00  0.00    -0.192 N 
HETATM    6  N   UNL     1      44.181 -11.575   5.651  1.00  0.00    -0.140 NA
HETATM    7  C   UNL     1      44.313 -11.096   6.897  1.00  0.00     0.166 A 
HETATM    8  N   UNL     1      44.047 -11.994   7.906  1.00  0.00    -0.046 NA
HETATM    9  C   UNL     1      42.919 -15.313   6.840  1.00  0.00     0.037 C 
HETATM   10  C   UNL     1      42.489 -16.583   7.535  1.00  0.00     0.070 C 
HETATM   11  H   UNL     1      43.216 -14.429   8.690  1.00  0.00     0.184 HD
ENDROOT
BRANCH   1  12
HETATM   12  C   UNL     1      42.714 -16.214   4.487  1.00  0.00     0.256 C 
HETATM   13  N   UNL     1      43.725 -17.144   4.417  1.00  0.00    -0.323 N 
HETATM   14  H   UNL     1      44.620 -16.851   4.789  1.00  0.00     0.169 HD
HETATM   15  O   UNL     1      41.762 -16.139   3.721  1.00  0.00    -0.267 OA
BRANCH  13  16
HETATM   16  C   UNL     1      43.722 -18.398   3.762  1.00  0.00     0.041 A 
HETATM   17  C   UNL     1      43.775 -19.662   4.380  1.00  0.00    -0.035 A 
HETATM   18  C   UNL     1      43.888 -19.899   5.861  1.00  0.00     0.050 C 
HETATM   19  C   UNL     1      43.761 -20.815   3.566  1.00  0.00     0.009 A 
HETATM   20  C   UNL     1      43.758 -20.728   2.177  1.00  0.00     0.001 A 
HETATM   21  C   UNL     1      43.764 -19.481   1.569  1.00  0.00     0.002 A 
HETATM   22  C   UNL     1      43.752 -18.329   2.356  1.00  0.00     0.030 A 
ENDBRANCH  13  16
ENDBRANCH   1  12
BRANCH   2  23
HETATM   23  C   UNL     1      41.977 -13.119   4.236  1.00  0.00    -0.028 A 
HETATM   24  C   UNL     1      40.771 -12.953   4.943  1.00  0.00     0.011 A 
HETATM   25  C   UNL     1      39.659 -12.371   4.329  1.00  0.00     0.024 A 
HETATM   26  C   UNL     1      39.739 -11.953   3.003  1.00  0.00     0.034 A 
HETATM   27 CL   UNL     1      38.368 -11.239   2.247  1.00  0.00    -0.084 Cl
HETATM   28  C   UNL     1      40.924 -12.106   2.286  1.00  0.00     0.024 A 
HETATM   29  C   UNL     1      42.038 -12.685   2.899  1.00  0.00     0.011 A 
ENDBRANCH   2  23
BRANCH   7  30
HETATM   30  C   UNL     1      44.612  -9.672   7.183  1.00  0.00     0.085 C 
BRANCH  30  31
HETATM   31  C   UNL     1      45.778  -9.498   8.158  1.00  0.00     0.034 C 
BRANCH  31  32
HETATM   32  C   UNL     1      45.330  -9.347   9.608  1.00  0.00     0.164 C 
BRANCH  32  33
HETATM   33  O   UNL     1      45.359 -10.613  10.258  1.00  0.00    -0.401 OA
HETATM   34  H   UNL     1      45.196 -11.294   9.584  1.00  0.00     0.209 HD
ENDBRANCH  32  33
ENDBRANCH  31  32
ENDBRANCH  30  31
ENDBRANCH   7  30
TORSDOF 7
ENDMDL
MODEL 7
REMARK VINA RESULT:      -7.6      3.343      6.911
REMARK  7 active torsions:
REMARK  status: ('A' for Active; 'I' for Inactive)
REMARK    1  A    between atoms: C_3  and  N_4 
REMARK       I    between atoms: N_4  and  C_5 
REMARK    2  A    between atoms: C_5  and  C_6 
REMARK    3  A    between atoms: C_7  and  C_8 
REMARK    4  A    between atoms: C_19  and  C_20 
REMARK    5  A    between atoms: C_20  and  C_21 
REMARK    6  A    between atoms: C_21  and  C_22 
REMARK    7  A    between atoms: C_22  and  O_23 
ROOT
HETATM    1  C   UNL     1      40.411 -13.543   4.654  1.00  0.00     0.062 C 
HETATM    2  C   UNL     1      40.767 -12.636   5.838  1.00  0.00     0.202 C 
HETATM    3  N   UNL     1      40.009 -11.380   5.784  1.00  0.00    -0.083 N 
HETATM    4  C   UNL     1      39.323 -10.953   4.681  1.00  0.00     0.726 A 
HETATM    5  N   UNL     1      39.219 -11.765   3.614  1.00  0.00    -0.192 N 
HETATM    6  N   UNL     1      39.999 -10.447   6.760  1.00  0.00    -0.140 NA
HETATM    7  C   UNL     1      39.356  -9.446   6.141  1.00  0.00     0.166 A 
HETATM    8  N   UNL     1      38.895  -9.733   4.876  1.00  0.00    -0.046 NA
HETATM    9  C   UNL     1      39.722 -13.061   3.586  1.00  0.00     0.037 C 
HETATM   10  C   UNL     1      39.482 -13.810   2.297  1.00  0.00     0.070 C 
HETATM   11  H   UNL     1      38.716 -11.429   2.798  1.00  0.00     0.184 HD
ENDROOT
BRANCH   1  12
HETATM   12  C   UNL     1      40.899 -14.952   4.779  1.00  0.00     0.256 C 
HETATM   13  N   UNL     1      41.911 -15.276   3.905  1.00  0.00    -0.323 N 
HETATM   14  H   UNL     1      42.002 -14.677   3.094  1.00  0.00     0.169 HD
HETATM   15  O   UNL     1      40.308 -15.740   5.505  1.00  0.00    -0.267 OA
BRANCH  13  16
HETATM   16  C   UNL     1      42.746 -16.418   3.911  1.00  0.00     0.041 A 
HETATM   17  C   UNL     1      43.686 -16.759   4.903  1.00  0.00    -0.035 A 
HETATM   18  C   UNL     1      44.000 -15.934   6.121  1.00  0.00     0.050 C 
HETATM   19  C   UNL     1      44.436 -17.945   4.746  1.00  0.00     0.009 A 
HETATM   20  C   UNL     1      44.310 -18.744   3.613  1.00  0.00     0.001 A 
HETATM   21  C   UNL     1      43.425 -18.375   2.610  1.00  0.00     0.002 A 
HETATM   22  C   UNL     1      42.656 -17.221   2.758  1.00  0.00     0.030 A 
ENDBRANCH  13  16
ENDBRANCH   1  12
BRANCH   2  23
HETATM   23  C   UNL     1      42.259 -12.303   5.925  1.00  0.00    -0.028 A 
HETATM   24  C   UNL     1      42.996 -12.518   7.104  1.00  0.00     0.011 A 
HETATM   25  C   UNL     1      44.359 -12.216   7.158  1.00  0.00     0.024 A 
HETATM   26  C   UNL     1      44.998 -11.692   6.036  1.00  0.00     0.034 A 
HETATM   27 CL   UNL     1      46.675 -11.317   6.105  1.00  0.00    -0.084 Cl
HETATM   28  C   UNL     1      44.287 -11.473   4.859  1.00  0.00     0.024 A 
HETATM   29  C   UNL     1      42.925 -11.778   4.802  1.00  0.00     0.011 A 
ENDBRANCH   2  23
BRANCH   7  30
HETATM   30  C   UNL     1      39.243  -8.085   6.720  1.00  0.00     0.085 C 
BRANCH  30  31
HETATM   31  C   UNL     1      40.119  -7.061   5.995  1.00  0.00     0.034 C 
BRANCH  31  32
HETATM   32  C   UNL     1      41.560  -7.044   6.494  1.00  0.00     0.164 C 
BRANCH  32  33
HETATM   33  O   UNL     1      42.229  -5.888   6.001  1.00  0.00    -0.401 OA
HETATM   34  H   UNL     1      42.873  -5.609   6.675  1.00  0.00     0.209 HD
ENDBRANCH  32  33
ENDBRANCH  31  32
ENDBRANCH  30  31
ENDBRANCH   7  30
TORSDOF 7
ENDMDL
MODEL 8
REMARK VINA RESULT:      -7.6      3.364      6.984
REMARK  7 active torsions:
REMARK  status: ('A' for Active; 'I' for Inactive)
REMARK    1  A    between atoms: C_3  and  N_4 
REMARK       I    between atoms: N_4  and  C_5 
REMARK    2  A    between atoms: C_5  and  C_6 
REMARK    3  A    between atoms: C_7  and  C_8 
REMARK    4  A    between atoms: C_19  and  C_20 
REMARK    5  A    between atoms: C_20  and  C_21 
REMARK    6  A    between atoms: C_21  and  C_22 
REMARK    7  A    between atoms: C_22  and  O_23 
ROOT
HETATM    1  C   UNL     1      41.263 -14.648   4.664  1.00  0.00     0.062 C 
HETATM    2  C   UNL     1      41.729 -13.405   3.895  1.00  0.00     0.202 C 
HETATM    3  N   UNL     1      41.708 -12.216   4.756  1.00  0.00    -0.083 N 
HETATM    4  C   UNL     1      41.076 -12.166   5.968  1.00  0.00     0.726 A 
HETATM    5  N   UNL     1      40.539 -13.289   6.478  1.00  0.00    -0.192 N 
HETATM    6  N   UNL     1      42.197 -11.008   4.408  1.00  0.00    -0.140 NA
HETATM    7  C   UNL     1      41.748 -10.255   5.422  1.00  0.00     0.166 A 
HETATM    8  N   UNL     1      41.087 -10.938   6.418  1.00  0.00    -0.046 NA
HETATM    9  C   UNL     1      40.644 -14.534   5.869  1.00  0.00     0.037 C 
HETATM   10  C   UNL     1      39.985 -15.668   6.618  1.00  0.00     0.070 C 
HETATM   11  H   UNL     1      40.063 -13.233   7.374  1.00  0.00     0.184 HD
ENDROOT
BRANCH   1  12
HETATM   12  C   UNL     1      41.531 -15.947   3.970  1.00  0.00     0.256 C 
HETATM   13  N   UNL     1      42.738 -16.520   4.296  1.00  0.00    -0.323 N 
HETATM   14  H   UNL     1      43.429 -15.896   4.694  1.00  0.00     0.169 HD
HETATM   15  O   UNL     1      40.774 -16.335   3.090  1.00  0.00    -0.267 OA
BRANCH  13  16
HETATM   16  C   UNL     1      43.194 -17.829   4.015  1.00  0.00     0.041 A 
HETATM   17  C   UNL     1      43.584 -18.798   4.960  1.00  0.00    -0.035 A 
HETATM   18  C   UNL     1      43.625 -18.590   6.449  1.00  0.00     0.050 C 
HETATM   19  C   UNL     1      44.013 -20.060   4.498  1.00  0.00     0.009 A 
HETATM   20  C   UNL     1      44.115 -20.344   3.139  1.00  0.00     0.001 A 
HETATM   21  C   UNL     1      43.785 -19.369   2.209  1.00  0.00     0.002 A 
HETATM   22  C   UNL     1      43.334 -18.123   2.645  1.00  0.00     0.030 A 
ENDBRANCH  13  16
ENDBRANCH   1  12
BRANCH   2  23
HETATM   23  C   UNL     1      40.896 -13.115   2.643  1.00  0.00    -0.028 A 
HETATM   24  C   UNL     1      41.424 -13.288   1.350  1.00  0.00     0.011 A 
HETATM   25  C   UNL     1      40.643 -13.027   0.221  1.00  0.00     0.024 A 
HETATM   26  C   UNL     1      39.331 -12.587   0.372  1.00  0.00     0.034 A 
HETATM   27 CL   UNL     1      38.372 -12.261  -1.019  1.00  0.00    -0.084 Cl
HETATM   28  C   UNL     1      38.789 -12.411   1.643  1.00  0.00     0.024 A 
HETATM   29  C   UNL     1      39.566 -12.675   2.774  1.00  0.00     0.011 A 
ENDBRANCH   2  23
BRANCH   7  30
HETATM   30  C   UNL     1      41.849  -8.774   5.430  1.00  0.00     0.085 C 
BRANCH  30  31
HETATM   31  C   UNL     1      41.030  -8.134   6.553  1.00  0.00     0.034 C 
BRANCH  31  32
HETATM   32  C   UNL     1      39.579  -7.873   6.163  1.00  0.00     0.164 C 
BRANCH  32  33
HETATM   33  O   UNL     1      38.732  -8.841   6.774  1.00  0.00    -0.401 OA
HETATM   34  H   UNL     1      38.556  -8.547   7.683  1.00  0.00     0.209 HD
ENDBRANCH  32  33
ENDBRANCH  31  32
ENDBRANCH  30  31
ENDBRANCH   7  30
TORSDOF 7
ENDMDL
MODEL 9
REMARK VINA RESULT:      -7.5     16.682     20.308
REMARK  7 active torsions:
REMARK  status: ('A' for Active; 'I' for Inactive)
REMARK    1  A    between atoms: C_3  and  N_4 
REMARK       I    between atoms: N_4  and  C_5 
REMARK    2  A    between atoms: C_5  and  C_6 
REMARK    3  A    between atoms: C_7  and  C_8 
REMARK    4  A    between atoms: C_19  and  C_20 
REMARK    5  A    between atoms: C_20  and  C_21 
REMARK    6  A    between atoms: C_21  and  C_22 
REMARK    7  A    between atoms: C_22  and  O_23 
ROOT
HETATM    1  C   UNL     1      45.991 -29.902  -1.221  1.00  0.00     0.062 C 
HETATM    2  C   UNL     1      46.990 -30.602  -0.290  1.00  0.00     0.202 C 
HETATM    3  N   UNL     1      47.235 -29.800   0.915  1.00  0.00    -0.083 N 
HETATM    4  C   UNL     1      46.867 -28.490   1.045  1.00  0.00     0.726 A 
HETATM    5  N   UNL     1      46.132 -27.913   0.077  1.00  0.00    -0.192 N 
HETATM    6  N   UNL     1      47.951 -30.217   1.981  1.00  0.00    -0.140 NA
HETATM    7  C   UNL     1      48.048 -29.075   2.678  1.00  0.00     0.166 A 
HETATM    8  N   UNL     1      47.364 -28.002   2.152  1.00  0.00    -0.046 NA
HETATM    9  C   UNL     1      45.662 -28.596  -1.038  1.00  0.00     0.037 C 
HETATM   10  C   UNL     1      44.840 -27.765  -1.995  1.00  0.00     0.070 C 
HETATM   11  H   UNL     1      45.877 -26.935   0.182  1.00  0.00     0.184 HD
ENDROOT
BRANCH   1  12
HETATM   12  C   UNL     1      45.454 -30.764  -2.320  1.00  0.00     0.256 C 
HETATM   13  N   UNL     1      45.868 -30.393  -3.578  1.00  0.00    -0.323 N 
HETATM   14  H   UNL     1      46.207 -29.444  -3.669  1.00  0.00     0.169 HD
HETATM   15  O   UNL     1      44.607 -31.612  -2.071  1.00  0.00    -0.267 OA
BRANCH  13  16
HETATM   16  C   UNL     1      45.745 -31.111  -4.791  1.00  0.00     0.041 A 
HETATM   17  C   UNL     1      46.605 -32.128  -5.250  1.00  0.00    -0.035 A 
HETATM   18  C   UNL     1      47.844 -32.601  -4.540  1.00  0.00     0.050 C 
HETATM   19  C   UNL     1      46.328 -32.740  -6.490  1.00  0.00     0.009 A 
HETATM   20  C   UNL     1      45.268 -32.323  -7.290  1.00  0.00     0.001 A 
HETATM   21  C   UNL     1      44.456 -31.282  -6.863  1.00  0.00     0.002 A 
HETATM   22  C   UNL     1      44.698 -30.681  -5.628  1.00  0.00     0.030 A 
ENDBRANCH  13  16
ENDBRANCH   1  12
BRANCH   2  23
HETATM   23  C   UNL     1      48.336 -30.904  -0.957  1.00  0.00    -0.028 A 
HETATM   24  C   UNL     1      49.113 -29.887  -1.544  1.00  0.00     0.011 A 
HETATM   25  C   UNL     1      50.342 -30.184  -2.138  1.00  0.00     0.024 A 
HETATM   26  C   UNL     1      50.805 -31.497  -2.155  1.00  0.00     0.034 A 
HETATM   27 CL   UNL     1      52.317 -31.862  -2.890  1.00  0.00    -0.084 Cl
HETATM   28  C   UNL     1      50.053 -32.517  -1.577  1.00  0.00     0.024 A 
HETATM   29  C   UNL     1      48.825 -32.222  -0.979  1.00  0.00     0.011 A 
ENDBRANCH   2  23
BRANCH   7  30
HETATM   30  C   UNL     1      48.919 -28.933   3.870  1.00  0.00     0.085 C 
BRANCH  30  31
HETATM   31  C   UNL     1      49.662 -30.226   4.215  1.00  0.00     0.034 C 
BRANCH  31  32
HETATM   32  C   UNL     1      51.054 -30.301   3.596  1.00  0.00     0.164 C 
BRANCH  32  33
HETATM   33  O   UNL     1      51.095 -29.527   2.402  1.00  0.00    -0.401 OA
HETATM   34  H   UNL     1      50.552 -29.982   1.736  1.00  0.00     0.209 HD
ENDBRANCH  32  33
ENDBRANCH  31  32
ENDBRANCH  30  31
ENDBRANCH   7  30
TORSDOF 7
ENDMDL
MODEL 10
REMARK VINA RESULT:      -7.5     17.235     18.566
REMARK  7 active torsions:
REMARK  status: ('A' for Active; 'I' for Inactive)
REMARK    1  A    between atoms: C_3  and  N_4 
REMARK       I    between atoms: N_4  and  C_5 
REMARK    2  A    between atoms: C_5  and  C_6 
REMARK    3  A    between atoms: C_7  and  C_8 
REMARK    4  A    between atoms: C_19  and  C_20 
REMARK    5  A    between atoms: C_20  and  C_21 
REMARK    6  A    between atoms: C_21  and  C_22 
REMARK    7  A    between atoms: C_22  and  O_23 
ROOT
HETATM    1  C   UNL     1      46.850 -29.420   1.652  1.00  0.00     0.062 C 
HETATM    2  C   UNL     1      47.459 -29.045   0.295  1.00  0.00     0.202 C 
HETATM    3  N   UNL     1      46.409 -28.756  -0.689  1.00  0.00    -0.083 N 
HETATM    4  C   UNL     1      45.090 -29.073  -0.510  1.00  0.00     0.726 A 
HETATM    5  N   UNL     1      44.687 -29.568   0.674  1.00  0.00    -0.192 N 
HETATM    6  N   UNL     1      46.631 -28.261  -1.925  1.00  0.00    -0.140 NA
HETATM    7  C   UNL     1      45.411 -28.387  -2.467  1.00  0.00     0.166 A 
HETATM    8  N   UNL     1      44.432 -28.848  -1.617  1.00  0.00    -0.046 NA
HETATM    9  C   UNL     1      45.530 -29.721   1.768  1.00  0.00     0.037 C 
HETATM   10  C   UNL     1      44.871 -30.278   3.007  1.00  0.00     0.070 C 
HETATM   11  H   UNL     1      43.706 -29.809   0.787  1.00  0.00     0.184 HD
ENDROOT
BRANCH   1  12
HETATM   12  C   UNL     1      47.825 -29.440   2.788  1.00  0.00     0.256 C 
HETATM   13  N   UNL     1      48.181 -30.704   3.200  1.00  0.00    -0.323 N 
HETATM   14  H   UNL     1      47.548 -31.448   2.936  1.00  0.00     0.169 HD
HETATM   15  O   UNL     1      48.122 -28.398   3.355  1.00  0.00    -0.267 OA
BRANCH  13  16
HETATM   16  C   UNL     1      49.232 -31.082   4.068  1.00  0.00     0.041 A 
HETATM   17  C   UNL     1      50.596 -30.766   3.913  1.00  0.00    -0.035 A 
HETATM   18  C   UNL     1      51.183 -29.998   2.760  1.00  0.00     0.050 C 
HETATM   19  C   UNL     1      51.512 -31.227   4.882  1.00  0.00     0.009 A 
HETATM   20  C   UNL     1      51.108 -32.031   5.945  1.00  0.00     0.001 A 
HETATM   21  C   UNL     1      49.774 -32.389   6.063  1.00  0.00     0.002 A 
HETATM   22  C   UNL     1      48.848 -31.922   5.130  1.00  0.00     0.030 A 
ENDBRANCH  13  16
ENDBRANCH   1  12
BRANCH   2  23
HETATM   23  C   UNL     1      48.381 -30.125  -0.279  1.00  0.00    -0.028 A 
HETATM   24  C   UNL     1      47.961 -31.462  -0.410  1.00  0.00     0.011 A 
HETATM   25  C   UNL     1      48.816 -32.428  -0.945  1.00  0.00     0.024 A 
HETATM   26  C   UNL     1      50.099 -32.071  -1.350  1.00  0.00     0.034 A 
HETATM   27 CL   UNL     1      51.153 -33.263  -2.005  1.00  0.00    -0.084 Cl
HETATM   28  C   UNL     1      50.534 -30.753  -1.231  1.00  0.00     0.024 A 
HETATM   29  C   UNL     1      49.680 -29.784  -0.699  1.00  0.00     0.011 A 
ENDBRANCH   2  23
BRANCH   7  30
HETATM   30  C   UNL     1      45.145 -28.159  -3.909  1.00  0.00     0.085 C 
BRANCH  30  31
HETATM   31  C   UNL     1      44.396 -29.322  -4.561  1.00  0.00     0.034 C 
BRANCH  31  32
HETATM   32  C   UNL     1      45.286 -30.528  -4.840  1.00  0.00     0.164 C 
BRANCH  32  33
HETATM   33  O   UNL     1      45.208 -30.879  -6.218  1.00  0.00    -0.401 OA
HETATM   34  H   UNL     1      45.646 -31.740  -6.328  1.00  0.00     0.209 HD
ENDBRANCH  32  33
ENDBRANCH  31  32
ENDBRANCH  30  31
ENDBRANCH   7  30
TORSDOF 7
ENDMDL
