MODEL 1
REMARK VINA RESULT:      -9.0      0.000      0.000
REMARK  8 active torsions:
REMARK  status: ('A' for Active; 'I' for Inactive)
REMARK    1  A    between atoms: C_5  and  C_6 
REMARK    2  A    between atoms: C_6  and  N_7 
REMARK       I    between atoms: N_7  and  C_8 
REMARK    3  A    between atoms: C_8  and  C_9 
REMARK    4  A    between atoms: C_9  and  S_10 
REMARK    5  A    between atoms: S_10  and  C_11 
REMARK    6  A    between atoms: C_13  and  N_14 
REMARK    7  A    between atoms: C_15  and  N_16 
REMARK       I    between atoms: N_16  and  C_17 
REMARK    8  A    between atoms: C_17  and  C_18 
ROOT
HETATM    1  C   UNL     1      43.562 -11.172   7.447  1.00  0.00     0.171 C 
HETATM    2  N   UNL     1      44.496 -11.255   8.328  1.00  0.00    -0.210 NA
HETATM    3  C   UNL     1      44.364 -10.498   9.464  1.00  0.00     0.136 C 
HETATM    4  C   UNL     1      43.357  -9.609   9.643  1.00  0.00     0.144 C 
HETATM    5  C   UNL     1      42.496  -9.347   8.449  1.00  0.00     0.277 C 
HETATM    6  O   UNL     1      41.948  -8.276   8.219  1.00  0.00    -0.266 OA
HETATM    7  N   UNL     1      42.495 -10.346   7.524  1.00  0.00    -0.300 N 
HETATM    8  H   UNL     1      41.928 -10.206   6.702  1.00  0.00     0.171 HD
ENDROOT
BRANCH   1   9
HETATM    9  S   UNL     1      43.558 -12.159   6.020  1.00  0.00    -0.083 SA
BRANCH   9  10
HETATM   10  C   UNL     1      42.397 -13.452   6.535  1.00  0.00     0.185 C 
BRANCH  10  11
HETATM   11  C   UNL     1      43.041 -14.770   6.935  1.00  0.00     0.227 C 
HETATM   12  N   UNL     1      43.549 -15.539   5.912  1.00  0.00    -0.356 N 
HETATM   13  H   UNL     1      43.145 -15.393   4.994  1.00  0.00     0.162 HD
HETATM   14  O   UNL     1      43.177 -15.073   8.120  1.00  0.00    -0.273 OA
BRANCH  12  15
HETATM   15  C   UNL     1      44.060 -16.859   6.201  1.00  0.00     0.161 C 
BRANCH  15  16
HETATM   16  C   UNL     1      43.962 -17.779   5.015  1.00  0.00    -0.041 A 
HETATM   17  C   UNL     1      44.167 -19.158   5.161  1.00  0.00     0.009 A 
HETATM   18  C   UNL     1      44.019 -20.020   4.071  1.00  0.00     0.007 A 
HETATM   19  C   UNL     1      43.664 -19.520   2.815  1.00  0.00    -0.062 A 
HETATM   20  C   UNL     1      43.454 -20.442   1.651  1.00  0.00     0.048 C 
HETATM   21  C   UNL     1      43.452 -18.144   2.666  1.00  0.00     0.007 A 
HETATM   22  C   UNL     1      43.603 -17.282   3.755  1.00  0.00     0.009 A 
ENDBRANCH  15  16
ENDBRANCH  12  15
ENDBRANCH  10  11
ENDBRANCH   9  10
ENDBRANCH   1   9
BRANCH   3  23
HETATM   23  N   UNL     1      45.297 -10.716  10.472  1.00  0.00    -0.285 NA
HETATM   24  H   UNL     1      45.489 -11.718  10.482  1.00  0.00     0.125 HD
HETATM   25  H   UNL     1      46.167 -10.233  10.254  1.00  0.00     0.125 HD
ENDBRANCH   3  23
BRANCH   4  26
HETATM   26  N   UNL     1      43.172  -8.998  10.866  1.00  0.00    -0.314 N 
HETATM   27  C   UNL     1      42.158  -9.231  11.774  1.00  0.00     0.280 C 
HETATM   28  O   UNL     1      41.237 -10.022  11.615  1.00  0.00    -0.265 OA
HETATM   29  H   UNL     1      43.988  -8.525  11.245  1.00  0.00     0.169 HD
BRANCH  27  30
HETATM   30  C   UNL     1      42.336  -8.498  13.015  1.00  0.00     0.144 A 
HETATM   31  O   UNL     1      41.431  -8.664  14.031  1.00  0.00    -0.298 OA
HETATM   32  C   UNL     1      41.806  -7.832  15.041  1.00  0.00     0.122 A 
HETATM   33 BR   UNL     1      40.879  -7.660  16.650  1.00  0.00    -0.023 Br
HETATM   34  C   UNL     1      42.945  -7.143  14.699  1.00  0.00     0.048 A 
HETATM   35  C   UNL     1      43.289  -7.571  13.393  1.00  0.00     0.046 A 
ENDBRANCH  27  30
ENDBRANCH   4  26
TORSDOF 8
ENDMDL
MODEL 2
REMARK VINA RESULT:      -8.9      3.140      4.670
REMARK  8 active torsions:
REMARK  status: ('A' for Active; 'I' for Inactive)
REMARK    1  A    between atoms: C_5  and  C_6 
REMARK    2  A    between atoms: C_6  and  N_7 
REMARK       I    between atoms: N_7  and  C_8 
REMARK    3  A    between atoms: C_8  and  C_9 
REMARK    4  A    between atoms: C_9  and  S_10 
REMARK    5  A    between atoms: S_10  and  C_11 
REMARK    6  A    between atoms: C_13  and  N_14 
REMARK    7  A    between atoms: C_15  and  N_16 
REMARK       I    between atoms: N_16  and  C_17 
REMARK    8  A    between atoms: C_17  and  C_18 
ROOT
HETATM    1  C   UNL     1      41.344 -11.961   3.068  1.00  0.00     0.171 C 
HETATM    2  N   UNL     1      40.751 -12.297   4.159  1.00  0.00    -0.210 NA
HETATM    3  C   UNL     1      41.368 -11.974   5.341  1.00  0.00     0.136 C 
HETATM    4  C   UNL     1      42.601 -11.414   5.398  1.00  0.00     0.144 C 
HETATM    5  C   UNL     1      43.348 -11.345   4.106  1.00  0.00     0.277 C 
HETATM    6  O   UNL     1      44.568 -11.409   4.013  1.00  0.00    -0.266 OA
HETATM    7  N   UNL     1      42.561 -11.374   2.996  1.00  0.00    -0.300 N 
HETATM    8  H   UNL     1      43.027 -11.332   2.103  1.00  0.00     0.171 HD
ENDROOT
BRANCH   1   9
HETATM    9  S   UNL     1      40.617 -12.216   1.514  1.00  0.00    -0.083 SA
BRANCH   9  10
HETATM   10  C   UNL     1      41.153 -13.917   1.190  1.00  0.00     0.185 C 
BRANCH  10  11
HETATM   11  C   UNL     1      42.334 -14.387   2.025  1.00  0.00     0.227 C 
HETATM   12  N   UNL     1      42.036 -15.135   3.142  1.00  0.00    -0.356 N 
HETATM   13  H   UNL     1      41.112 -15.005   3.539  1.00  0.00     0.162 HD
HETATM   14  O   UNL     1      43.490 -14.181   1.657  1.00  0.00    -0.273 OA
BRANCH  12  15
HETATM   15  C   UNL     1      43.095 -15.507   4.052  1.00  0.00     0.161 C 
BRANCH  15  16
HETATM   16  C   UNL     1      43.417 -16.975   3.979  1.00  0.00    -0.041 A 
HETATM   17  C   UNL     1      43.809 -17.678   5.126  1.00  0.00     0.009 A 
HETATM   18  C   UNL     1      44.053 -19.052   5.071  1.00  0.00     0.007 A 
HETATM   19  C   UNL     1      43.911 -19.750   3.868  1.00  0.00    -0.062 A 
HETATM   20  C   UNL     1      44.121 -21.234   3.809  1.00  0.00     0.048 C 
HETATM   21  C   UNL     1      43.513 -19.052   2.721  1.00  0.00     0.007 A 
HETATM   22  C   UNL     1      43.272 -17.677   2.776  1.00  0.00     0.009 A 
ENDBRANCH  15  16
ENDBRANCH  12  15
ENDBRANCH  10  11
ENDBRANCH   9  10
ENDBRANCH   1   9
BRANCH   3  23
HETATM   23  N   UNL     1      40.643 -12.201   6.506  1.00  0.00    -0.285 NA
HETATM   24  H   UNL     1      41.141 -12.926   7.023  1.00  0.00     0.125 HD
HETATM   25  H   UNL     1      40.631 -11.360   7.080  1.00  0.00     0.125 HD
ENDBRANCH   3  23
BRANCH   4  26
HETATM   26  N   UNL     1      43.105 -10.955   6.598  1.00  0.00    -0.314 N 
HETATM   27  C   UNL     1      43.964 -11.615   7.453  1.00  0.00     0.280 C 
HETATM   28  O   UNL     1      44.403 -12.745   7.279  1.00  0.00    -0.265 OA
HETATM   29  H   UNL     1      43.045  -9.951   6.740  1.00  0.00     0.169 HD
BRANCH  27  30
HETATM   30  C   UNL     1      44.388 -10.790   8.570  1.00  0.00     0.144 A 
HETATM   31  O   UNL     1      43.481 -10.451   9.541  1.00  0.00    -0.298 OA
HETATM   32  C   UNL     1      44.125  -9.644  10.427  1.00  0.00     0.122 A 
HETATM   33 BR   UNL     1      43.316  -8.886  11.927  1.00  0.00    -0.023 Br
HETATM   34  C   UNL     1      45.436  -9.467  10.052  1.00  0.00     0.048 A 
HETATM   35  C   UNL     1      45.608 -10.206   8.856  1.00  0.00     0.046 A 
ENDBRANCH  27  30
ENDBRANCH   4  26
TORSDOF 8
ENDMDL
MODEL 3
REMARK VINA RESULT:      -8.9      2.015      2.565
REMARK  8 active torsions:
REMARK  status: ('A' for Active; 'I' for Inactive)
REMARK    1  A    between atoms: C_5  and  C_6 
REMARK    2  A    between atoms: C_6  and  N_7 
REMARK       I    between atoms: N_7  and  C_8 
REMARK    3  A    between atoms: C_8  and  C_9 
REMARK    4  A    between atoms: C_9  and  S_10 
REMARK    5  A    between atoms: S_10  and  C_11 
REMARK    6  A    between atoms: C_13  and  N_14 
REMARK    7  A    between atoms: C_15  and  N_16 
REMARK       I    between atoms: N_16  and  C_17 
REMARK    8  A    between atoms: C_17  and  C_18 
ROOT
HETATM    1  C   UNL     1      42.841 -10.898   4.850  1.00  0.00     0.171 C 
HETATM    2  N   UNL     1      43.723 -11.464   5.596  1.00  0.00    -0.210 NA
HETATM    3  C   UNL     1      43.727 -11.142   6.929  1.00  0.00     0.136 C 
HETATM    4  C   UNL     1      42.917 -10.193   7.459  1.00  0.00     0.144 C 
HETATM    5  C   UNL     1      42.148  -9.368   6.479  1.00  0.00     0.277 C 
HETATM    6  O   UNL     1      41.832  -8.198   6.663  1.00  0.00    -0.266 OA
HETATM    7  N   UNL     1      41.961  -9.959   5.267  1.00  0.00    -0.300 N 
HETATM    8  H   UNL     1      41.449  -9.433   4.576  1.00  0.00     0.171 HD
ENDROOT
BRANCH   1   9
HETATM    9  S   UNL     1      42.663 -11.302   3.173  1.00  0.00    -0.083 SA
BRANCH   9  10
HETATM   10  C   UNL     1      41.349 -12.548   3.287  1.00  0.00     0.185 C 
BRANCH  10  11
HETATM   11  C   UNL     1      41.614 -13.669   4.278  1.00  0.00     0.227 C 
HETATM   12  N   UNL     1      42.834 -14.300   4.179  1.00  0.00    -0.356 N 
HETATM   13  H   UNL     1      43.290 -14.260   3.274  1.00  0.00     0.162 HD
HETATM   14  O   UNL     1      40.810 -13.924   5.174  1.00  0.00    -0.273 OA
BRANCH  12  15
HETATM   15  C   UNL     1      43.106 -15.456   5.001  1.00  0.00     0.161 C 
BRANCH  15  16
HETATM   16  C   UNL     1      43.313 -16.701   4.181  1.00  0.00    -0.041 A 
HETATM   17  C   UNL     1      44.109 -17.749   4.661  1.00  0.00     0.009 A 
HETATM   18  C   UNL     1      44.254 -18.928   3.926  1.00  0.00     0.007 A 
HETATM   19  C   UNL     1      43.608 -19.080   2.695  1.00  0.00    -0.062 A 
HETATM   20  C   UNL     1      43.717 -20.361   1.922  1.00  0.00     0.048 C 
HETATM   21  C   UNL     1      42.807 -18.038   2.215  1.00  0.00     0.007 A 
HETATM   22  C   UNL     1      42.664 -16.858   2.949  1.00  0.00     0.009 A 
ENDBRANCH  15  16
ENDBRANCH  12  15
ENDBRANCH  10  11
ENDBRANCH   9  10
ENDBRANCH   1   9
BRANCH   3  23
HETATM   23  N   UNL     1      44.579 -11.876   7.747  1.00  0.00    -0.285 NA
HETATM   24  H   UNL     1      44.051 -12.105   8.589  1.00  0.00     0.125 HD
HETATM   25  H   UNL     1      44.835 -12.750   7.291  1.00  0.00     0.125 HD
ENDBRANCH   3  23
BRANCH   4  26
HETATM   26  N   UNL     1      42.839 -10.025   8.826  1.00  0.00    -0.314 N 
HETATM   27  C   UNL     1      43.775  -9.435   9.652  1.00  0.00     0.280 C 
HETATM   28  O   UNL     1      44.850  -8.977   9.286  1.00  0.00    -0.265 OA
HETATM   29  H   UNL     1      41.908 -10.109   9.224  1.00  0.00     0.169 HD
BRANCH  27  30
HETATM   30  C   UNL     1      43.318  -9.317  11.025  1.00  0.00     0.144 A 
HETATM   31  O   UNL     1      43.404  -8.106  11.663  1.00  0.00    -0.298 OA
HETATM   32  C   UNL     1      42.960  -8.291  12.935  1.00  0.00     0.122 A 
HETATM   33 BR   UNL     1      42.901  -6.947  14.227  1.00  0.00    -0.023 Br
HETATM   34  C   UNL     1      42.576  -9.598  13.126  1.00  0.00     0.048 A 
HETATM   35  C   UNL     1      42.805 -10.261  11.896  1.00  0.00     0.046 A 
ENDBRANCH  27  30
ENDBRANCH   4  26
TORSDOF 8
ENDMDL
MODEL 4
REMARK VINA RESULT:      -8.7      4.000     10.769
REMARK  8 active torsions:
REMARK  status: ('A' for Active; 'I' for Inactive)
REMARK    1  A    between atoms: C_5  and  C_6 
REMARK    2  A    between atoms: C_6  and  N_7 
REMARK       I    between atoms: N_7  and  C_8 
REMARK    3  A    between atoms: C_8  and  C_9 
REMARK    4  A    between atoms: C_9  and  S_10 
REMARK    5  A    between atoms: S_10  and  C_11 
REMARK    6  A    between atoms: C_13  and  N_14 
REMARK    7  A    between atoms: C_15  and  N_16 
REMARK       I    between atoms: N_16  and  C_17 
REMARK    8  A    between atoms: C_17  and  C_18 
ROOT
HETATM    1  C   UNL     1      40.334 -10.271   6.753  1.00  0.00     0.171 C 
HETATM    2  N   UNL     1      39.627 -11.330   6.564  1.00  0.00    -0.210 NA
HETATM    3  C   UNL     1      40.267 -12.441   6.080  1.00  0.00     0.136 C 
HETATM    4  C   UNL     1      41.570 -12.435   5.705  1.00  0.00     0.144 C 
HETATM    5  C   UNL     1      42.232 -11.096   5.661  1.00  0.00     0.277 C 
HETATM    6  O   UNL     1      43.130 -10.798   4.882  1.00  0.00    -0.266 OA
HETATM    7  N   UNL     1      41.645 -10.150   6.446  1.00  0.00    -0.300 N 
HETATM    8  H   UNL     1      42.061  -9.232   6.442  1.00  0.00     0.171 HD
ENDROOT
BRANCH   1   9
HETATM    9  S   UNL     1      39.665  -8.836   7.463  1.00  0.00    -0.083 SA
BRANCH   9  10
HETATM   10  C   UNL     1      39.758  -9.281   9.218  1.00  0.00     0.185 C 
BRANCH  10  11
HETATM   11  C   UNL     1      41.153  -9.231   9.819  1.00  0.00     0.227 C 
HETATM   12  N   UNL     1      41.369 -10.009  10.934  1.00  0.00    -0.356 N 
HETATM   13  H   UNL     1      40.551 -10.241  11.487  1.00  0.00     0.162 HD
HETATM   14  O   UNL     1      42.055  -8.598   9.271  1.00  0.00    -0.273 OA
BRANCH  12  15
HETATM   15  C   UNL     1      42.629  -9.915  11.634  1.00  0.00     0.161 C 
BRANCH  15  16
HETATM   16  C   UNL     1      42.531  -9.062  12.870  1.00  0.00    -0.041 A 
HETATM   17  C   UNL     1      43.364  -7.949  13.038  1.00  0.00     0.009 A 
HETATM   18  C   UNL     1      43.235  -7.124  14.158  1.00  0.00     0.007 A 
HETATM   19  C   UNL     1      42.270  -7.398  15.133  1.00  0.00    -0.062 A 
HETATM   20  C   UNL     1      42.090  -6.490  16.313  1.00  0.00     0.048 C 
HETATM   21  C   UNL     1      41.432  -8.506  14.966  1.00  0.00     0.007 A 
HETATM   22  C   UNL     1      41.563  -9.332  13.847  1.00  0.00     0.009 A 
ENDBRANCH  15  16
ENDBRANCH  12  15
ENDBRANCH  10  11
ENDBRANCH   9  10
ENDBRANCH   1   9
BRANCH   3  23
HETATM   23  N   UNL     1      39.527 -13.617   6.031  1.00  0.00    -0.285 NA
HETATM   24  H   UNL     1      39.875 -14.214   6.781  1.00  0.00     0.125 HD
HETATM   25  H   UNL     1      38.545 -13.420   6.218  1.00  0.00     0.125 HD
ENDBRANCH   3  23
BRANCH   4  26
HETATM   26  N   UNL     1      42.211 -13.614   5.385  1.00  0.00    -0.314 N 
HETATM   27  C   UNL     1      43.044 -14.360   6.194  1.00  0.00     0.280 C 
HETATM   28  O   UNL     1      43.362 -14.068   7.340  1.00  0.00    -0.265 OA
HETATM   29  H   UNL     1      41.837 -14.109   4.580  1.00  0.00     0.169 HD
BRANCH  27  30
HETATM   30  C   UNL     1      43.452 -15.611   5.580  1.00  0.00     0.144 A 
HETATM   31  O   UNL     1      42.988 -15.930   4.329  1.00  0.00    -0.298 OA
HETATM   32  C   UNL     1      43.480 -17.161   4.022  1.00  0.00     0.122 A 
HETATM   33 BR   UNL     1      43.116 -18.063   2.430  1.00  0.00    -0.023 Br
HETATM   34  C   UNL     1      44.264 -17.636   5.047  1.00  0.00     0.048 A 
HETATM   35  C   UNL     1      44.248 -16.638   6.052  1.00  0.00     0.046 A 
ENDBRANCH  27  30
ENDBRANCH   4  26
TORSDOF 8
ENDMDL
MODEL 5
REMARK VINA RESULT:      -8.6      4.320     11.068
REMARK  8 active torsions:
REMARK  status: ('A' for Active; 'I' for Inactive)
REMARK    1  A    between atoms: C_5  and  C_6 
REMARK    2  A    between atoms: C_6  and  N_7 
REMARK       I    between atoms: N_7  and  C_8 
REMARK    3  A    between atoms: C_8  and  C_9 
REMARK    4  A    between atoms: C_9  and  S_10 
REMARK    5  A    between atoms: S_10  and  C_11 
REMARK    6  A    between atoms: C_13  and  N_14 
REMARK    7  A    between atoms: C_15  and  N_16 
REMARK       I    between atoms: N_16  and  C_17 
REMARK    8  A    between atoms: C_17  and  C_18 
ROOT
HETATM    1  C   UNL     1      41.114 -11.116   6.313  1.00  0.00     0.171 C 
HETATM    2  N   UNL     1      40.287 -12.101   6.341  1.00  0.00    -0.210 NA
HETATM    3  C   UNL     1      40.730 -13.314   5.878  1.00  0.00     0.136 C 
HETATM    4  C   UNL     1      41.949 -13.484   5.311  1.00  0.00     0.144 C 
HETATM    5  C   UNL     1      42.722 -12.236   5.033  1.00  0.00     0.277 C 
HETATM    6  O   UNL     1      43.507 -12.105   4.101  1.00  0.00    -0.266 OA
HETATM    7  N   UNL     1      42.365 -11.169   5.800  1.00  0.00    -0.300 N 
HETATM    8  H   UNL     1      42.861 -10.306   5.641  1.00  0.00     0.171 HD
ENDROOT
BRANCH   1   9
HETATM    9  S   UNL     1      40.712  -9.562   6.969  1.00  0.00    -0.083 SA
BRANCH   9  10
HETATM   10  C   UNL     1      42.364  -8.980   7.438  1.00  0.00     0.185 C 
BRANCH  10  11
HETATM   11  C   UNL     1      42.991  -9.712   8.614  1.00  0.00     0.227 C 
HETATM   12  N   UNL     1      42.300  -9.667   9.803  1.00  0.00    -0.356 N 
HETATM   13  H   UNL     1      41.670  -8.882   9.930  1.00  0.00     0.162 HD
HETATM   14  O   UNL     1      44.014 -10.382   8.469  1.00  0.00    -0.273 OA
BRANCH  12  15
HETATM   15  C   UNL     1      42.895 -10.229  10.994  1.00  0.00     0.161 C 
BRANCH  15  16
HETATM   16  C   UNL     1      42.698  -9.348  12.198  1.00  0.00    -0.041 A 
HETATM   17  C   UNL     1      41.744  -9.673  13.172  1.00  0.00     0.009 A 
HETATM   18  C   UNL     1      41.599  -8.887  14.318  1.00  0.00     0.007 A 
HETATM   19  C   UNL     1      42.406  -7.761  14.512  1.00  0.00    -0.062 A 
HETATM   20  C   UNL     1      42.293  -6.941  15.762  1.00  0.00     0.048 C 
HETATM   21  C   UNL     1      43.364  -7.438  13.545  1.00  0.00     0.007 A 
HETATM   22  C   UNL     1      43.506  -8.222  12.397  1.00  0.00     0.009 A 
ENDBRANCH  15  16
ENDBRANCH  12  15
ENDBRANCH  10  11
ENDBRANCH   9  10
ENDBRANCH   1   9
BRANCH   3  23
HETATM   23  N   UNL     1      39.880 -14.400   6.059  1.00  0.00    -0.285 NA
HETATM   24  H   UNL     1      39.727 -14.487   7.064  1.00  0.00     0.125 HD
HETATM   25  H   UNL     1      38.979 -14.217   5.621  1.00  0.00     0.125 HD
ENDBRANCH   3  23
BRANCH   4  26
HETATM   26  N   UNL     1      42.412 -14.750   5.016  1.00  0.00    -0.314 N 
HETATM   27  C   UNL     1      42.469 -15.353   3.775  1.00  0.00     0.280 C 
HETATM   28  O   UNL     1      42.089 -14.847   2.727  1.00  0.00    -0.265 OA
HETATM   29  H   UNL     1      42.996 -15.178   5.729  1.00  0.00     0.169 HD
BRANCH  27  30
HETATM   30  C   UNL     1      43.125 -16.648   3.810  1.00  0.00     0.144 A 
HETATM   31  O   UNL     1      42.887 -17.551   2.806  1.00  0.00    -0.298 OA
HETATM   32  C   UNL     1      43.580 -18.682   3.112  1.00  0.00     0.122 A 
HETATM   33 BR   UNL     1      43.567 -20.228   2.069  1.00  0.00    -0.023 Br
HETATM   34  C   UNL     1      44.271 -18.519   4.289  1.00  0.00     0.048 A 
HETATM   35  C   UNL     1      43.980 -17.209   4.741  1.00  0.00     0.046 A 
ENDBRANCH  27  30
ENDBRANCH   4  26
TORSDOF 8
ENDMDL
MODEL 6
REMARK VINA RESULT:      -8.4      6.339      9.680
REMARK  8 active torsions:
REMARK  status: ('A' for Active; 'I' for Inactive)
REMARK    1  A    between atoms: C_5  and  C_6 
REMARK    2  A    between atoms: C_6  and  N_7 
REMARK       I    between atoms: N_7  and  C_8 
REMARK    3  A    between atoms: C_8  and  C_9 
REMARK    4  A    between atoms: C_9  and  S_10 
REMARK    5  A    between atoms: S_10  and  C_11 
REMARK    6  A    between atoms: C_13  and  N_14 
REMARK    7  A    between atoms: C_15  and  N_16 
REMARK       I    between atoms: N_16  and  C_17 
REMARK    8  A    between atoms: C_17  and  C_18 
ROOT
HETATM    1  C   UNL     1      41.649 -12.394   4.673  1.00  0.00     0.171 C 
HETATM    2  N   UNL     1      42.137 -11.712   3.697  1.00  0.00    -0.210 NA
HETATM    3  C   UNL     1      41.588 -11.902   2.454  1.00  0.00     0.136 C 
HETATM    4  C   UNL     1      40.637 -12.835   2.205  1.00  0.00     0.144 C 
HETATM    5  C   UNL     1      40.351 -13.791   3.317  1.00  0.00     0.277 C 
HETATM    6  O   UNL     1      39.994 -14.951   3.151  1.00  0.00    -0.266 OA
HETATM    7  N   UNL     1      40.681 -13.332   4.555  1.00  0.00    -0.300 N 
HETATM    8  H   UNL     1      40.506 -13.949   5.333  1.00  0.00     0.171 HD
ENDROOT
BRANCH   1   9
HETATM    9  S   UNL     1      42.182 -12.166   6.308  1.00  0.00    -0.083 SA
BRANCH   9  10
HETATM   10  C   UNL     1      43.719 -13.127   6.275  1.00  0.00     0.185 C 
BRANCH  10  11
HETATM   11  C   UNL     1      43.598 -14.547   6.804  1.00  0.00     0.227 C 
HETATM   12  N   UNL     1      43.980 -15.555   5.948  1.00  0.00    -0.356 N 
HETATM   13  H   UNL     1      43.944 -15.343   4.957  1.00  0.00     0.162 HD
HETATM   14  O   UNL     1      43.264 -14.761   7.969  1.00  0.00    -0.273 OA
BRANCH  12  15
HETATM   15  C   UNL     1      43.774 -16.932   6.332  1.00  0.00     0.161 C 
BRANCH  15  16
HETATM   16  C   UNL     1      43.702 -17.850   5.142  1.00  0.00    -0.041 A 
HETATM   17  C   UNL     1      43.405 -17.347   3.869  1.00  0.00     0.009 A 
HETATM   18  C   UNL     1      43.395 -18.190   2.754  1.00  0.00     0.007 A 
HETATM   19  C   UNL     1      43.680 -19.552   2.893  1.00  0.00    -0.062 A 
HETATM   20  C   UNL     1      43.721 -20.455   1.696  1.00  0.00     0.048 C 
HETATM   21  C   UNL     1      43.983 -20.056   4.162  1.00  0.00     0.007 A 
HETATM   22  C   UNL     1      43.991 -19.214   5.277  1.00  0.00     0.009 A 
ENDBRANCH  15  16
ENDBRANCH  12  15
ENDBRANCH  10  11
ENDBRANCH   9  10
ENDBRANCH   1   9
BRANCH   3  23
HETATM   23  N   UNL     1      42.018 -11.048   1.445  1.00  0.00    -0.285 NA
HETATM   24  H   UNL     1      41.377 -10.255   1.439  1.00  0.00     0.125 HD
HETATM   25  H   UNL     1      42.950 -10.694   1.658  1.00  0.00     0.125 HD
ENDBRANCH   3  23
BRANCH   4  26
HETATM   26  N   UNL     1      39.999 -12.872   0.982  1.00  0.00    -0.314 N 
HETATM   27  C   UNL     1      40.107 -13.846   0.010  1.00  0.00     0.280 C 
HETATM   28  O   UNL     1      40.820 -14.839   0.083  1.00  0.00    -0.265 OA
HETATM   29  H   UNL     1      39.187 -12.267   0.895  1.00  0.00     0.169 HD
BRANCH  27  30
HETATM   30  C   UNL     1      39.202 -13.630  -1.105  1.00  0.00     0.144 A 
HETATM   31  O   UNL     1      38.535 -12.437  -1.210  1.00  0.00    -0.298 OA
HETATM   32  C   UNL     1      37.729 -12.524  -2.303  1.00  0.00     0.122 A 
HETATM   33 BR   UNL     1      36.585 -11.164  -2.868  1.00  0.00    -0.023 Br
HETATM   34  C   UNL     1      37.874 -13.748  -2.912  1.00  0.00     0.048 A 
HETATM   35  C   UNL     1      38.825 -14.463  -2.142  1.00  0.00     0.046 A 
ENDBRANCH  27  30
ENDBRANCH   4  26
TORSDOF 8
ENDMDL
MODEL 7
REMARK VINA RESULT:      -8.3      3.896      5.562
REMARK  8 active torsions:
REMARK  status: ('A' for Active; 'I' for Inactive)
REMARK    1  A    between atoms: C_5  and  C_6 
REMARK    2  A    between atoms: C_6  and  N_7 
REMARK       I    between atoms: N_7  and  C_8 
REMARK    3  A    between atoms: C_8  and  C_9 
REMARK    4  A    between atoms: C_9  and  S_10 
REMARK    5  A    between atoms: S_10  and  C_11 
REMARK    6  A    between atoms: C_13  and  N_14 
REMARK    7  A    between atoms: C_15  and  N_16 
REMARK       I    between atoms: N_16  and  C_17 
REMARK    8  A    between atoms: C_17  and  C_18 
ROOT
HETATM    1  C   UNL     1      39.365 -11.425   3.681  1.00  0.00     0.171 C 
HETATM    2  N   UNL     1      39.673 -10.216   3.998  1.00  0.00    -0.210 NA
HETATM    3  C   UNL     1      40.465 -10.033   5.103  1.00  0.00     0.136 C 
HETATM    4  C   UNL     1      40.844 -11.051   5.914  1.00  0.00     0.144 C 
HETATM    5  C   UNL     1      40.191 -12.370   5.656  1.00  0.00     0.277 C 
HETATM    6  O   UNL     1      39.957 -13.203   6.524  1.00  0.00    -0.266 OA
HETATM    7  N   UNL     1      39.707 -12.523   4.393  1.00  0.00    -0.300 N 
HETATM    8  H   UNL     1      39.256 -13.399   4.180  1.00  0.00     0.171 HD
ENDROOT
BRANCH   1   9
HETATM    9  S   UNL     1      38.463 -11.795   2.247  1.00  0.00    -0.083 SA
BRANCH   9  10
HETATM   10  C   UNL     1      39.824 -12.120   1.094  1.00  0.00     0.185 C 
BRANCH  10  11
HETATM   11  C   UNL     1      40.119 -13.592   0.849  1.00  0.00     0.227 C 
HETATM   12  N   UNL     1      39.559 -14.484   1.735  1.00  0.00    -0.356 N 
HETATM   13  H   UNL     1      39.333 -14.125   2.656  1.00  0.00     0.162 HD
HETATM   14  O   UNL     1      40.748 -13.953  -0.145  1.00  0.00    -0.273 OA
BRANCH  12  15
HETATM   15  C   UNL     1      39.898 -15.885   1.643  1.00  0.00     0.161 C 
BRANCH  15  16
HETATM   16  C   UNL     1      41.001 -16.267   2.593  1.00  0.00    -0.041 A 
HETATM   17  C   UNL     1      42.234 -16.725   2.110  1.00  0.00     0.009 A 
HETATM   18  C   UNL     1      43.277 -17.025   2.989  1.00  0.00     0.007 A 
HETATM   19  C   UNL     1      43.107 -16.874   4.369  1.00  0.00    -0.062 A 
HETATM   20  C   UNL     1      44.236 -17.146   5.318  1.00  0.00     0.048 C 
HETATM   21  C   UNL     1      41.879 -16.411   4.855  1.00  0.00     0.007 A 
HETATM   22  C   UNL     1      40.835 -16.114   3.976  1.00  0.00     0.009 A 
ENDBRANCH  15  16
ENDBRANCH  12  15
ENDBRANCH  10  11
ENDBRANCH   9  10
ENDBRANCH   1   9
BRANCH   3  23
HETATM   23  N   UNL     1      40.917  -8.740   5.340  1.00  0.00    -0.285 NA
HETATM   24  H   UNL     1      40.331  -8.118   4.782  1.00  0.00     0.125 HD
HETATM   25  H   UNL     1      40.786  -8.497   6.320  1.00  0.00     0.125 HD
ENDBRANCH   3  23
BRANCH   4  26
HETATM   26  N   UNL     1      41.774 -10.841   6.911  1.00  0.00    -0.314 N 
HETATM   27  C   UNL     1      43.144 -10.989   6.822  1.00  0.00     0.280 C 
HETATM   28  O   UNL     1      43.751 -11.356   5.823  1.00  0.00    -0.265 OA
HETATM   29  H   UNL     1      41.453 -10.286   7.698  1.00  0.00     0.169 HD
BRANCH  27  30
HETATM   30  C   UNL     1      43.834 -10.569   8.028  1.00  0.00     0.144 A 
HETATM   31  O   UNL     1      43.121  -9.989   9.046  1.00  0.00    -0.298 OA
HETATM   32  C   UNL     1      44.011  -9.652  10.018  1.00  0.00     0.122 A 
HETATM   33 BR   UNL     1      43.545  -8.804  11.612  1.00  0.00    -0.023 Br
HETATM   34  C   UNL     1      45.285 -10.016   9.651  1.00  0.00     0.048 A 
HETATM   35  C   UNL     1      45.173 -10.608   8.369  1.00  0.00     0.046 A 
ENDBRANCH  27  30
ENDBRANCH   4  26
TORSDOF 8
ENDMDL
MODEL 8
REMARK VINA RESULT:      -8.3      4.115     11.065
REMARK  8 active torsions:
REMARK  status: ('A' for Active; 'I' for Inactive)
REMARK    1  A    between atoms: C_5  and  C_6 
REMARK    2  A    between atoms: C_6  and  N_7 
REMARK       I    between atoms: N_7  and  C_8 
REMARK    3  A    between atoms: C_8  and  C_9 
REMARK    4  A    between atoms: C_9  and  S_10 
REMARK    5  A    between atoms: S_10  and  C_11 
REMARK    6  A    between atoms: C_13  and  N_14 
REMARK    7  A    between atoms: C_15  and  N_16 
REMARK       I    between atoms: N_16  and  C_17 
REMARK    8  A    between atoms: C_17  and  C_18 
ROOT
HETATM    1  C   UNL     1      40.317 -12.268   5.888  1.00  0.00     0.171 C 
HETATM    2  N   UNL     1      39.809 -12.760   4.812  1.00  0.00    -0.210 NA
HETATM    3  C   UNL     1      40.384 -13.895   4.302  1.00  0.00     0.136 C 
HETATM    4  C   UNL     1      41.506 -14.450   4.822  1.00  0.00     0.144 C 
HETATM    5  C   UNL     1      42.207 -13.647   5.870  1.00  0.00     0.277 C 
HETATM    6  O   UNL     1      43.419 -13.663   6.053  1.00  0.00    -0.266 OA
HETATM    7  N   UNL     1      41.415 -12.747   6.515  1.00  0.00    -0.300 N 
HETATM    8  H   UNL     1      41.852 -12.183   7.228  1.00  0.00     0.171 HD
ENDROOT
BRANCH   1   9
HETATM    9  S   UNL     1      39.615 -10.900   6.691  1.00  0.00    -0.083 SA
BRANCH   9  10
HETATM   10  C   UNL     1      40.881  -9.649   6.346  1.00  0.00     0.185 C 
BRANCH  10  11
HETATM   11  C   UNL     1      42.095  -9.696   7.261  1.00  0.00     0.227 C 
HETATM   12  N   UNL     1      41.922  -9.206   8.535  1.00  0.00    -0.356 N 
HETATM   13  H   UNL     1      41.177  -8.528   8.660  1.00  0.00     0.162 HD
HETATM   14  O   UNL     1      43.140 -10.234   6.896  1.00  0.00    -0.273 OA
BRANCH  12  15
HETATM   15  C   UNL     1      43.061  -9.100   9.417  1.00  0.00     0.161 C 
BRANCH  15  16
HETATM   16  C   UNL     1      42.652  -8.928  10.855  1.00  0.00    -0.041 A 
HETATM   17  C   UNL     1      41.479  -9.521  11.340  1.00  0.00     0.009 A 
HETATM   18  C   UNL     1      41.128  -9.409  12.688  1.00  0.00     0.007 A 
HETATM   19  C   UNL     1      41.944  -8.700  13.577  1.00  0.00    -0.062 A 
HETATM   20  C   UNL     1      41.603  -8.617  15.035  1.00  0.00     0.048 C 
HETATM   21  C   UNL     1      43.120  -8.112  13.097  1.00  0.00     0.007 A 
HETATM   22  C   UNL     1      43.468  -8.222  11.748  1.00  0.00     0.009 A 
ENDBRANCH  15  16
ENDBRANCH  12  15
ENDBRANCH  10  11
ENDBRANCH   9  10
ENDBRANCH   1   9
BRANCH   3  23
HETATM   23  N   UNL     1      39.730 -14.501   3.235  1.00  0.00    -0.285 NA
HETATM   24  H   UNL     1      38.878 -13.965   3.071  1.00  0.00     0.125 HD
HETATM   25  H   UNL     1      40.303 -14.442   2.394  1.00  0.00     0.125 HD
ENDBRANCH   3  23
BRANCH   4  26
HETATM   26  N   UNL     1      41.947 -15.680   4.381  1.00  0.00    -0.314 N 
HETATM   27  C   UNL     1      42.873 -15.931   3.388  1.00  0.00     0.280 C 
HETATM   28  O   UNL     1      43.442 -15.076   2.721  1.00  0.00    -0.265 OA
HETATM   29  H   UNL     1      41.770 -16.458   5.009  1.00  0.00     0.169 HD
BRANCH  27  30
HETATM   30  C   UNL     1      43.193 -17.341   3.262  1.00  0.00     0.144 A 
HETATM   31  O   UNL     1      43.499 -18.067   4.384  1.00  0.00    -0.298 OA
HETATM   32  C   UNL     1      43.803 -19.329   3.976  1.00  0.00     0.122 A 
HETATM   33 BR   UNL     1      44.317 -20.703   5.127  1.00  0.00    -0.023 Br
HETATM   34  C   UNL     1      43.685 -19.434   2.610  1.00  0.00     0.048 A 
HETATM   35  C   UNL     1      43.291 -18.154   2.147  1.00  0.00     0.046 A 
ENDBRANCH  27  30
ENDBRANCH   4  26
TORSDOF 8
ENDMDL
MODEL 9
REMARK VINA RESULT:      -8.0      1.648      2.206
REMARK  8 active torsions:
REMARK  status: ('A' for Active; 'I' for Inactive)
REMARK    1  A    between atoms: C_5  and  C_6 
REMARK    2  A    between atoms: C_6  and  N_7 
REMARK       I    between atoms: N_7  and  C_8 
REMARK    3  A    between atoms: C_8  and  C_9 
REMARK    4  A    between atoms: C_9  and  S_10 
REMARK    5  A    between atoms: S_10  and  C_11 
REMARK    6  A    between atoms: C_13  and  N_14 
REMARK    7  A    between atoms: C_15  and  N_16 
REMARK       I    between atoms: N_16  and  C_17 
REMARK    8  A    between atoms: C_17  and  C_18 
ROOT
HETATM    1  C   UNL     1      42.598 -10.393   6.662  1.00  0.00     0.171 C 
HETATM    2  N   UNL     1      41.483  -9.834   6.978  1.00  0.00    -0.210 NA
HETATM    3  C   UNL     1      41.394  -9.253   8.217  1.00  0.00     0.136 C 
HETATM    4  C   UNL     1      42.384  -9.333   9.140  1.00  0.00     0.144 C 
HETATM    5  C   UNL     1      43.510 -10.258   8.813  1.00  0.00     0.277 C 
HETATM    6  O   UNL     1      44.159 -10.875   9.650  1.00  0.00    -0.266 OA
HETATM    7  N   UNL     1      43.666 -10.510   7.484  1.00  0.00    -0.300 N 
HETATM    8  H   UNL     1      44.414 -11.133   7.222  1.00  0.00     0.171 HD
ENDROOT
BRANCH   1   9
HETATM    9  S   UNL     1      42.873 -11.065   5.087  1.00  0.00    -0.083 SA
BRANCH   9  10
HETATM   10  C   UNL     1      42.112 -12.697   5.304  1.00  0.00     0.185 C 
BRANCH  10  11
HETATM   11  C   UNL     1      43.065 -13.795   5.747  1.00  0.00     0.227 C 
HETATM   12  N   UNL     1      42.951 -15.004   5.099  1.00  0.00    -0.356 N 
HETATM   13  H   UNL     1      42.050 -15.208   4.680  1.00  0.00     0.162 HD
HETATM   14  O   UNL     1      43.948 -13.570   6.574  1.00  0.00    -0.273 OA
BRANCH  12  15
HETATM   15  C   UNL     1      43.734 -16.131   5.551  1.00  0.00     0.161 C 
BRANCH  15  16
HETATM   16  C   UNL     1      43.747 -17.253   4.549  1.00  0.00    -0.041 A 
HETATM   17  C   UNL     1      44.161 -18.539   4.922  1.00  0.00     0.009 A 
HETATM   18  C   UNL     1      44.120 -19.594   4.007  1.00  0.00     0.007 A 
HETATM   19  C   UNL     1      43.666 -19.383   2.701  1.00  0.00    -0.062 A 
HETATM   20  C   UNL     1      43.570 -20.519   1.727  1.00  0.00     0.048 C 
HETATM   21  C   UNL     1      43.246 -18.101   2.327  1.00  0.00     0.007 A 
HETATM   22  C   UNL     1      43.290 -17.046   3.241  1.00  0.00     0.009 A 
ENDBRANCH  15  16
ENDBRANCH  12  15
ENDBRANCH  10  11
ENDBRANCH   9  10
ENDBRANCH   1   9
BRANCH   3  23
HETATM   23  N   UNL     1      40.243  -8.520   8.482  1.00  0.00    -0.285 NA
HETATM   24  H   UNL     1      40.394  -8.049   9.375  1.00  0.00     0.125 HD
HETATM   25  H   UNL     1      40.112  -7.804   7.769  1.00  0.00     0.125 HD
ENDBRANCH   3  23
BRANCH   4  26
HETATM   26  N   UNL     1      42.316  -8.593  10.303  1.00  0.00    -0.314 N 
HETATM   27  C   UNL     1      42.770  -7.304  10.502  1.00  0.00     0.280 C 
HETATM   28  O   UNL     1      43.332  -6.615   9.660  1.00  0.00    -0.265 OA
HETATM   29  H   UNL     1      41.650  -8.925  10.994  1.00  0.00     0.169 HD
BRANCH  27  30
HETATM   30  C   UNL     1      42.430  -6.786  11.815  1.00  0.00     0.144 A 
HETATM   31  O   UNL     1      42.342  -7.648  12.878  1.00  0.00    -0.298 OA
HETATM   32  C   UNL     1      41.965  -6.913  13.959  1.00  0.00     0.122 A 
HETATM   33 BR   UNL     1      41.677  -7.627  15.658  1.00  0.00    -0.023 Br
HETATM   34  C   UNL     1      41.821  -5.589  13.615  1.00  0.00     0.048 A 
HETATM   35  C   UNL     1      42.121  -5.505  12.234  1.00  0.00     0.046 A 
ENDBRANCH  27  30
ENDBRANCH   4  26
TORSDOF 8
ENDMDL
MODEL 10
REMARK VINA RESULT:      -8.0      1.649      2.110
REMARK  8 active torsions:
REMARK  status: ('A' for Active; 'I' for Inactive)
REMARK    1  A    between atoms: C_5  and  C_6 
REMARK    2  A    between atoms: C_6  and  N_7 
REMARK       I    between atoms: N_7  and  C_8 
REMARK    3  A    between atoms: C_8  and  C_9 
REMARK    4  A    between atoms: C_9  and  S_10 
REMARK    5  A    between atoms: S_10  and  C_11 
REMARK    6  A    between atoms: C_13  and  N_14 
REMARK    7  A    between atoms: C_15  and  N_16 
REMARK       I    between atoms: N_16  and  C_17 
REMARK    8  A    between atoms: C_17  and  C_18 
ROOT
HETATM    1  C   UNL     1      40.792 -10.776   6.440  1.00  0.00     0.171 C 
HETATM    2  N   UNL     1      42.014 -10.417   6.624  1.00  0.00    -0.210 NA
HETATM    3  C   UNL     1      42.308  -9.733   7.775  1.00  0.00     0.136 C 
HETATM    4  C   UNL     1      41.360  -9.342   8.661  1.00  0.00     0.144 C 
HETATM    5  C   UNL     1      39.942  -9.522   8.224  1.00  0.00     0.277 C 
HETATM    6  O   UNL     1      39.019  -8.791   8.565  1.00  0.00    -0.266 OA
HETATM    7  N   UNL     1      39.763 -10.471   7.264  1.00  0.00    -0.300 N 
HETATM    8  H   UNL     1      38.821 -10.620   6.939  1.00  0.00     0.171 HD
ENDROOT
BRANCH   1   9
HETATM    9  S   UNL     1      40.313 -11.738   5.079  1.00  0.00    -0.083 SA
BRANCH   9  10
HETATM   10  C   UNL     1      41.879 -12.578   4.721  1.00  0.00     0.185 C 
BRANCH  10  11
HETATM   11  C   UNL     1      42.115 -13.858   5.507  1.00  0.00     0.227 C 
HETATM   12  N   UNL     1      43.210 -14.608   5.143  1.00  0.00    -0.356 N 
HETATM   13  H   UNL     1      43.542 -14.490   4.192  1.00  0.00     0.162 HD
HETATM   14  O   UNL     1      41.409 -14.144   6.474  1.00  0.00    -0.273 OA
BRANCH  12  15
HETATM   15  C   UNL     1      43.425 -15.898   5.758  1.00  0.00     0.161 C 
BRANCH  15  16
HETATM   16  C   UNL     1      43.431 -17.014   4.749  1.00  0.00    -0.041 A 
HETATM   17  C   UNL     1      42.779 -16.868   3.517  1.00  0.00     0.009 A 
HETATM   18  C   UNL     1      42.833 -17.882   2.558  1.00  0.00     0.007 A 
HETATM   19  C   UNL     1      43.537 -19.063   2.812  1.00  0.00    -0.062 A 
HETATM   20  C   UNL     1      43.643 -20.136   1.770  1.00  0.00     0.048 C 
HETATM   21  C   UNL     1      44.195 -19.210   4.039  1.00  0.00     0.007 A 
HETATM   22  C   UNL     1      44.139 -18.197   5.000  1.00  0.00     0.009 A 
ENDBRANCH  15  16
ENDBRANCH  12  15
ENDBRANCH  10  11
ENDBRANCH   9  10
ENDBRANCH   1   9
BRANCH   3  23
HETATM   23  N   UNL     1      43.653  -9.493   8.033  1.00  0.00    -0.285 NA
HETATM   24  H   UNL     1      43.690  -8.745   8.726  1.00  0.00     0.125 HD
HETATM   25  H   UNL     1      44.085 -10.320   8.441  1.00  0.00     0.125 HD
ENDBRANCH   3  23
BRANCH   4  26
HETATM   26  N   UNL     1      41.721  -8.809   9.881  1.00  0.00    -0.314 N 
HETATM   27  C   UNL     1      41.275  -9.197  11.129  1.00  0.00     0.280 C 
HETATM   28  O   UNL     1      40.458 -10.083  11.343  1.00  0.00    -0.265 OA
HETATM   29  H   UNL     1      42.575  -8.259   9.882  1.00  0.00     0.169 HD
BRANCH  27  30
HETATM   30  C   UNL     1      41.952  -8.500  12.208  1.00  0.00     0.144 A 
HETATM   31  O   UNL     1      41.218  -7.996  13.251  1.00  0.00    -0.298 OA
HETATM   32  C   UNL     1      42.087  -7.359  14.082  1.00  0.00     0.122 A 
HETATM   33 BR   UNL     1      41.580  -6.476  15.645  1.00  0.00    -0.023 Br
HETATM   34  C   UNL     1      43.371  -7.454  13.601  1.00  0.00     0.048 A 
HETATM   35  C   UNL     1      43.287  -8.190  12.393  1.00  0.00     0.046 A 
ENDBRANCH  27  30
ENDBRANCH   4  26
TORSDOF 8
ENDMDL
