MODEL 1
REMARK VINA RESULT:      -7.2      0.000      0.000
REMARK  11 active torsions:
REMARK  status: ('A' for Active; 'I' for Inactive)
REMARK    1  A    between atoms: C_1  and  C_17 
REMARK    2  A    between atoms: C_1  and  S_18 
REMARK    3  A    between atoms: C_2  and  N_23 
REMARK    4  A    between atoms: C_3  and  C_13 
REMARK    5  A    between atoms: C_6  and  S_18 
REMARK    6  A    between atoms: C_6  and  S_19 
REMARK    7  A    between atoms: C_7  and  C_20 
REMARK    8  A    between atoms: C_7  and  C_21 
REMARK    9  A    between atoms: C_9  and  C_24 
REMARK   10  A    between atoms: C_16  and  C_17 
REMARK   11  A    between atoms: S_19  and  C_20 
ROOT
HETATM    1  C           1      40.507 -13.613   5.633  0.00  0.00     0.092 C 
HETATM    2  C           1      42.834 -14.096   6.022  0.00  0.00     0.156 C 
HETATM    3  C           1      40.943 -14.596   4.582  0.00  0.00     0.127 C 
HETATM    4  C           1      42.470 -14.379   4.520  0.00  0.00     0.136 C 
HETATM    5  C           1      42.839 -13.184   3.709  0.00  0.00     0.079 C 
HETATM    6  N           1      43.093 -12.304   2.996  0.00  0.00    -0.196 NA
HETATM    7  C           1      40.350 -14.798   3.126  0.00  0.00     0.248 C 
HETATM    8  C           1      42.334 -16.280   2.816  0.00  0.00     0.105 C 
HETATM    9  N           1      41.525 -13.380   6.420  0.00  0.00    -0.350 N 
HETATM   10  N           1      40.931 -16.098   2.475  0.00  0.00    -0.040 N 
HETATM   11  C           1      43.014 -17.401   2.067  0.00  0.00     0.075 C 
HETATM   12  C           1      43.019 -15.558   3.736  0.00  0.00     0.036 C 
HETATM   13  H           1      41.459 -12.760   7.238  0.00  0.00     0.163 HD
HETATM   14  H           1      40.366 -16.936   2.729  0.00  0.00     0.284 HD
HETATM   15  H           1      40.858 -15.991   1.437  0.00  0.00     0.284 HD
ENDROOT
BRANCH   2  16
HETATM   16  S           1      44.205 -12.914   6.237  0.00  0.00    -0.125 SA
BRANCH  16  17
HETATM   17  C           1      43.389 -11.486   7.012  0.00  0.00     0.077 C 
BRANCH  17  18
HETATM   18  C           1      44.282 -10.958   8.147  0.00  0.00     0.010 C 
BRANCH  18  19
HETATM   19  C           1      45.720 -10.706   7.664  0.00  0.00    -0.004 C 
HETATM   20  C           1      46.219  -9.310   8.060  0.00  0.00     0.005 C 
ENDBRANCH  18  19
ENDBRANCH  17  18
ENDBRANCH  16  17
ENDBRANCH   2  16
BRANCH   2  21
HETATM   21  S           1      42.982 -15.661   6.950  0.00  0.00    -0.125 SA
BRANCH  21  22
HETATM   22  C           1      44.706 -16.110   6.576  0.00  0.00     0.077 C 
BRANCH  22  23
HETATM   23  C           1      44.707 -17.293   5.594  0.00  0.00     0.010 C 
BRANCH  23  24
HETATM   24  C           1      43.619 -18.321   5.945  0.00  0.00    -0.004 C 
HETATM   25  C           1      43.937 -19.709   5.372  0.00  0.00     0.005 C 
ENDBRANCH  23  24
ENDBRANCH  22  23
ENDBRANCH  21  22
ENDBRANCH   2  21
BRANCH   3  26
HETATM   26  C           1      40.606 -15.975   5.040  0.00  0.00     0.105 C 
HETATM   27  N           1      39.882 -16.456   5.807  0.00  0.00    -0.151 N 
ENDBRANCH   3  26
BRANCH   1  28
HETATM   28  N           1      39.338 -13.155   5.794  0.00  0.00    -0.388 N 
HETATM   29  H           1      38.500 -13.682   5.445  0.00  0.00     0.157 HD
HETATM   30  H           1      39.187 -12.235   6.277  0.00  0.00     0.157 HD
ENDBRANCH   1  28
BRANCH   7  31
HETATM   31  C           1      40.455 -13.608   2.184  0.00  0.00    -0.026 A 
HETATM   32  C           1      39.894 -12.434   2.531  0.00  0.00     0.009 A 
HETATM   33  C           1      39.954 -11.359   1.729  0.00  0.00     0.001 A 
HETATM   34  C           1      40.578 -11.441   0.546  0.00  0.00     0.000 A 
HETATM   35  C           1      41.135 -12.603   0.176  0.00  0.00     0.001 A 
HETATM   36  C           1      41.070 -13.671   0.987  0.00  0.00     0.009 A 
ENDBRANCH   7  31
TORSDOF 11
ENDMDL
MODEL 2
REMARK VINA RESULT:      -7.2     16.299     18.168
REMARK  11 active torsions:
REMARK  status: ('A' for Active; 'I' for Inactive)
REMARK    1  A    between atoms: C_1  and  C_17 
REMARK    2  A    between atoms: C_1  and  S_18 
REMARK    3  A    between atoms: C_2  and  N_23 
REMARK    4  A    between atoms: C_3  and  C_13 
REMARK    5  A    between atoms: C_6  and  S_18 
REMARK    6  A    between atoms: C_6  and  S_19 
REMARK    7  A    between atoms: C_7  and  C_20 
REMARK    8  A    between atoms: C_7  and  C_21 
REMARK    9  A    between atoms: C_9  and  C_24 
REMARK   10  A    between atoms: C_16  and  C_17 
REMARK   11  A    between atoms: S_19  and  C_20 
ROOT
HETATM    1  C           1      47.980 -28.739  -0.004  0.00  0.00     0.092 C 
HETATM    2  C           1      48.736 -31.026   0.019  0.00  0.00     0.156 C 
HETATM    3  C           1      46.776 -29.607   0.231  0.00  0.00     0.127 C 
HETATM    4  C           1      47.211 -30.967  -0.356  0.00  0.00     0.136 C 
HETATM    5  C           1      47.086 -31.008  -1.841  0.00  0.00     0.079 C 
HETATM    6  N           1      46.889 -31.037  -2.984  0.00  0.00    -0.196 NA
HETATM    7  C           1      45.263 -29.302  -0.136  0.00  0.00     0.248 C 
HETATM    8  C           1      44.910 -31.692   0.491  0.00  0.00     0.105 C 
HETATM    9  N           1      49.031 -29.513  -0.081  0.00  0.00    -0.350 N 
HETATM   10  N           1      44.317 -30.363   0.519  0.00  0.00    -0.040 N 
HETATM   11  C           1      43.977 -32.797   0.925  0.00  0.00     0.075 C 
HETATM   12  C           1      46.189 -31.973   0.143  0.00  0.00     0.036 C 
HETATM   13  H           1      49.982 -29.142  -0.208  0.00  0.00     0.163 HD
HETATM   14  H           1      44.049 -30.087   1.488  0.00  0.00     0.284 HD
HETATM   15  H           1      43.434 -30.387  -0.040  0.00  0.00     0.284 HD
ENDROOT
BRANCH   2  16
HETATM   16  S           1      49.766 -31.880  -1.219  0.00  0.00    -0.125 SA
BRANCH  16  17
HETATM   17  C           1      50.791 -30.535  -1.887  0.00  0.00     0.077 C 
BRANCH  17  18
HETATM   18  C           1      52.192 -31.086  -2.201  0.00  0.00     0.010 C 
BRANCH  18  19
HETATM   19  C           1      52.588 -32.211  -1.229  0.00  0.00    -0.004 C 
HETATM   20  C           1      54.027 -32.690  -1.465  0.00  0.00     0.005 C 
ENDBRANCH  18  19
ENDBRANCH  17  18
ENDBRANCH  16  17
ENDBRANCH   2  16
BRANCH   2  21
HETATM   21  S           1      48.948 -31.577   1.746  0.00  0.00    -0.125 SA
BRANCH  21  22
HETATM   22  C           1      50.721 -31.240   1.989  0.00  0.00     0.077 C 
BRANCH  22  23
HETATM   23  C           1      50.869 -30.025   2.920  0.00  0.00     0.010 C 
BRANCH  23  24
HETATM   24  C           1      50.307 -30.313   4.321  0.00  0.00    -0.004 C 
HETATM   25  C           1      51.349 -30.981   5.230  0.00  0.00     0.005 C 
ENDBRANCH  23  24
ENDBRANCH  22  23
ENDBRANCH  21  22
ENDBRANCH   2  21
BRANCH   3  26
HETATM   26  C           1      46.525 -29.701   1.698  0.00  0.00     0.105 C 
HETATM   27  N           1      46.577 -28.988   2.610  0.00  0.00    -0.151 N 
ENDBRANCH   3  26
BRANCH   1  28
HETATM   28  N           1      48.001 -27.473  -0.031  0.00  0.00    -0.388 N 
HETATM   29  H           1      47.374 -26.912   0.596  0.00  0.00     0.157 HD
HETATM   30  H           1      48.642 -26.963  -0.687  0.00  0.00     0.157 HD
ENDBRANCH   1  28
BRANCH   7  31
HETATM   31  C           1      44.952 -29.115  -1.613  0.00  0.00    -0.026 A 
HETATM   32  C           1      45.545 -28.117  -2.296  0.00  0.00     0.009 A 
HETATM   33  C           1      45.295 -27.908  -3.599  0.00  0.00     0.001 A 
HETATM   34  C           1      44.432 -28.699  -4.250  0.00  0.00     0.000 A 
HETATM   35  C           1      43.823 -29.693  -3.587  0.00  0.00     0.001 A 
HETATM   36  C           1      44.082 -29.893  -2.285  0.00  0.00     0.009 A 
ENDBRANCH   7  31
TORSDOF 11
ENDMDL
MODEL 3
REMARK VINA RESULT:      -6.8      2.449      4.802
REMARK  11 active torsions:
REMARK  status: ('A' for Active; 'I' for Inactive)
REMARK    1  A    between atoms: C_1  and  C_17 
REMARK    2  A    between atoms: C_1  and  S_18 
REMARK    3  A    between atoms: C_2  and  N_23 
REMARK    4  A    between atoms: C_3  and  C_13 
REMARK    5  A    between atoms: C_6  and  S_18 
REMARK    6  A    between atoms: C_6  and  S_19 
REMARK    7  A    between atoms: C_7  and  C_20 
REMARK    8  A    between atoms: C_7  and  C_21 
REMARK    9  A    between atoms: C_9  and  C_24 
REMARK   10  A    between atoms: C_16  and  C_17 
REMARK   11  A    between atoms: S_19  and  C_20 
ROOT
HETATM    1  C           1      39.379 -13.236   2.442  0.00  0.00     0.092 C 
HETATM    2  C           1      40.827 -14.919   3.374  0.00  0.00     0.156 C 
HETATM    3  C           1      40.688 -12.572   2.763  0.00  0.00     0.127 C 
HETATM    4  C           1      41.284 -13.493   3.850  0.00  0.00     0.136 C 
HETATM    5  C           1      40.698 -13.232   5.196  0.00  0.00     0.079 C 
HETATM    6  N           1      40.289 -12.940   6.242  0.00  0.00    -0.196 NA
HETATM    7  C           1      40.953 -11.050   3.119  0.00  0.00     0.248 C 
HETATM    8  C           1      43.244 -11.860   3.689  0.00  0.00     0.105 C 
HETATM    9  N           1      39.480 -14.504   2.744  0.00  0.00    -0.350 N 
HETATM   10  N           1      42.489 -10.749   3.127  0.00  0.00    -0.040 N 
HETATM   11  C           1      44.708 -11.566   3.911  0.00  0.00     0.075 C 
HETATM   12  C           1      42.740 -13.084   3.980  0.00  0.00     0.036 C 
HETATM   13  H           1      38.715 -15.172   2.581  0.00  0.00     0.163 HD
HETATM   14  H           1      42.833 -10.499   2.176  0.00  0.00     0.284 HD
HETATM   15  H           1      42.644  -9.911   3.731  0.00  0.00     0.284 HD
ENDROOT
BRANCH   2  16
HETATM   16  S           1      40.473 -16.073   4.740  0.00  0.00    -0.125 SA
BRANCH  16  17
HETATM   17  C           1      42.119 -16.377   5.449  0.00  0.00     0.077 C 
BRANCH  17  18
HETATM   18  C           1      42.048 -16.187   6.972  0.00  0.00     0.010 C 
BRANCH  18  19
HETATM   19  C           1      43.449 -16.046   7.590  0.00  0.00    -0.004 C 
HETATM   20  C           1      44.557 -16.303   6.559  0.00  0.00     0.005 C 
ENDBRANCH  18  19
ENDBRANCH  17  18
ENDBRANCH  16  17
ENDBRANCH   2  16
BRANCH   2  21
HETATM   21  S           1      41.943 -15.547   2.073  0.00  0.00    -0.125 SA
BRANCH  21  22
HETATM   22  C           1      41.757 -17.342   2.310  0.00  0.00     0.077 C 
BRANCH  22  23
HETATM   23  C           1      43.155 -17.979   2.372  0.00  0.00     0.010 C 
BRANCH  23  24
HETATM   24  C           1      43.110 -19.478   2.034  0.00  0.00    -0.004 C 
HETATM   25  C           1      43.783 -20.331   3.118  0.00  0.00     0.005 C 
ENDBRANCH  23  24
ENDBRANCH  22  23
ENDBRANCH  21  22
ENDBRANCH   2  21
BRANCH   3  26
HETATM   26  C           1      41.537 -12.557   1.537  0.00  0.00     0.105 C 
HETATM   27  N           1      41.371 -12.420   0.398  0.00  0.00    -0.151 N 
ENDBRANCH   3  26
BRANCH   1  28
HETATM   28  N           1      38.377 -12.693   1.890  0.00  0.00    -0.388 N 
HETATM   29  H           1      37.436 -13.156   1.908  0.00  0.00     0.157 HD
HETATM   30  H           1      38.473 -11.770   1.398  0.00  0.00     0.157 HD
ENDBRANCH   1  28
BRANCH   7  31
HETATM   31  C           1      40.276 -10.523   4.375  0.00  0.00    -0.026 A 
HETATM   32  C           1      41.024  -9.999   5.364  0.00  0.00     0.009 A 
HETATM   33  C           1      40.472  -9.529   6.494  0.00  0.00     0.001 A 
HETATM   34  C           1      39.144  -9.583   6.662  0.00  0.00     0.000 A 
HETATM   35  C           1      38.380 -10.110   5.694  0.00  0.00     0.001 A 
HETATM   36  C           1      38.944 -10.574   4.567  0.00  0.00     0.009 A 
ENDBRANCH   7  31
TORSDOF 11
ENDMDL
MODEL 4
REMARK VINA RESULT:      -6.7      2.077      3.441
REMARK  11 active torsions:
REMARK  status: ('A' for Active; 'I' for Inactive)
REMARK    1  A    between atoms: C_1  and  C_17 
REMARK    2  A    between atoms: C_1  and  S_18 
REMARK    3  A    between atoms: C_2  and  N_23 
REMARK    4  A    between atoms: C_3  and  C_13 
REMARK    5  A    between atoms: C_6  and  S_18 
REMARK    6  A    between atoms: C_6  and  S_19 
REMARK    7  A    between atoms: C_7  and  C_20 
REMARK    8  A    between atoms: C_7  and  C_21 
REMARK    9  A    between atoms: C_9  and  C_24 
REMARK   10  A    between atoms: C_16  and  C_17 
REMARK   11  A    between atoms: S_19  and  C_20 
ROOT
HETATM    1  C           1      40.331 -13.092   4.345  0.00  0.00     0.092 C 
HETATM    2  C           1      42.508 -12.935   3.327  0.00  0.00     0.156 C 
HETATM    3  C           1      40.125 -12.995   2.860  0.00  0.00     0.127 C 
HETATM    4  C           1      41.423 -12.313   2.375  0.00  0.00     0.136 C 
HETATM    5  C           1      41.398 -10.837   2.584  0.00  0.00     0.079 C 
HETATM    6  N           1      41.307  -9.684   2.676  0.00  0.00    -0.196 NA
HETATM    7  C           1      38.870 -12.417   2.081  0.00  0.00     0.248 C 
HETATM    8  C           1      40.345 -12.643   0.081  0.00  0.00     0.105 C 
HETATM    9  N           1      41.618 -13.093   4.579  0.00  0.00    -0.350 N 
HETATM   10  N           1      38.972 -12.749   0.555  0.00  0.00    -0.040 N 
HETATM   11  C           1      40.493 -12.756  -1.418  0.00  0.00     0.075 C 
HETATM   12  C           1      41.437 -12.487   0.867  0.00  0.00     0.036 C 
HETATM   13  H           1      42.006 -13.184   5.527  0.00  0.00     0.163 HD
HETATM   14  H           1      38.568 -13.685   0.341  0.00  0.00     0.284 HD
HETATM   15  H           1      38.394 -12.047   0.039  0.00  0.00     0.284 HD
ENDROOT
BRANCH   2  16
HETATM   16  S           1      43.863 -11.790   3.745  0.00  0.00    -0.125 SA
BRANCH  16  17
HETATM   17  C           1      43.512 -11.366   5.478  0.00  0.00     0.077 C 
BRANCH  17  18
HETATM   18  C           1      44.516 -12.098   6.383  0.00  0.00     0.010 C 
BRANCH  18  19
HETATM   19  C           1      45.857 -11.349   6.460  0.00  0.00    -0.004 C 
HETATM   20  C           1      46.013 -10.590   7.785  0.00  0.00     0.005 C 
ENDBRANCH  18  19
ENDBRANCH  17  18
ENDBRANCH  16  17
ENDBRANCH   2  16
BRANCH   2  21
HETATM   21  S           1      43.016 -14.582   2.726  0.00  0.00    -0.125 SA
BRANCH  21  22
HETATM   22  C           1      43.101 -15.499   4.297  0.00  0.00     0.077 C 
BRANCH  22  23
HETATM   23  C           1      43.237 -16.999   3.987  0.00  0.00     0.010 C 
BRANCH  23  24
HETATM   24  C           1      43.023 -17.289   2.492  0.00  0.00    -0.004 C 
HETATM   25  C           1      43.071 -18.793   2.189  0.00  0.00     0.005 C 
ENDBRANCH  23  24
ENDBRANCH  22  23
ENDBRANCH  21  22
ENDBRANCH   2  21
BRANCH   3  26
HETATM   26  C           1      39.989 -14.370   2.298  0.00  0.00     0.105 C 
HETATM   27  N           1      39.646 -15.408   2.684  0.00  0.00    -0.151 N 
ENDBRANCH   3  26
BRANCH   1  28
HETATM   28  N           1      39.428 -13.241   5.221  0.00  0.00    -0.388 N 
HETATM   29  H           1      39.140 -12.442   5.837  0.00  0.00     0.157 HD
HETATM   30  H           1      38.956 -14.170   5.349  0.00  0.00     0.157 HD
ENDBRANCH   1  28
BRANCH   7  31
HETATM   31  C           1      38.551 -10.947   2.312  0.00  0.00    -0.026 A 
HETATM   32  C           1      38.387 -10.129   1.255  0.00  0.00     0.009 A 
HETATM   33  C           1      38.114  -8.824   1.409  0.00  0.00     0.001 A 
HETATM   34  C           1      38.005  -8.304   2.639  0.00  0.00     0.000 A 
HETATM   35  C           1      38.174  -9.098   3.706  0.00  0.00     0.001 A 
HETATM   36  C           1      38.445 -10.403   3.539  0.00  0.00     0.009 A 
ENDBRANCH   7  31
TORSDOF 11
ENDMDL
MODEL 5
REMARK VINA RESULT:      -6.7      2.354      6.789
REMARK  11 active torsions:
REMARK  status: ('A' for Active; 'I' for Inactive)
REMARK    1  A    between atoms: C_1  and  C_17 
REMARK    2  A    between atoms: C_1  and  S_18 
REMARK    3  A    between atoms: C_2  and  N_23 
REMARK    4  A    between atoms: C_3  and  C_13 
REMARK    5  A    between atoms: C_6  and  S_18 
REMARK    6  A    between atoms: C_6  and  S_19 
REMARK    7  A    between atoms: C_7  and  C_20 
REMARK    8  A    between atoms: C_7  and  C_21 
REMARK    9  A    between atoms: C_9  and  C_24 
REMARK   10  A    between atoms: C_16  and  C_17 
REMARK   11  A    between atoms: S_19  and  C_20 
ROOT
HETATM    1  C           1      40.248 -12.893   4.993  0.00  0.00     0.092 C 
HETATM    2  C           1      41.416 -11.850   3.163  0.00  0.00     0.156 C 
HETATM    3  C           1      41.632 -12.562   5.475  0.00  0.00     0.127 C 
HETATM    4  C           1      42.445 -12.487   4.164  0.00  0.00     0.136 C 
HETATM    5  C           1      42.826 -13.837   3.657  0.00  0.00     0.079 C 
HETATM    6  N           1      43.184 -14.895   3.343  0.00  0.00    -0.196 NA
HETATM    7  C           1      42.472 -13.285   6.609  0.00  0.00     0.248 C 
HETATM    8  C           1      44.337 -11.856   5.764  0.00  0.00     0.105 C 
HETATM    9  N           1      40.135 -12.473   3.759  0.00  0.00    -0.350 N 
HETATM   10  N           1      43.751 -12.453   6.957  0.00  0.00    -0.040 N 
HETATM   11  C           1      45.679 -11.205   5.992  0.00  0.00     0.075 C 
HETATM   12  C           1      43.763 -11.831   4.537  0.00  0.00     0.036 C 
HETATM   13  H           1      39.260 -12.560   3.225  0.00  0.00     0.163 HD
HETATM   14  H           1      43.551 -11.732   7.682  0.00  0.00     0.284 HD
HETATM   15  H           1      44.452 -13.108   7.372  0.00  0.00     0.284 HD
ENDROOT
BRANCH   2  16
HETATM   16  S           1      41.585 -12.452   1.450  0.00  0.00    -0.125 SA
BRANCH  16  17
HETATM   17  C           1      39.997 -13.287   1.158  0.00  0.00     0.077 C 
BRANCH  17  18
HETATM   18  C           1      40.242 -14.536   0.296  0.00  0.00     0.010 C 
BRANCH  18  19
HETATM   19  C           1      40.459 -15.787   1.162  0.00  0.00    -0.004 C 
HETATM   20  C           1      39.737 -15.680   2.513  0.00  0.00     0.005 C 
ENDBRANCH  18  19
ENDBRANCH  17  18
ENDBRANCH  16  17
ENDBRANCH   2  16
BRANCH   2  21
HETATM   21  S           1      41.365 -10.037   3.366  0.00  0.00    -0.125 SA
BRANCH  21  22
HETATM   22  C           1      39.570  -9.741   3.281  0.00  0.00     0.077 C 
BRANCH  22  23
HETATM   23  C           1      39.166  -9.579   1.806  0.00  0.00     0.010 C 
BRANCH  23  24
HETATM   24  C           1      37.639  -9.617   1.630  0.00  0.00    -0.004 C 
HETATM   25  C           1      37.152 -10.992   1.153  0.00  0.00     0.005 C 
ENDBRANCH  23  24
ENDBRANCH  22  23
ENDBRANCH  21  22
ENDBRANCH   2  21
BRANCH   3  26
HETATM   26  C           1      41.600 -11.244   6.173  0.00  0.00     0.105 C 
HETATM   27  N           1      40.819 -10.617   6.755  0.00  0.00    -0.151 N 
ENDBRANCH   3  26
BRANCH   1  28
HETATM   28  N           1      39.315 -13.404   5.680  0.00  0.00    -0.388 N 
HETATM   29  H           1      39.520 -14.130   6.409  0.00  0.00     0.157 HD
HETATM   30  H           1      38.317 -13.113   5.527  0.00  0.00     0.157 HD
ENDBRANCH   1  28
BRANCH   7  31
HETATM   31  C           1      42.808 -14.749   6.370  0.00  0.00    -0.026 A 
HETATM   32  C           1      41.815 -15.633   6.154  0.00  0.00     0.009 A 
HETATM   33  C           1      42.062 -16.936   5.947  0.00  0.00     0.001 A 
HETATM   34  C           1      43.324 -17.387   5.958  0.00  0.00     0.000 A 
HETATM   35  C           1      44.328 -16.526   6.180  0.00  0.00     0.001 A 
HETATM   36  C           1      44.068 -15.225   6.384  0.00  0.00     0.009 A 
ENDBRANCH   7  31
TORSDOF 11
ENDMDL
MODEL 6
REMARK VINA RESULT:      -6.7      2.514      6.544
REMARK  11 active torsions:
REMARK  status: ('A' for Active; 'I' for Inactive)
REMARK    1  A    between atoms: C_1  and  C_17 
REMARK    2  A    between atoms: C_1  and  S_18 
REMARK    3  A    between atoms: C_2  and  N_23 
REMARK    4  A    between atoms: C_3  and  C_13 
REMARK    5  A    between atoms: C_6  and  S_18 
REMARK    6  A    between atoms: C_6  and  S_19 
REMARK    7  A    between atoms: C_7  and  C_20 
REMARK    8  A    between atoms: C_7  and  C_21 
REMARK    9  A    between atoms: C_9  and  C_24 
REMARK   10  A    between atoms: C_16  and  C_17 
REMARK   11  A    between atoms: S_19  and  C_20 
ROOT
HETATM    1  C           1      39.725 -13.096   3.193  0.00  0.00     0.092 C 
HETATM    2  C           1      41.271 -11.292   2.800  0.00  0.00     0.156 C 
HETATM    3  C           1      40.815 -13.209   4.221  0.00  0.00     0.127 C 
HETATM    4  C           1      41.994 -12.464   3.556  0.00  0.00     0.136 C 
HETATM    5  C           1      42.703 -13.310   2.553  0.00  0.00     0.079 C 
HETATM    6  N           1      43.287 -14.025   1.850  0.00  0.00    -0.196 NA
HETATM    7  C           1      41.329 -14.512   4.964  0.00  0.00     0.248 C 
HETATM    8  C           1      43.151 -13.008   5.770  0.00  0.00     0.105 C 
HETATM    9  N           1      39.965 -12.041   2.458  0.00  0.00    -0.350 N 
HETATM   10  N           1      42.296 -14.129   6.134  0.00  0.00    -0.040 N 
HETATM   11  C           1      44.241 -12.709   6.771  0.00  0.00     0.075 C 
HETATM   12  C           1      43.012 -12.243   4.660  0.00  0.00     0.036 C 
HETATM   13  H           1      39.334 -11.740   1.703  0.00  0.00     0.163 HD
HETATM   14  H           1      41.771 -13.937   7.013  0.00  0.00     0.284 HD
HETATM   15  H           1      42.906 -14.956   6.324  0.00  0.00     0.284 HD
ENDROOT
BRANCH   2  16
HETATM   16  S           1      42.073 -10.823   1.231  0.00  0.00    -0.125 SA
BRANCH  16  17
HETATM   17  C           1      40.735 -11.024   0.018  0.00  0.00     0.077 C 
BRANCH  17  18
HETATM   18  C           1      41.026 -12.264  -0.843  0.00  0.00     0.010 C 
BRANCH  18  19
HETATM   19  C           1      39.839 -13.242  -0.845  0.00  0.00    -0.004 C 
HETATM   20  C           1      40.198 -14.579  -0.182  0.00  0.00     0.005 C 
ENDBRANCH  18  19
ENDBRANCH  17  18
ENDBRANCH  16  17
ENDBRANCH   2  16
BRANCH   2  21
HETATM   21  S           1      40.906  -9.920   3.947  0.00  0.00    -0.125 SA
BRANCH  21  22
HETATM   22  C           1      39.284  -9.383   3.320  0.00  0.00     0.077 C 
BRANCH  22  23
HETATM   23  C           1      38.280  -9.379   4.485  0.00  0.00     0.010 C 
BRANCH  23  24
HETATM   24  C           1      38.892  -8.768   5.757  0.00  0.00    -0.004 C 
HETATM   25  C           1      38.449  -7.313   5.963  0.00  0.00     0.005 C 
ENDBRANCH  23  24
ENDBRANCH  22  23
ENDBRANCH  21  22
ENDBRANCH   2  21
BRANCH   3  26
HETATM   26  C           1      40.375 -12.525   5.471  0.00  0.00     0.105 C 
HETATM   27  N           1      39.384 -12.399   6.058  0.00  0.00    -0.151 N 
ENDBRANCH   3  26
BRANCH   1  28
HETATM   28  N           1      38.698 -13.833   3.102  0.00  0.00    -0.388 N 
HETATM   29  H           1      38.445 -14.499   3.872  0.00  0.00     0.157 HD
HETATM   30  H           1      38.086 -13.793   2.250  0.00  0.00     0.157 HD
ENDBRANCH   1  28
BRANCH   7  31
HETATM   31  C           1      41.924 -15.600   4.083  0.00  0.00    -0.026 A 
HETATM   32  C           1      41.195 -16.110   3.072  0.00  0.00     0.009 A 
HETATM   33  C           1      41.675 -17.077   2.274  0.00  0.00     0.001 A 
HETATM   34  C           1      42.907 -17.563   2.478  0.00  0.00     0.000 A 
HETATM   35  C           1      43.647 -17.077   3.485  0.00  0.00     0.001 A 
HETATM   36  C           1      43.156 -16.108   4.275  0.00  0.00     0.009 A 
ENDBRANCH   7  31
TORSDOF 11
ENDMDL
MODEL 7
REMARK VINA RESULT:      -6.5      5.749     10.052
REMARK  11 active torsions:
REMARK  status: ('A' for Active; 'I' for Inactive)
REMARK    1  A    between atoms: C_1  and  C_17 
REMARK    2  A    between atoms: C_1  and  S_18 
REMARK    3  A    between atoms: C_2  and  N_23 
REMARK    4  A    between atoms: C_3  and  C_13 
REMARK    5  A    between atoms: C_6  and  S_18 
REMARK    6  A    between atoms: C_6  and  S_19 
REMARK    7  A    between atoms: C_7  and  C_20 
REMARK    8  A    between atoms: C_7  and  C_21 
REMARK    9  A    between atoms: C_9  and  C_24 
REMARK   10  A    between atoms: C_16  and  C_17 
REMARK   11  A    between atoms: S_19  and  C_20 
ROOT
HETATM    1  C           1      40.373  -9.188  10.466  0.00  0.00     0.092 C 
HETATM    2  C           1      42.440  -8.813   9.286  0.00  0.00     0.156 C 
HETATM    3  C           1      40.711  -7.730  10.605  0.00  0.00     0.127 C 
HETATM    4  C           1      42.239  -7.707  10.384  0.00  0.00     0.136 C 
HETATM    5  C           1      42.993  -8.110  11.606  0.00  0.00     0.079 C 
HETATM    6  N           1      43.548  -8.338  12.599  0.00  0.00    -0.196 NA
HETATM    7  C           1      40.304  -6.738  11.774  0.00  0.00     0.248 C 
HETATM    8  C           1      41.905  -5.187  10.652  0.00  0.00     0.105 C 
HETATM    9  N           1      41.293  -9.750   9.725  0.00  0.00    -0.350 N 
HETATM   10  N           1      40.649  -5.262  11.384  0.00  0.00    -0.040 N 
HETATM   11  C           1      42.401  -3.780  10.415  0.00  0.00     0.075 C 
HETATM   12  C           1      42.601  -6.248  10.175  0.00  0.00     0.036 C 
HETATM   13  H           1      41.259 -10.744   9.464  0.00  0.00     0.163 HD
HETATM   14  H           1      39.872  -4.818  10.850  0.00  0.00     0.284 HD
HETATM   15  H           1      40.754  -4.717  12.270  0.00  0.00     0.284 HD
ENDROOT
BRANCH   2  16
HETATM   16  S           1      44.005  -9.733   9.445  0.00  0.00    -0.125 SA
BRANCH  16  17
HETATM   17  C           1      45.216  -8.599   8.701  0.00  0.00     0.077 C 
BRANCH  17  18
HETATM   18  C           1      46.238  -9.419   7.897  0.00  0.00     0.010 C 
BRANCH  18  19
HETATM   19  C           1      45.789 -10.882   7.738  0.00  0.00    -0.004 C 
HETATM   20  C           1      45.865 -11.347   6.277  0.00  0.00     0.005 C 
ENDBRANCH  18  19
ENDBRANCH  17  18
ENDBRANCH  16  17
ENDBRANCH   2  16
BRANCH   2  21
HETATM   21  S           1      42.077  -8.140   7.628  0.00  0.00    -0.125 SA
BRANCH  21  22
HETATM   22  C           1      41.232  -9.562   6.868  0.00  0.00     0.077 C 
BRANCH  22  23
HETATM   23  C           1      42.267 -10.396   6.095  0.00  0.00     0.010 C 
BRANCH  23  24
HETATM   24  C           1      41.672 -11.727   5.607  0.00  0.00    -0.004 C 
HETATM   25  C           1      42.481 -12.932   6.107  0.00  0.00     0.005 C 
ENDBRANCH  23  24
ENDBRANCH  22  23
ENDBRANCH  21  22
ENDBRANCH   2  21
BRANCH   3  26
HETATM   26  C           1      39.996  -6.963   9.544  0.00  0.00     0.105 C 
HETATM   27  N           1      38.953  -6.994   9.040  0.00  0.00    -0.151 N 
ENDBRANCH   3  26
BRANCH   1  28
HETATM   28  N           1      39.335  -9.764  10.905  0.00  0.00    -0.388 N 
HETATM   29  H           1      39.383 -10.393  11.743  0.00  0.00     0.157 HD
HETATM   30  H           1      38.407  -9.625  10.433  0.00  0.00     0.157 HD
ENDBRANCH   1  28
BRANCH   7  31
HETATM   31  C           1      40.822  -7.083  13.162  0.00  0.00    -0.026 A 
HETATM   32  C           1      41.557  -6.182  13.840  0.00  0.00     0.009 A 
HETATM   33  C           1      42.043  -6.444  15.064  0.00  0.00     0.001 A 
HETATM   34  C           1      41.804  -7.632  15.637  0.00  0.00     0.000 A 
HETATM   35  C           1      41.082  -8.547  14.977  0.00  0.00     0.001 A 
HETATM   36  C           1      40.600  -8.273  13.754  0.00  0.00     0.009 A 
ENDBRANCH   7  31
TORSDOF 11
ENDMDL
MODEL 8
REMARK VINA RESULT:      -6.3      8.471     11.540
REMARK  11 active torsions:
REMARK  status: ('A' for Active; 'I' for Inactive)
REMARK    1  A    between atoms: C_1  and  C_17 
REMARK    2  A    between atoms: C_1  and  S_18 
REMARK    3  A    between atoms: C_2  and  N_23 
REMARK    4  A    between atoms: C_3  and  C_13 
REMARK    5  A    between atoms: C_6  and  S_18 
REMARK    6  A    between atoms: C_6  and  S_19 
REMARK    7  A    between atoms: C_7  and  C_20 
REMARK    8  A    between atoms: C_7  and  C_21 
REMARK    9  A    between atoms: C_9  and  C_24 
REMARK   10  A    between atoms: C_16  and  C_17 
REMARK   11  A    between atoms: S_19  and  C_20 
ROOT
HETATM    1  C           1      41.059  -6.199  10.246  0.00  0.00     0.092 C 
HETATM    2  C           1      40.571  -5.970  12.593  0.00  0.00     0.156 C 
HETATM    3  C           1      40.671  -7.558  10.758  0.00  0.00     0.127 C 
HETATM    4  C           1      40.970  -7.455  12.270  0.00  0.00     0.136 C 
HETATM    5  C           1      42.418  -7.634  12.574  0.00  0.00     0.079 C 
HETATM    6  N           1      43.535  -7.870  12.782  0.00  0.00    -0.196 NA
HETATM    7  C           1      41.110  -8.976  10.200  0.00  0.00     0.248 C 
HETATM    8  C           1      40.025  -9.831  12.279  0.00  0.00     0.105 C 
HETATM    9  N           1      40.967  -5.350  11.236  0.00  0.00    -0.350 N 
HETATM   10  N           1      40.269 -10.113  10.872  0.00  0.00    -0.040 N 
HETATM   11  C           1      39.391 -10.971  13.039  0.00  0.00     0.075 C 
HETATM   12  C           1      40.293  -8.658  12.903  0.00  0.00     0.036 C 
HETATM   13  H           1      41.153  -4.345  11.119  0.00  0.00     0.163 HD
HETATM   14  H           1      39.379 -10.281  10.358  0.00  0.00     0.284 HD
HETATM   15  H           1      40.824 -10.997  10.807  0.00  0.00     0.284 HD
ENDROOT
BRANCH   2  16
HETATM   16  S           1      41.600  -5.196  13.883  0.00  0.00    -0.125 SA
BRANCH  16  17
HETATM   17  C           1      40.813  -5.762  15.421  0.00  0.00     0.077 C 
BRANCH  17  18
HETATM   18  C           1      41.787  -6.687  16.168  0.00  0.00     0.010 C 
BRANCH  18  19
HETATM   19  C           1      41.038  -7.740  17.002  0.00  0.00    -0.004 C 
HETATM   20  C           1      39.920  -7.112  17.845  0.00  0.00     0.005 C 
ENDBRANCH  18  19
ENDBRANCH  17  18
ENDBRANCH  16  17
ENDBRANCH   2  16
BRANCH   2  21
HETATM   21  S           1      38.766  -5.830  12.826  0.00  0.00    -0.125 SA
BRANCH  21  22
HETATM   22  C           1      38.468  -4.172  12.133  0.00  0.00     0.077 C 
BRANCH  22  23
HETATM   23  C           1      37.348  -4.270  11.084  0.00  0.00     0.010 C 
BRANCH  23  24
HETATM   24  C           1      36.099  -3.484  11.514  0.00  0.00    -0.004 C 
HETATM   25  C           1      35.867  -2.250  10.632  0.00  0.00     0.005 C 
ENDBRANCH  23  24
ENDBRANCH  22  23
ENDBRANCH  21  22
ENDBRANCH   2  21
BRANCH   3  26
HETATM   26  C           1      39.218  -7.776  10.503  0.00  0.00     0.105 C 
HETATM   27  N           1      38.483  -7.613   9.621  0.00  0.00    -0.151 N 
ENDBRANCH   3  26
BRANCH   1  28
HETATM   28  N           1      41.337  -5.899   9.048  0.00  0.00    -0.388 N 
HETATM   29  H           1      42.104  -5.217   8.829  0.00  0.00     0.157 HD
HETATM   30  H           1      40.801  -6.325   8.252  0.00  0.00     0.157 HD
ENDBRANCH   1  28
BRANCH   7  31
HETATM   31  C           1      42.600  -9.286  10.243  0.00  0.00    -0.026 A 
HETATM   32  C           1      43.454  -8.545   9.513  0.00  0.00     0.009 A 
HETATM   33  C           1      44.775  -8.786   9.512  0.00  0.00     0.001 A 
HETATM   34  C           1      45.271  -9.790  10.247  0.00  0.00     0.000 A 
HETATM   35  C           1      44.438 -10.547  10.975  0.00  0.00     0.001 A 
HETATM   36  C           1      43.119 -10.295  10.968  0.00  0.00     0.009 A 
ENDBRANCH   7  31
TORSDOF 11
ENDMDL
MODEL 9
REMARK VINA RESULT:      -6.3      2.375      6.930
REMARK  11 active torsions:
REMARK  status: ('A' for Active; 'I' for Inactive)
REMARK    1  A    between atoms: C_1  and  C_17 
REMARK    2  A    between atoms: C_1  and  S_18 
REMARK    3  A    between atoms: C_2  and  N_23 
REMARK    4  A    between atoms: C_3  and  C_13 
REMARK    5  A    between atoms: C_6  and  S_18 
REMARK    6  A    between atoms: C_6  and  S_19 
REMARK    7  A    between atoms: C_7  and  C_20 
REMARK    8  A    between atoms: C_7  and  C_21 
REMARK    9  A    between atoms: C_9  and  C_24 
REMARK   10  A    between atoms: C_16  and  C_17 
REMARK   11  A    between atoms: S_19  and  C_20 
ROOT
HETATM    1  C           1      39.908 -14.719   2.954  0.00  0.00     0.092 C 
HETATM    2  C           1      41.039 -12.692   2.309  0.00  0.00     0.156 C 
HETATM    3  C           1      40.985 -14.464   3.970  0.00  0.00     0.127 C 
HETATM    4  C           1      41.986 -13.577   3.197  0.00  0.00     0.136 C 
HETATM    5  C           1      42.871 -14.373   2.300  0.00  0.00     0.079 C 
HETATM    6  N           1      43.602 -15.031   1.685  0.00  0.00    -0.196 NA
HETATM    7  C           1      41.756 -15.521   4.865  0.00  0.00     0.248 C 
HETATM    8  C           1      43.205 -13.573   5.444  0.00  0.00     0.105 C 
HETATM    9  N           1      39.927 -13.740   2.086  0.00  0.00    -0.350 N 
HETATM   10  N           1      42.605 -14.795   5.961  0.00  0.00    -0.040 N 
HETATM   11  C           1      44.195 -12.923   6.381  0.00  0.00     0.075 C 
HETATM   12  C           1      42.921 -13.004   4.248  0.00  0.00     0.036 C 
HETATM   13  H           1      39.255 -13.679   1.309  0.00  0.00     0.163 HD
HETATM   14  H           1      42.041 -14.608   6.818  0.00  0.00     0.284 HD
HETATM   15  H           1      43.375 -15.442   6.246  0.00  0.00     0.284 HD
ENDROOT
BRANCH   2  16
HETATM   16  S           1      41.741 -12.268   0.681  0.00  0.00    -0.125 SA
BRANCH  16  17
HETATM   17  C           1      40.330 -12.505  -0.441  0.00  0.00     0.077 C 
BRANCH  17  18
HETATM   18  C           1      40.545 -13.799  -1.243  0.00  0.00     0.010 C 
BRANCH  18  19
HETATM   19  C           1      39.734 -13.795  -2.549  0.00  0.00    -0.004 C 
HETATM   20  C           1      38.254 -13.471  -2.302  0.00  0.00     0.005 C 
ENDBRANCH  18  19
ENDBRANCH  17  18
ENDBRANCH  16  17
ENDBRANCH   2  16
BRANCH   2  21
HETATM   21  S           1      40.376 -11.294   3.278  0.00  0.00    -0.125 SA
BRANCH  21  22
HETATM   22  C           1      38.606 -11.413   2.868  0.00  0.00     0.077 C 
BRANCH  22  23
HETATM   23  C           1      38.295 -10.425   1.731  0.00  0.00     0.010 C 
BRANCH  23  24
HETATM   24  C           1      37.224 -10.978   0.777  0.00  0.00    -0.004 C 
HETATM   25  C           1      36.066  -9.990   0.583  0.00  0.00     0.005 C 
ENDBRANCH  23  24
ENDBRANCH  22  23
ENDBRANCH  21  22
ENDBRANCH   2  21
BRANCH   3  26
HETATM   26  C           1      40.394 -13.735   5.130  0.00  0.00     0.105 C 
HETATM   27  N           1      39.691 -13.989   6.015  0.00  0.00    -0.151 N 
ENDBRANCH   3  26
BRANCH   1  28
HETATM   28  N           1      39.064 -15.662   2.974  0.00  0.00    -0.388 N 
HETATM   29  H           1      38.559 -15.951   2.100  0.00  0.00     0.157 HD
HETATM   30  H           1      38.850 -16.169   3.869  0.00  0.00     0.157 HD
ENDBRANCH   1  28
BRANCH   7  31
HETATM   31  C           1      42.580 -16.562   4.121  0.00  0.00    -0.026 A 
HETATM   32  C           1      42.043 -17.206   3.068  0.00  0.00     0.009 A 
HETATM   33  C           1      42.729 -18.137   2.386  0.00  0.00     0.001 A 
HETATM   34  C           1      43.979 -18.450   2.754  0.00  0.00     0.000 A 
HETATM   35  C           1      44.530 -17.827   3.805  0.00  0.00     0.001 A 
HETATM   36  C           1      43.835 -16.896   4.478  0.00  0.00     0.009 A 
ENDBRANCH   7  31
TORSDOF 11
ENDMDL
MODEL 10
REMARK VINA RESULT:      -6.3      6.628     10.135
REMARK  11 active torsions:
REMARK  status: ('A' for Active; 'I' for Inactive)
REMARK    1  A    between atoms: C_1  and  C_17 
REMARK    2  A    between atoms: C_1  and  S_18 
REMARK    3  A    between atoms: C_2  and  N_23 
REMARK    4  A    between atoms: C_3  and  C_13 
REMARK    5  A    between atoms: C_6  and  S_18 
REMARK    6  A    between atoms: C_6  and  S_19 
REMARK    7  A    between atoms: C_7  and  C_20 
REMARK    8  A    between atoms: C_7  and  C_21 
REMARK    9  A    between atoms: C_9  and  C_24 
REMARK   10  A    between atoms: C_16  and  C_17 
REMARK   11  A    between atoms: S_19  and  C_20 
ROOT
HETATM    1  C           1      40.298  -9.044   9.157  0.00  0.00     0.092 C 
HETATM    2  C           1      40.224  -6.716   9.772  0.00  0.00     0.156 C 
HETATM    3  C           1      41.164  -8.874  10.374  0.00  0.00     0.127 C 
HETATM    4  C           1      41.539  -7.376  10.324  0.00  0.00     0.136 C 
HETATM    5  C           1      42.646  -7.103   9.364  0.00  0.00     0.079 C 
HETATM    6  N           1      43.569  -6.940   8.680  0.00  0.00    -0.196 NA
HETATM    7  C           1      42.413  -9.745  10.816  0.00  0.00     0.248 C 
HETATM    8  C           1      42.729  -7.944  12.514  0.00  0.00     0.105 C 
HETATM    9  N           1      39.772  -7.882   8.866  0.00  0.00    -0.350 N 
HETATM   10  N           1      42.852  -9.374  12.272  0.00  0.00    -0.040 N 
HETATM   11  C           1      43.317  -7.485  13.827  0.00  0.00     0.075 C 
HETATM   12  C           1      42.125  -7.056  11.687  0.00  0.00     0.036 C 
HETATM   13  H           1      39.114  -7.755   8.086  0.00  0.00     0.163 HD
HETATM   14  H           1      42.323  -9.926  12.980  0.00  0.00     0.284 HD
HETATM   15  H           1      43.857  -9.638  12.376  0.00  0.00     0.284 HD
ENDROOT
BRANCH   2  16
HETATM   16  S           1      40.520  -5.265   8.709  0.00  0.00    -0.125 SA
BRANCH  16  17
HETATM   17  C           1      40.121  -5.892   7.050  0.00  0.00     0.077 C 
BRANCH  17  18
HETATM   18  C           1      41.331  -5.667   6.129  0.00  0.00     0.010 C 
BRANCH  18  19
HETATM   19  C           1      41.480  -6.804   5.105  0.00  0.00    -0.004 C 
HETATM   20  C           1      41.548  -8.180   5.783  0.00  0.00     0.005 C 
ENDBRANCH  18  19
ENDBRANCH  17  18
ENDBRANCH  16  17
ENDBRANCH   2  16
BRANCH   2  21
HETATM   21  S           1      39.013  -6.483  11.117  0.00  0.00    -0.125 SA
BRANCH  21  22
HETATM   22  C           1      39.433  -4.795  11.657  0.00  0.00     0.077 C 
BRANCH  22  23
HETATM   23  C           1      39.554  -4.783  13.189  0.00  0.00     0.010 C 
BRANCH  23  24
HETATM   24  C           1      39.207  -6.152  13.796  0.00  0.00    -0.004 C 
HETATM   25  C           1      39.987  -6.419  15.091  0.00  0.00     0.005 C 
ENDBRANCH  23  24
ENDBRANCH  22  23
ENDBRANCH  21  22
ENDBRANCH   2  21
BRANCH   3  26
HETATM   26  C           1      40.361  -9.194  11.589  0.00  0.00     0.105 C 
HETATM   27  N           1      39.647 -10.042  11.928  0.00  0.00    -0.151 N 
ENDBRANCH   3  26
BRANCH   1  28
HETATM   28  N           1      40.041 -10.133   8.564  0.00  0.00    -0.388 N 
HETATM   29  H           1      40.606 -10.996   8.755  0.00  0.00     0.157 HD
HETATM   30  H           1      39.259 -10.188   7.866  0.00  0.00     0.157 HD
ENDBRANCH   1  28
BRANCH   7  31
HETATM   31  C           1      43.599  -9.755   9.862  0.00  0.00    -0.026 A 
HETATM   32  C           1      43.427 -10.163   8.591  0.00  0.00     0.009 A 
HETATM   33  C           1      44.445 -10.197   7.716  0.00  0.00     0.001 A 
HETATM   34  C           1      45.672  -9.824   8.104  0.00  0.00     0.000 A 
HETATM   35  C           1      45.869  -9.423   9.368  0.00  0.00     0.001 A 
HETATM   36  C           1      44.842  -9.392  10.233  0.00  0.00     0.009 A 
ENDBRANCH   7  31
TORSDOF 11
ENDMDL
