MODEL 1
REMARK VINA RESULT:      -7.4      0.000      0.000
REMARK  6 active torsions:
REMARK  status: ('A' for Active; 'I' for Inactive)
REMARK    1  A    between atoms: C_2  and  O_3 
REMARK    2  A    between atoms: O_3  and  C_4 
REMARK    3  A    between atoms: C_4  and  C_5 
REMARK    4  A    between atoms: C_10  and  C_11 
REMARK    5  A    between atoms: C_11  and  N_12 
REMARK    6  A    between atoms: C_11  and  C_16 
ROOT
HETATM    1  C   UNL     1      43.196 -16.738   2.554  1.00  0.00     0.118 A 
HETATM    2  N   UNL     1      43.056 -17.948   1.927  1.00  0.00    -0.350 N 
HETATM    3  H   UNL     1      42.778 -18.071   0.961  1.00  0.00     0.166 HD
HETATM    4  C   UNL     1      43.429 -18.968   2.764  1.00  0.00     0.043 A 
HETATM    5  C   UNL     1      43.740 -18.405   4.005  1.00  0.00     0.002 A 
HETATM    6  C   UNL     1      43.541 -16.979   3.893  1.00  0.00     0.022 A 
HETATM    7  C   UNL     1      43.504 -20.340   2.498  1.00  0.00     0.030 A 
HETATM    8  C   UNL     1      43.916 -21.183   3.530  1.00  0.00     0.002 A 
HETATM    9  C   UNL     1      44.235 -20.668   4.778  1.00  0.00     0.001 A 
HETATM   10  C   UNL     1      44.149 -19.292   5.028  1.00  0.00     0.014 A 
ENDROOT
BRANCH   6  11
HETATM   11  C   UNL     1      43.686 -15.860   4.901  1.00  0.00     0.252 C 
BRANCH  11  12
HETATM   12  N   UNL     1      44.649 -16.230   5.959  1.00  0.00    -0.067 N 
HETATM   13  H   UNL     1      44.267 -16.961   6.566  1.00  0.00     0.275 HD
HETATM   14  H   UNL     1      45.541 -16.526   5.556  1.00  0.00     0.275 HD
HETATM   15  H   UNL     1      44.811 -15.390   6.540  1.00  0.00     0.275 HD
ENDBRANCH  11  12
BRANCH  11  16
HETATM   16  C   UNL     1      42.344 -15.383   5.400  1.00  0.00    -0.024 A 
HETATM   17  C   UNL     1      42.063 -14.001   5.374  1.00  0.00     0.009 A 
HETATM   18  C   UNL     1      40.857 -13.502   5.867  1.00  0.00     0.001 A 
HETATM   19  C   UNL     1      39.909 -14.372   6.396  1.00  0.00     0.000 A 
HETATM   20  C   UNL     1      40.165 -15.741   6.431  1.00  0.00     0.001 A 
HETATM   21  C   UNL     1      41.372 -16.247   5.938  1.00  0.00     0.009 A 
ENDBRANCH  11  16
ENDBRANCH   6  11
BRANCH   1  22
HETATM   22  C   UNL     1      43.025 -15.460   1.904  1.00  0.00     0.310 C 
HETATM   23  O   UNL     1      43.891 -14.592   1.924  1.00  0.00    -0.258 OA
BRANCH  22  24
HETATM   24  O   UNL     1      41.817 -15.395   1.298  1.00  0.00    -0.317 OA
BRANCH  24  25
HETATM   25  C   UNL     1      40.801 -14.647   1.985  1.00  0.00     0.175 C 
HETATM   26  C   UNL     1      39.738 -15.596   2.508  1.00  0.00     0.034 C 
ENDBRANCH  24  25
ENDBRANCH  22  24
ENDBRANCH   1  22
TORSDOF 6
ENDMDL
MODEL 2
REMARK VINA RESULT:      -7.1      2.329      4.296
REMARK  6 active torsions:
REMARK  status: ('A' for Active; 'I' for Inactive)
REMARK    1  A    between atoms: C_2  and  O_3 
REMARK    2  A    between atoms: O_3  and  C_4 
REMARK    3  A    between atoms: C_4  and  C_5 
REMARK    4  A    between atoms: C_10  and  C_11 
REMARK    5  A    between atoms: C_11  and  N_12 
REMARK    6  A    between atoms: C_11  and  C_16 
ROOT
HETATM    1  C   UNL     1      43.418 -15.929   5.765  1.00  0.00     0.118 A 
HETATM    2  N   UNL     1      44.345 -16.914   5.551  1.00  0.00    -0.350 N 
HETATM    3  H   UNL     1      45.137 -17.104   6.153  1.00  0.00     0.166 HD
HETATM    4  C   UNL     1      44.005 -17.663   4.455  1.00  0.00     0.043 A 
HETATM    5  C   UNL     1      42.862 -17.090   3.888  1.00  0.00     0.002 A 
HETATM    6  C   UNL     1      42.511 -15.945   4.694  1.00  0.00     0.022 A 
HETATM    7  C   UNL     1      44.637 -18.799   3.935  1.00  0.00     0.030 A 
HETATM    8  C   UNL     1      44.090 -19.388   2.796  1.00  0.00     0.002 A 
HETATM    9  C   UNL     1      42.956 -18.853   2.200  1.00  0.00     0.001 A 
HETATM   10  C   UNL     1      42.339 -17.712   2.731  1.00  0.00     0.014 A 
ENDROOT
BRANCH   6  11
HETATM   11  C   UNL     1      41.402 -14.924   4.563  1.00  0.00     0.252 C 
BRANCH  11  12
HETATM   12  N   UNL     1      40.199 -15.361   5.303  1.00  0.00    -0.067 N 
HETATM   13  H   UNL     1      39.802 -16.210   4.892  1.00  0.00     0.275 HD
HETATM   14  H   UNL     1      40.408 -15.503   6.293  1.00  0.00     0.275 HD
HETATM   15  H   UNL     1      39.493 -14.610   5.218  1.00  0.00     0.275 HD
ENDBRANCH  11  12
BRANCH  11  16
HETATM   16  C   UNL     1      41.161 -14.546   3.121  1.00  0.00    -0.024 A 
HETATM   17  C   UNL     1      40.105 -15.171   2.425  1.00  0.00     0.009 A 
HETATM   18  C   UNL     1      39.868 -14.893   1.078  1.00  0.00     0.001 A 
HETATM   19  C   UNL     1      40.679 -13.988   0.402  1.00  0.00     0.000 A 
HETATM   20  C   UNL     1      41.727 -13.359   1.070  1.00  0.00     0.001 A 
HETATM   21  C   UNL     1      41.970 -13.634   2.419  1.00  0.00     0.009 A 
ENDBRANCH  11  16
ENDBRANCH   6  11
BRANCH   1  22
HETATM   22  C   UNL     1      43.404 -15.060   6.918  1.00  0.00     0.310 C 
HETATM   23  O   UNL     1      42.798 -15.341   7.946  1.00  0.00    -0.258 OA
BRANCH  22  24
HETATM   24  O   UNL     1      44.141 -13.950   6.682  1.00  0.00    -0.317 OA
BRANCH  24  25
HETATM   25  C   UNL     1      43.428 -12.703   6.672  1.00  0.00     0.175 C 
HETATM   26  C   UNL     1      43.693 -11.976   5.366  1.00  0.00     0.034 C 
ENDBRANCH  24  25
ENDBRANCH  22  24
ENDBRANCH   1  22
TORSDOF 6
ENDMDL
MODEL 3
REMARK VINA RESULT:      -7.1      2.462      5.381
REMARK  6 active torsions:
REMARK  status: ('A' for Active; 'I' for Inactive)
REMARK    1  A    between atoms: C_2  and  O_3 
REMARK    2  A    between atoms: O_3  and  C_4 
REMARK    3  A    between atoms: C_4  and  C_5 
REMARK    4  A    between atoms: C_10  and  C_11 
REMARK    5  A    between atoms: C_11  and  N_12 
REMARK    6  A    between atoms: C_11  and  C_16 
ROOT
HETATM    1  C   UNL     1      41.361 -13.252   3.137  1.00  0.00     0.118 A 
HETATM    2  N   UNL     1      42.143 -12.138   3.294  1.00  0.00    -0.350 N 
HETATM    3  H   UNL     1      42.116 -11.322   2.694  1.00  0.00     0.166 HD
HETATM    4  C   UNL     1      42.907 -12.244   4.427  1.00  0.00     0.043 A 
HETATM    5  C   UNL     1      42.675 -13.508   4.977  1.00  0.00     0.002 A 
HETATM    6  C   UNL     1      41.724 -14.181   4.124  1.00  0.00     0.022 A 
HETATM    7  C   UNL     1      43.783 -11.307   4.988  1.00  0.00     0.030 A 
HETATM    8  C   UNL     1      44.452 -11.658   6.160  1.00  0.00     0.002 A 
HETATM    9  C   UNL     1      44.252 -12.902   6.741  1.00  0.00     0.001 A 
HETATM   10  C   UNL     1      43.375 -13.830   6.163  1.00  0.00     0.014 A 
ENDROOT
BRANCH   6  11
HETATM   11  C   UNL     1      41.119 -15.566   4.187  1.00  0.00     0.252 C 
BRANCH  11  12
HETATM   12  N   UNL     1      40.383 -15.758   5.454  1.00  0.00    -0.067 N 
HETATM   13  H   UNL     1      40.328 -14.884   5.985  1.00  0.00     0.275 HD
HETATM   14  H   UNL     1      39.448 -16.135   5.284  1.00  0.00     0.275 HD
HETATM   15  H   UNL     1      40.915 -16.438   6.023  1.00  0.00     0.275 HD
ENDBRANCH  11  12
BRANCH  11  16
HETATM   16  C   UNL     1      42.139 -16.634   3.875  1.00  0.00    -0.024 A 
HETATM   17  C   UNL     1      42.191 -17.159   2.566  1.00  0.00     0.009 A 
HETATM   18  C   UNL     1      43.083 -18.180   2.237  1.00  0.00     0.001 A 
HETATM   19  C   UNL     1      43.938 -18.697   3.205  1.00  0.00     0.000 A 
HETATM   20  C   UNL     1      43.904 -18.193   4.503  1.00  0.00     0.001 A 
HETATM   21  C   UNL     1      43.012 -17.170   4.840  1.00  0.00     0.009 A 
ENDBRANCH  11  16
ENDBRANCH   6  11
BRANCH   1  22
HETATM   22  C   UNL     1      40.340 -13.393   2.126  1.00  0.00     0.310 C 
HETATM   23  O   UNL     1      39.172 -13.077   2.322  1.00  0.00    -0.258 OA
BRANCH  22  24
HETATM   24  O   UNL     1      40.869 -13.900   0.988  1.00  0.00    -0.317 OA
BRANCH  24  25
HETATM   25  C   UNL     1      40.118 -14.945   0.348  1.00  0.00     0.175 C 
HETATM   26  C   UNL     1      39.580 -14.444  -0.980  1.00  0.00     0.034 C 
ENDBRANCH  24  25
ENDBRANCH  22  24
ENDBRANCH   1  22
TORSDOF 6
ENDMDL
MODEL 4
REMARK VINA RESULT:      -6.7      2.669      5.840
REMARK  6 active torsions:
REMARK  status: ('A' for Active; 'I' for Inactive)
REMARK    1  A    between atoms: C_2  and  O_3 
REMARK    2  A    between atoms: O_3  and  C_4 
REMARK    3  A    between atoms: C_4  and  C_5 
REMARK    4  A    between atoms: C_10  and  C_11 
REMARK    5  A    between atoms: C_11  and  N_12 
REMARK    6  A    between atoms: C_11  and  C_16 
ROOT
HETATM    1  C   UNL     1      41.284 -13.493   3.731  1.00  0.00     0.118 A 
HETATM    2  N   UNL     1      41.216 -12.496   2.794  1.00  0.00    -0.350 N 
HETATM    3  H   UNL     1      41.476 -11.531   2.956  1.00  0.00     0.166 HD
HETATM    4  C   UNL     1      40.828 -13.004   1.582  1.00  0.00     0.043 A 
HETATM    5  C   UNL     1      40.552 -14.362   1.759  1.00  0.00     0.002 A 
HETATM    6  C   UNL     1      40.792 -14.672   3.149  1.00  0.00     0.022 A 
HETATM    7  C   UNL     1      40.701 -12.344   0.353  1.00  0.00     0.030 A 
HETATM    8  C   UNL     1      40.283 -13.091  -0.748  1.00  0.00     0.002 A 
HETATM    9  C   UNL     1      39.999 -14.443  -0.618  1.00  0.00     0.001 A 
HETATM   10  C   UNL     1      40.126 -15.086   0.621  1.00  0.00     0.014 A 
ENDROOT
BRANCH   6  11
HETATM   11  C   UNL     1      40.640 -15.956   3.936  1.00  0.00     0.252 C 
BRANCH  11  12
HETATM   12  N   UNL     1      40.132 -15.679   5.295  1.00  0.00    -0.067 N 
HETATM   13  H   UNL     1      40.800 -15.119   5.832  1.00  0.00     0.275 HD
HETATM   14  H   UNL     1      39.221 -15.217   5.261  1.00  0.00     0.275 HD
HETATM   15  H   UNL     1      40.025 -16.587   5.778  1.00  0.00     0.275 HD
ENDBRANCH  11  12
BRANCH  11  16
HETATM   16  C   UNL     1      41.895 -16.793   3.883  1.00  0.00    -0.024 A 
HETATM   17  C   UNL     1      42.628 -16.991   5.072  1.00  0.00     0.009 A 
HETATM   18  C   UNL     1      43.820 -17.717   5.070  1.00  0.00     0.001 A 
HETATM   19  C   UNL     1      44.303 -18.256   3.883  1.00  0.00     0.000 A 
HETATM   20  C   UNL     1      43.595 -18.074   2.697  1.00  0.00     0.001 A 
HETATM   21  C   UNL     1      42.401 -17.348   2.692  1.00  0.00     0.009 A 
ENDBRANCH  11  16
ENDBRANCH   6  11
BRANCH   1  22
HETATM   22  C   UNL     1      41.799 -13.320   5.069  1.00  0.00     0.310 C 
HETATM   23  O   UNL     1      41.082 -13.008   6.014  1.00  0.00    -0.258 OA
BRANCH  22  24
HETATM   24  O   UNL     1      43.131 -13.554   5.097  1.00  0.00    -0.317 OA
BRANCH  24  25
HETATM   25  C   UNL     1      43.735 -13.640   6.398  1.00  0.00     0.175 C 
HETATM   26  C   UNL     1      44.541 -12.382   6.669  1.00  0.00     0.034 C 
ENDBRANCH  24  25
ENDBRANCH  22  24
ENDBRANCH   1  22
TORSDOF 6
ENDMDL
MODEL 5
REMARK VINA RESULT:      -6.7      2.033      2.731
REMARK  6 active torsions:
REMARK  status: ('A' for Active; 'I' for Inactive)
REMARK    1  A    between atoms: C_2  and  O_3 
REMARK    2  A    between atoms: O_3  and  C_4 
REMARK    3  A    between atoms: C_4  and  C_5 
REMARK    4  A    between atoms: C_10  and  C_11 
REMARK    5  A    between atoms: C_11  and  N_12 
REMARK    6  A    between atoms: C_11  and  C_16 
ROOT
HETATM    1  C   UNL     1      42.770 -15.317   3.462  1.00  0.00     0.118 A 
HETATM    2  N   UNL     1      43.375 -16.413   2.906  1.00  0.00    -0.350 N 
HETATM    3  H   UNL     1      43.707 -16.468   1.950  1.00  0.00     0.166 HD
HETATM    4  C   UNL     1      43.547 -17.395   3.847  1.00  0.00     0.043 A 
HETATM    5  C   UNL     1      42.955 -16.953   5.034  1.00  0.00     0.002 A 
HETATM    6  C   UNL     1      42.408 -15.641   4.779  1.00  0.00     0.022 A 
HETATM    7  C   UNL     1      44.180 -18.636   3.716  1.00  0.00     0.030 A 
HETATM    8  C   UNL     1      44.225 -19.468   4.834  1.00  0.00     0.002 A 
HETATM    9  C   UNL     1      43.651 -19.069   6.034  1.00  0.00     0.001 A 
HETATM   10  C   UNL     1      43.016 -17.825   6.145  1.00  0.00     0.014 A 
ENDROOT
BRANCH   6  11
HETATM   11  C   UNL     1      41.634 -14.684   5.660  1.00  0.00     0.252 C 
BRANCH  11  12
HETATM   12  N   UNL     1      40.320 -14.370   5.062  1.00  0.00    -0.067 N 
HETATM   13  H   UNL     1      39.700 -15.185   5.082  1.00  0.00     0.275 HD
HETATM   14  H   UNL     1      39.883 -13.574   5.531  1.00  0.00     0.275 HD
HETATM   15  H   UNL     1      40.481 -14.122   4.071  1.00  0.00     0.275 HD
ENDBRANCH  11  12
BRANCH  11  16
HETATM   16  C   UNL     1      42.464 -13.483   6.041  1.00  0.00    -0.024 A 
HETATM   17  C   UNL     1      41.909 -12.196   5.878  1.00  0.00     0.009 A 
HETATM   18  C   UNL     1      42.650 -11.051   6.170  1.00  0.00     0.001 A 
HETATM   19  C   UNL     1      43.958 -11.167   6.629  1.00  0.00     0.000 A 
HETATM   20  C   UNL     1      44.526 -12.428   6.799  1.00  0.00     0.001 A 
HETATM   21  C   UNL     1      43.789 -13.579   6.507  1.00  0.00     0.009 A 
ENDBRANCH  11  16
ENDBRANCH   6  11
BRANCH   1  22
HETATM   22  C   UNL     1      42.576 -14.060   2.779  1.00  0.00     0.310 C 
HETATM   23  O   UNL     1      43.471 -13.229   2.664  1.00  0.00    -0.258 OA
BRANCH  22  24
HETATM   24  O   UNL     1      41.311 -13.967   2.309  1.00  0.00    -0.317 OA
BRANCH  24  25
HETATM   25  C   UNL     1      41.046 -14.626   1.060  1.00  0.00     0.175 C 
HETATM   26  C   UNL     1      39.961 -15.669   1.256  1.00  0.00     0.034 C 
ENDBRANCH  24  25
ENDBRANCH  22  24
ENDBRANCH   1  22
TORSDOF 6
ENDMDL
MODEL 6
REMARK VINA RESULT:      -6.7      7.805     10.885
REMARK  6 active torsions:
REMARK  status: ('A' for Active; 'I' for Inactive)
REMARK    1  A    between atoms: C_2  and  O_3 
REMARK    2  A    between atoms: O_3  and  C_4 
REMARK    3  A    between atoms: C_4  and  C_5 
REMARK    4  A    between atoms: C_10  and  C_11 
REMARK    5  A    between atoms: C_11  and  N_12 
REMARK    6  A    between atoms: C_11  and  C_16 
ROOT
HETATM    1  C   UNL     1      43.594  -8.746   8.845  1.00  0.00     0.118 A 
HETATM    2  N   UNL     1      42.753  -8.118   7.964  1.00  0.00    -0.350 N 
HETATM    3  H   UNL     1      43.024  -7.771   7.052  1.00  0.00     0.166 HD
HETATM    4  C   UNL     1      41.472  -8.101   8.453  1.00  0.00     0.043 A 
HETATM    5  C   UNL     1      41.500  -8.662   9.733  1.00  0.00     0.002 A 
HETATM    6  C   UNL     1      42.868  -9.029  10.012  1.00  0.00     0.022 A 
HETATM    7  C   UNL     1      40.305  -7.623   7.844  1.00  0.00     0.030 A 
HETATM    8  C   UNL     1      39.111  -7.720   8.557  1.00  0.00     0.002 A 
HETATM    9  C   UNL     1      39.091  -8.270   9.831  1.00  0.00     0.001 A 
HETATM   10  C   UNL     1      40.270  -8.739  10.427  1.00  0.00     0.014 A 
ENDROOT
BRANCH   6  11
HETATM   11  C   UNL     1      43.516  -9.644  11.234  1.00  0.00     0.252 C 
BRANCH  11  12
HETATM   12  N   UNL     1      43.331 -11.110  11.242  1.00  0.00    -0.067 N 
HETATM   13  H   UNL     1      42.450 -11.369  11.693  1.00  0.00     0.275 HD
HETATM   14  H   UNL     1      43.376 -11.492  10.294  1.00  0.00     0.275 HD
HETATM   15  H   UNL     1      44.102 -11.518  11.799  1.00  0.00     0.275 HD
ENDBRANCH  11  12
BRANCH  11  16
HETATM   16  C   UNL     1      43.093  -8.942  12.501  1.00  0.00    -0.024 A 
HETATM   17  C   UNL     1      42.148  -9.570  13.340  1.00  0.00     0.009 A 
HETATM   18  C   UNL     1      41.688  -8.944  14.499  1.00  0.00     0.001 A 
HETATM   19  C   UNL     1      42.159  -7.681  14.842  1.00  0.00     0.000 A 
HETATM   20  C   UNL     1      43.093  -7.043  14.028  1.00  0.00     0.001 A 
HETATM   21  C   UNL     1      43.558  -7.665  12.866  1.00  0.00     0.009 A 
ENDBRANCH  11  16
ENDBRANCH   6  11
BRANCH   1  22
HETATM   22  C   UNL     1      44.976  -9.058   8.569  1.00  0.00     0.310 C 
HETATM   23  O   UNL     1      45.794  -8.200   8.257  1.00  0.00    -0.258 OA
BRANCH  22  24
HETATM   24  O   UNL     1      45.199 -10.384   8.714  1.00  0.00    -0.317 OA
BRANCH  24  25
HETATM   25  C   UNL     1      44.686 -11.233   7.674  1.00  0.00     0.175 C 
HETATM   26  C   UNL     1      45.683 -11.297   6.531  1.00  0.00     0.034 C 
ENDBRANCH  24  25
ENDBRANCH  22  24
ENDBRANCH   1  22
TORSDOF 6
ENDMDL
MODEL 7
REMARK VINA RESULT:      -6.5      9.802     11.640
REMARK  6 active torsions:
REMARK  status: ('A' for Active; 'I' for Inactive)
REMARK    1  A    between atoms: C_2  and  O_3 
REMARK    2  A    between atoms: O_3  and  C_4 
REMARK    3  A    between atoms: C_4  and  C_5 
REMARK    4  A    between atoms: C_10  and  C_11 
REMARK    5  A    between atoms: C_11  and  N_12 
REMARK    6  A    between atoms: C_11  and  C_16 
ROOT
HETATM    1  C   UNL     1      41.278  -8.978  10.268  1.00  0.00     0.118 A 
HETATM    2  N   UNL     1      41.869  -8.735   9.056  1.00  0.00    -0.350 N 
HETATM    3  H   UNL     1      41.390  -8.370   8.241  1.00  0.00     0.166 HD
HETATM    4  C   UNL     1      43.217  -8.973   9.123  1.00  0.00     0.043 A 
HETATM    5  C   UNL     1      43.496  -9.470  10.399  1.00  0.00     0.002 A 
HETATM    6  C   UNL     1      42.248  -9.526  11.122  1.00  0.00     0.022 A 
HETATM    7  C   UNL     1      44.193  -8.784   8.137  1.00  0.00     0.030 A 
HETATM    8  C   UNL     1      45.512  -9.106   8.455  1.00  0.00     0.002 A 
HETATM    9  C   UNL     1      45.836  -9.602   9.710  1.00  0.00     0.001 A 
HETATM   10  C   UNL     1      44.845  -9.790  10.683  1.00  0.00     0.014 A 
ENDROOT
BRANCH   6  11
HETATM   11  C   UNL     1      41.914  -9.999  12.520  1.00  0.00     0.252 C 
BRANCH  11  12
HETATM   12  N   UNL     1      40.573 -10.619  12.556  1.00  0.00    -0.067 N 
HETATM   13  H   UNL     1      40.287 -10.825  13.518  1.00  0.00     0.275 HD
HETATM   14  H   UNL     1      39.880 -10.026  12.094  1.00  0.00     0.275 HD
HETATM   15  H   UNL     1      40.632 -11.517  12.046  1.00  0.00     0.275 HD
ENDBRANCH  11  12
BRANCH  11  16
HETATM   16  C   UNL     1      42.141  -8.913  13.544  1.00  0.00    -0.024 A 
HETATM   17  C   UNL     1      41.325  -8.885  14.694  1.00  0.00     0.009 A 
HETATM   18  C   UNL     1      41.461  -7.876  15.649  1.00  0.00     0.001 A 
HETATM   19  C   UNL     1      42.413  -6.877  15.473  1.00  0.00     0.000 A 
HETATM   20  C   UNL     1      43.230  -6.886  14.345  1.00  0.00     0.001 A 
HETATM   21  C   UNL     1      43.098  -7.894  13.385  1.00  0.00     0.009 A 
ENDBRANCH  11  16
ENDBRANCH   6  11
BRANCH   1  22
HETATM   22  C   UNL     1      39.898  -8.687  10.574  1.00  0.00     0.310 C 
HETATM   23  O   UNL     1      38.978  -9.418  10.222  1.00  0.00    -0.258 OA
BRANCH  22  24
HETATM   24  O   UNL     1      39.802  -7.538  11.281  1.00  0.00    -0.317 OA
BRANCH  24  25
HETATM   25  C   UNL     1      38.801  -7.506  12.312  1.00  0.00     0.175 C 
HETATM   26  C   UNL     1      39.077  -6.348  13.253  1.00  0.00     0.034 C 
ENDBRANCH  24  25
ENDBRANCH  22  24
ENDBRANCH   1  22
TORSDOF 6
ENDMDL
MODEL 8
REMARK VINA RESULT:      -6.4      2.327      3.273
REMARK  6 active torsions:
REMARK  status: ('A' for Active; 'I' for Inactive)
REMARK    1  A    between atoms: C_2  and  O_3 
REMARK    2  A    between atoms: O_3  and  C_4 
REMARK    3  A    between atoms: C_4  and  C_5 
REMARK    4  A    between atoms: C_10  and  C_11 
REMARK    5  A    between atoms: C_11  and  N_12 
REMARK    6  A    between atoms: C_11  and  C_16 
ROOT
HETATM    1  C   UNL     1      41.381 -15.101   3.337  1.00  0.00     0.118 A 
HETATM    2  N   UNL     1      41.811 -16.012   2.409  1.00  0.00    -0.350 N 
HETATM    3  H   UNL     1      41.637 -15.949   1.412  1.00  0.00     0.166 HD
HETATM    4  C   UNL     1      42.583 -16.974   3.004  1.00  0.00     0.043 A 
HETATM    5  C   UNL     1      42.583 -16.727   4.380  1.00  0.00     0.002 A 
HETATM    6  C   UNL     1      41.769 -15.556   4.606  1.00  0.00     0.022 A 
HETATM    7  C   UNL     1      43.271 -18.041   2.411  1.00  0.00     0.030 A 
HETATM    8  C   UNL     1      43.995 -18.893   3.244  1.00  0.00     0.002 A 
HETATM    9  C   UNL     1      44.023 -18.686   4.615  1.00  0.00     0.001 A 
HETATM   10  C   UNL     1      43.325 -17.616   5.192  1.00  0.00     0.014 A 
ENDROOT
BRANCH   6  11
HETATM   11  C   UNL     1      41.376 -14.833   5.876  1.00  0.00     0.252 C 
BRANCH  11  12
HETATM   12  N   UNL     1      39.906 -14.736   5.989  1.00  0.00    -0.067 N 
HETATM   13  H   UNL     1      39.444 -15.193   5.198  1.00  0.00     0.275 HD
HETATM   14  H   UNL     1      39.578 -15.129   6.874  1.00  0.00     0.275 HD
HETATM   15  H   UNL     1      39.658 -13.732   5.960  1.00  0.00     0.275 HD
ENDBRANCH  11  12
BRANCH  11  16
HETATM   16  C   UNL     1      42.114 -13.525   6.023  1.00  0.00    -0.024 A 
HETATM   17  C   UNL     1      43.521 -13.549   6.126  1.00  0.00     0.009 A 
HETATM   18  C   UNL     1      44.249 -12.372   6.310  1.00  0.00     0.001 A 
HETATM   19  C   UNL     1      43.587 -11.152   6.395  1.00  0.00     0.000 A 
HETATM   20  C   UNL     1      42.198 -11.105   6.295  1.00  0.00     0.001 A 
HETATM   21  C   UNL     1      41.464 -12.280   6.111  1.00  0.00     0.009 A 
ENDBRANCH  11  16
ENDBRANCH   6  11
BRANCH   1  22
HETATM   22  C   UNL     1      40.669 -13.886   3.016  1.00  0.00     0.310 C 
HETATM   23  O   UNL     1      39.577 -13.615   3.503  1.00  0.00    -0.258 OA
BRANCH  22  24
HETATM   24  O   UNL     1      41.381 -13.138   2.142  1.00  0.00    -0.317 OA
BRANCH  24  25
HETATM   25  C   UNL     1      42.586 -12.541   2.649  1.00  0.00     0.175 C 
HETATM   26  C   UNL     1      42.435 -11.031   2.671  1.00  0.00     0.034 C 
ENDBRANCH  24  25
ENDBRANCH  22  24
ENDBRANCH   1  22
TORSDOF 6
ENDMDL
MODEL 9
REMARK VINA RESULT:      -6.4     13.077     14.625
REMARK  6 active torsions:
REMARK  status: ('A' for Active; 'I' for Inactive)
REMARK    1  A    between atoms: C_2  and  O_3 
REMARK    2  A    between atoms: O_3  and  C_4 
REMARK    3  A    between atoms: C_4  and  C_5 
REMARK    4  A    between atoms: C_10  and  C_11 
REMARK    5  A    between atoms: C_11  and  N_12 
REMARK    6  A    between atoms: C_11  and  C_16 
ROOT
HETATM    1  C   UNL     1      44.003 -29.477   1.782  1.00  0.00     0.118 A 
HETATM    2  N   UNL     1      44.897 -28.961   2.682  1.00  0.00    -0.350 N 
HETATM    3  H   UNL     1      44.646 -28.471   3.532  1.00  0.00     0.166 HD
HETATM    4  C   UNL     1      46.180 -29.276   2.317  1.00  0.00     0.043 A 
HETATM    5  C   UNL     1      46.120 -29.946   1.092  1.00  0.00     0.002 A 
HETATM    6  C   UNL     1      44.729 -30.032   0.716  1.00  0.00     0.022 A 
HETATM    7  C   UNL     1      47.378 -29.005   2.991  1.00  0.00     0.030 A 
HETATM    8  C   UNL     1      48.568 -29.435   2.405  1.00  0.00     0.002 A 
HETATM    9  C   UNL     1      48.555 -30.104   1.190  1.00  0.00     0.001 A 
HETATM   10  C   UNL     1      47.348 -30.362   0.526  1.00  0.00     0.014 A 
ENDROOT
BRANCH   6  11
HETATM   11  C   UNL     1      44.049 -30.613  -0.505  1.00  0.00     0.252 C 
BRANCH  11  12
HETATM   12  N   UNL     1      44.310 -32.064  -0.607  1.00  0.00    -0.067 N 
HETATM   13  H   UNL     1      43.934 -32.445  -1.480  1.00  0.00     0.275 HD
HETATM   14  H   UNL     1      45.309 -32.265  -0.527  1.00  0.00     0.275 HD
HETATM   15  H   UNL     1      43.815 -32.524   0.176  1.00  0.00     0.275 HD
ENDBRANCH  11  12
BRANCH  11  16
HETATM   16  C   UNL     1      44.367 -29.819  -1.749  1.00  0.00    -0.024 A 
HETATM   17  C   UNL     1      44.204 -30.437  -3.007  1.00  0.00     0.009 A 
HETATM   18  C   UNL     1      44.528 -29.764  -4.186  1.00  0.00     0.001 A 
HETATM   19  C   UNL     1      45.020 -28.465  -4.132  1.00  0.00     0.000 A 
HETATM   20  C   UNL     1      45.188 -27.835  -2.901  1.00  0.00     0.001 A 
HETATM   21  C   UNL     1      44.866 -28.504  -1.716  1.00  0.00     0.009 A 
ENDBRANCH  11  16
ENDBRANCH   6  11
BRANCH   1  22
HETATM   22  C   UNL     1      42.569 -29.448   1.951  1.00  0.00     0.310 C 
HETATM   23  O   UNL     1      41.844 -28.708   1.295  1.00  0.00    -0.258 OA
BRANCH  22  24
HETATM   24  O   UNL     1      42.187 -30.335   2.899  1.00  0.00    -0.317 OA
BRANCH  24  25
HETATM   25  C   UNL     1      41.022 -31.122   2.602  1.00  0.00     0.175 C 
HETATM   26  C   UNL     1      41.356 -32.138   1.525  1.00  0.00     0.034 C 
ENDBRANCH  24  25
ENDBRANCH  22  24
ENDBRANCH   1  22
TORSDOF 6
ENDMDL
MODEL 10
REMARK VINA RESULT:      -6.3     13.559     15.489
REMARK  6 active torsions:
REMARK  status: ('A' for Active; 'I' for Inactive)
REMARK    1  A    between atoms: C_2  and  O_3 
REMARK    2  A    between atoms: O_3  and  C_4 
REMARK    3  A    between atoms: C_4  and  C_5 
REMARK    4  A    between atoms: C_10  and  C_11 
REMARK    5  A    between atoms: C_11  and  N_12 
REMARK    6  A    between atoms: C_11  and  C_16 
ROOT
HETATM    1  C   UNL     1      48.252 -29.409   0.707  1.00  0.00     0.118 A 
HETATM    2  N   UNL     1      49.579 -29.467   0.371  1.00  0.00    -0.350 N 
HETATM    3  H   UNL     1      50.327 -29.024   0.889  1.00  0.00     0.166 HD
HETATM    4  C   UNL     1      49.763 -30.282  -0.716  1.00  0.00     0.043 A 
HETATM    5  C   UNL     1      48.502 -30.698  -1.152  1.00  0.00     0.002 A 
HETATM    6  C   UNL     1      47.524 -30.098  -0.276  1.00  0.00     0.022 A 
HETATM    7  C   UNL     1      50.959 -30.667  -1.334  1.00  0.00     0.030 A 
HETATM    8  C   UNL     1      50.880 -31.514  -2.438  1.00  0.00     0.002 A 
HETATM    9  C   UNL     1      49.649 -31.952  -2.906  1.00  0.00     0.001 A 
HETATM   10  C   UNL     1      48.461 -31.553  -2.278  1.00  0.00     0.014 A 
ENDROOT
BRANCH   6  11
HETATM   11  C   UNL     1      46.011 -30.155  -0.265  1.00  0.00     0.252 C 
BRANCH  11  12
HETATM   12  N   UNL     1      45.542 -31.503   0.118  1.00  0.00    -0.067 N 
HETATM   13  H   UNL     1      46.236 -32.217  -0.119  1.00  0.00     0.275 HD
HETATM   14  H   UNL     1      45.309 -31.543   1.112  1.00  0.00     0.275 HD
HETATM   15  H   UNL     1      44.687 -31.701  -0.430  1.00  0.00     0.275 HD
ENDBRANCH  11  12
BRANCH  11  16
HETATM   16  C   UNL     1      45.425 -29.617  -1.548  1.00  0.00    -0.024 A 
HETATM   17  C   UNL     1      44.532 -30.429  -2.277  1.00  0.00     0.009 A 
HETATM   18  C   UNL     1      43.997 -29.998  -3.493  1.00  0.00     0.001 A 
HETATM   19  C   UNL     1      44.346 -28.752  -4.003  1.00  0.00     0.000 A 
HETATM   20  C   UNL     1      45.226 -27.933  -3.299  1.00  0.00     0.001 A 
HETATM   21  C   UNL     1      45.765 -28.359  -2.081  1.00  0.00     0.009 A 
ENDBRANCH  11  16
ENDBRANCH   6  11
BRANCH   1  22
HETATM   22  C   UNL     1      47.739 -28.755   1.887  1.00  0.00     0.310 C 
HETATM   23  O   UNL     1      47.241 -27.635   1.855  1.00  0.00    -0.258 OA
BRANCH  22  24
HETATM   24  O   UNL     1      47.888 -29.551   2.971  1.00  0.00    -0.317 OA
BRANCH  24  25
HETATM   25  C   UNL     1      48.846 -29.120   3.950  1.00  0.00     0.175 C 
HETATM   26  C   UNL     1      50.000 -30.105   4.000  1.00  0.00     0.034 C 
ENDBRANCH  24  25
ENDBRANCH  22  24
ENDBRANCH   1  22
TORSDOF 6
ENDMDL
