MODEL 1
REMARK VINA RESULT:      -8.3      0.000      0.000
REMARK  6 active torsions:
REMARK  status: ('A' for Active; 'I' for Inactive)
REMARK    1  A    between atoms: O_2  and  C_3 
REMARK    2  A    between atoms: C_7  and  C_8 
REMARK    3  A    between atoms: C_8  and  N_9 
REMARK    4  A    between atoms: N_9  and  C_10 
REMARK       I    between atoms: N_9  and  C_13 
REMARK       I    between atoms: C_13  and  N_15 
REMARK    5  A    between atoms: N_15  and  C_16 
REMARK    6  A    between atoms: C_19  and  C_22 
ROOT
HETATM    1  N   UNL     1      42.919 -16.056   4.768  1.00  0.00    -0.325 N 
HETATM    2  C   UNL     1      42.570 -15.794   3.431  1.00  0.00     0.323 C 
HETATM    3  O   UNL     1      43.201 -16.281   2.494  1.00  0.00    -0.247 OA
HETATM    4  N   UNL     1      41.491 -14.945   3.285  1.00  0.00    -0.309 N 
HETATM    5  H   UNL     1      41.017 -14.689   4.133  1.00  0.00     0.170 HD
ENDROOT
BRANCH   1   6
HETATM    6  C   UNL     1      44.173 -16.781   5.000  1.00  0.00     0.166 C 
BRANCH   6   7
HETATM    7  C   UNL     1      43.974 -18.280   5.052  1.00  0.00    -0.037 A 
HETATM    8  C   UNL     1      43.650 -18.916   6.257  1.00  0.00     0.009 A 
HETATM    9  C   UNL     1      43.459 -20.296   6.298  1.00  0.00     0.003 A 
HETATM   10  C   UNL     1      43.593 -21.060   5.136  1.00  0.00     0.037 A 
HETATM   11  C   UNL     1      43.919 -20.445   3.928  1.00  0.00     0.068 A 
HETATM   12  C   UNL     1      44.100 -19.059   3.891  1.00  0.00     0.045 A 
BRANCH  11  13
HETATM   13  O   UNL     1      44.083 -21.074   2.724  1.00  0.00    -0.356 OA
HETATM   14  C   UNL     1      43.503 -20.442   1.589  1.00  0.00     0.210 C 
ENDBRANCH  11  13
ENDBRANCH   6   7
ENDBRANCH   1   6
BRANCH   1  15
HETATM   15  C   UNL     1      42.309 -15.417   5.914  1.00  0.00     0.089 A 
HETATM   16  C   UNL     1      41.263 -16.124   6.743  1.00  0.00     0.027 A 
HETATM   17  C   UNL     1      42.608 -15.840   7.332  1.00  0.00     0.027 A 
ENDBRANCH   1  15
BRANCH   4  18
HETATM   18  C   UNL     1      40.955 -14.416   2.093  1.00  0.00     0.036 A 
HETATM   19  C   UNL     1      40.377 -15.184   1.083  1.00  0.00     0.030 A 
HETATM   20  C   UNL     1      39.885 -14.580  -0.083  1.00  0.00     0.014 A 
HETATM   21  C   UNL     1      39.967 -13.195  -0.264  1.00  0.00    -0.023 A 
HETATM   22  C   UNL     1      40.541 -12.424   0.753  1.00  0.00     0.014 A 
HETATM   23  C   UNL     1      41.030 -13.029   1.918  1.00  0.00     0.030 A 
BRANCH  21  24
HETATM   24  C   UNL     1      39.461 -12.585  -1.481  1.00  0.00     0.010 A 
HETATM   25  C   UNL     1      39.894 -11.439  -2.190  1.00  0.00     0.152 A 
HETATM   26  N   UNL     1      39.146 -11.183  -3.267  1.00  0.00    -0.187 NA
HETATM   27  N   UNL     1      38.224 -12.158  -3.247  1.00  0.00    -0.289 N 
HETATM   28  H   UNL     1      37.521 -12.170  -3.978  1.00  0.00     0.188 HD
HETATM   29  C   UNL     1      38.369 -13.023  -2.201  1.00  0.00     0.123 A 
ENDBRANCH  21  24
ENDBRANCH   4  18
TORSDOF 6
ENDMDL
MODEL 2
REMARK VINA RESULT:      -8.0      4.820      8.864
REMARK  6 active torsions:
REMARK  status: ('A' for Active; 'I' for Inactive)
REMARK    1  A    between atoms: O_2  and  C_3 
REMARK    2  A    between atoms: C_7  and  C_8 
REMARK    3  A    between atoms: C_8  and  N_9 
REMARK    4  A    between atoms: N_9  and  C_10 
REMARK       I    between atoms: N_9  and  C_13 
REMARK       I    between atoms: C_13  and  N_15 
REMARK    5  A    between atoms: N_15  and  C_16 
REMARK    6  A    between atoms: C_19  and  C_22 
ROOT
HETATM    1  N   UNL     1      42.189 -11.654   5.506  1.00  0.00    -0.325 N 
HETATM    2  C   UNL     1      42.304 -13.056   5.525  1.00  0.00     0.323 C 
HETATM    3  O   UNL     1      42.152 -13.700   6.562  1.00  0.00    -0.247 OA
HETATM    4  N   UNL     1      42.616 -13.613   4.301  1.00  0.00    -0.309 N 
HETATM    5  H   UNL     1      42.629 -12.978   3.521  1.00  0.00     0.170 HD
ENDROOT
BRANCH   1   6
HETATM    6  C   UNL     1      42.061 -10.978   6.802  1.00  0.00     0.166 C 
BRANCH   6   7
HETATM    7  C   UNL     1      43.386 -10.467   7.322  1.00  0.00    -0.037 A 
HETATM    8  C   UNL     1      44.504 -11.307   7.374  1.00  0.00     0.009 A 
HETATM    9  C   UNL     1      45.726 -10.828   7.845  1.00  0.00     0.003 A 
HETATM   10  C   UNL     1      45.844  -9.505   8.276  1.00  0.00     0.037 A 
HETATM   11  C   UNL     1      44.740  -8.654   8.236  1.00  0.00     0.068 A 
HETATM   12  C   UNL     1      43.520  -9.138   7.752  1.00  0.00     0.045 A 
BRANCH  11  13
HETATM   13  O   UNL     1      44.719  -7.344   8.628  1.00  0.00    -0.356 OA
HETATM   14  C   UNL     1      43.505  -6.865   9.192  1.00  0.00     0.210 C 
ENDBRANCH  11  13
ENDBRANCH   6   7
ENDBRANCH   1   6
BRANCH   1  15
HETATM   15  C   UNL     1      42.483 -10.823   4.359  1.00  0.00     0.089 A 
HETATM   16  C   UNL     1      41.445 -10.555   3.296  1.00  0.00     0.027 A 
HETATM   17  C   UNL     1      41.898  -9.442   4.187  1.00  0.00     0.027 A 
ENDBRANCH   1  15
BRANCH   4  18
HETATM   18  C   UNL     1      42.892 -14.963   4.004  1.00  0.00     0.036 A 
HETATM   19  C   UNL     1      42.714 -15.543   2.749  1.00  0.00     0.030 A 
HETATM   20  C   UNL     1      42.991 -16.902   2.542  1.00  0.00     0.014 A 
HETATM   21  C   UNL     1      43.448 -17.709   3.590  1.00  0.00    -0.023 A 
HETATM   22  C   UNL     1      43.632 -17.125   4.848  1.00  0.00     0.014 A 
HETATM   23  C   UNL     1      43.356 -15.767   5.052  1.00  0.00     0.030 A 
BRANCH  21  24
HETATM   24  C   UNL     1      43.724 -19.117   3.362  1.00  0.00     0.010 A 
HETATM   25  C   UNL     1      43.688 -19.885   2.173  1.00  0.00     0.152 A 
HETATM   26  N   UNL     1      43.987 -21.171   2.377  1.00  0.00    -0.187 NA
HETATM   27  N   UNL     1      44.207 -21.234   3.699  1.00  0.00    -0.289 N 
HETATM   28  H   UNL     1      44.448 -22.133   4.104  1.00  0.00     0.188 HD
HETATM   29  C   UNL     1      44.064 -20.034   4.334  1.00  0.00     0.123 A 
ENDBRANCH  21  24
ENDBRANCH   4  18
TORSDOF 6
ENDMDL
MODEL 3
REMARK VINA RESULT:      -7.8      4.964      9.149
REMARK  6 active torsions:
REMARK  status: ('A' for Active; 'I' for Inactive)
REMARK    1  A    between atoms: O_2  and  C_3 
REMARK    2  A    between atoms: C_7  and  C_8 
REMARK    3  A    between atoms: C_8  and  N_9 
REMARK    4  A    between atoms: N_9  and  C_10 
REMARK       I    between atoms: N_9  and  C_13 
REMARK       I    between atoms: C_13  and  N_15 
REMARK    5  A    between atoms: N_15  and  C_16 
REMARK    6  A    between atoms: C_19  and  C_22 
ROOT
HETATM    1  N   UNL     1      43.020 -11.482   6.265  1.00  0.00    -0.325 N 
HETATM    2  C   UNL     1      43.530 -12.793   6.245  1.00  0.00     0.323 C 
HETATM    3  O   UNL     1      44.647 -13.055   6.688  1.00  0.00    -0.247 OA
HETATM    4  N   UNL     1      42.681 -13.720   5.676  1.00  0.00    -0.309 N 
HETATM    5  H   UNL     1      41.765 -13.384   5.431  1.00  0.00     0.170 HD
ENDROOT
BRANCH   1   6
HETATM    6  C   UNL     1      43.942 -10.414   6.667  1.00  0.00     0.166 C 
BRANCH   6   7
HETATM    7  C   UNL     1      44.031 -10.261   8.169  1.00  0.00    -0.037 A 
HETATM    8  C   UNL     1      45.269 -10.326   8.821  1.00  0.00     0.009 A 
HETATM    9  C   UNL     1      45.348 -10.174  10.205  1.00  0.00     0.003 A 
HETATM   10  C   UNL     1      44.190  -9.961  10.956  1.00  0.00     0.037 A 
HETATM   11  C   UNL     1      42.948  -9.898  10.325  1.00  0.00     0.068 A 
HETATM   12  C   UNL     1      42.877 -10.040   8.936  1.00  0.00     0.045 A 
BRANCH  11  13
HETATM   13  O   UNL     1      41.742  -9.698  10.941  1.00  0.00    -0.356 OA
HETATM   14  C   UNL     1      41.730  -9.771  12.361  1.00  0.00     0.210 C 
ENDBRANCH  11  13
ENDBRANCH   6   7
ENDBRANCH   1   6
BRANCH   1  15
HETATM   15  C   UNL     1      41.777 -11.077   5.646  1.00  0.00     0.089 A 
HETATM   16  C   UNL     1      40.523 -10.868   6.462  1.00  0.00     0.027 A 
HETATM   17  C   UNL     1      41.195  -9.695   5.823  1.00  0.00     0.027 A 
ENDBRANCH   1  15
BRANCH   4  18
HETATM   18  C   UNL     1      42.927 -15.084   5.420  1.00  0.00     0.036 A 
HETATM   19  C   UNL     1      43.047 -16.059   6.409  1.00  0.00     0.030 A 
HETATM   20  C   UNL     1      43.315 -17.393   6.070  1.00  0.00     0.014 A 
HETATM   21  C   UNL     1      43.473 -17.777   4.734  1.00  0.00    -0.023 A 
HETATM   22  C   UNL     1      43.346 -16.800   3.742  1.00  0.00     0.014 A 
HETATM   23  C   UNL     1      43.077 -15.467   4.082  1.00  0.00     0.030 A 
BRANCH  21  24
HETATM   24  C   UNL     1      43.757 -19.162   4.400  1.00  0.00     0.010 A 
HETATM   25  C   UNL     1      43.742 -19.834   3.154  1.00  0.00     0.152 A 
HETATM   26  N   UNL     1      44.043 -21.131   3.261  1.00  0.00    -0.187 NA
HETATM   27  N   UNL     1      44.244 -21.298   4.577  1.00  0.00    -0.289 N 
HETATM   28  H   UNL     1      44.482 -22.225   4.913  1.00  0.00     0.188 HD
HETATM   29  C   UNL     1      44.087 -20.152   5.302  1.00  0.00     0.123 A 
ENDBRANCH  21  24
ENDBRANCH   4  18
TORSDOF 6
ENDMDL
MODEL 4
REMARK VINA RESULT:      -7.6      2.906      9.756
REMARK  6 active torsions:
REMARK  status: ('A' for Active; 'I' for Inactive)
REMARK    1  A    between atoms: O_2  and  C_3 
REMARK    2  A    between atoms: C_7  and  C_8 
REMARK    3  A    between atoms: C_8  and  N_9 
REMARK    4  A    between atoms: N_9  and  C_10 
REMARK       I    between atoms: N_9  and  C_13 
REMARK       I    between atoms: C_13  and  N_15 
REMARK    5  A    between atoms: N_15  and  C_16 
REMARK    6  A    between atoms: C_19  and  C_22 
ROOT
HETATM    1  N   UNL     1      39.064 -13.144  -1.146  1.00  0.00    -0.325 N 
HETATM    2  C   UNL     1      39.520 -13.455   0.148  1.00  0.00     0.323 C 
HETATM    3  O   UNL     1      39.302 -12.710   1.102  1.00  0.00    -0.247 OA
HETATM    4  N   UNL     1      40.231 -14.635   0.228  1.00  0.00    -0.309 N 
HETATM    5  H   UNL     1      40.261 -15.186  -0.613  1.00  0.00     0.170 HD
ENDROOT
BRANCH   1   6
HETATM    6  C   UNL     1      38.481 -11.813  -1.346  1.00  0.00     0.166 C 
BRANCH   6   7
HETATM    7  C   UNL     1      39.443 -10.853  -2.010  1.00  0.00    -0.037 A 
HETATM    8  C   UNL     1      39.209 -10.396  -3.313  1.00  0.00     0.009 A 
HETATM    9  C   UNL     1      40.093  -9.504  -3.918  1.00  0.00     0.003 A 
HETATM   10  C   UNL     1      41.225  -9.060  -3.231  1.00  0.00     0.037 A 
HETATM   11  C   UNL     1      41.477  -9.507  -1.934  1.00  0.00     0.068 A 
HETATM   12  C   UNL     1      40.581 -10.395  -1.329  1.00  0.00     0.045 A 
BRANCH  11  13
HETATM   13  O   UNL     1      42.544  -9.155  -1.155  1.00  0.00    -0.356 OA
HETATM   14  C   UNL     1      43.177  -7.918  -1.458  1.00  0.00     0.210 C 
ENDBRANCH  11  13
ENDBRANCH   6   7
ENDBRANCH   1   6
BRANCH   1  15
HETATM   15  C   UNL     1      39.394 -13.901  -2.334  1.00  0.00     0.089 A 
HETATM   16  C   UNL     1      38.736 -15.228  -2.628  1.00  0.00     0.027 A 
HETATM   17  C   UNL     1      38.439 -14.046  -3.494  1.00  0.00     0.027 A 
ENDBRANCH   1  15
BRANCH   4  18
HETATM   18  C   UNL     1      40.895 -15.178   1.347  1.00  0.00     0.036 A 
HETATM   19  C   UNL     1      42.280 -15.291   1.459  1.00  0.00     0.030 A 
HETATM   20  C   UNL     1      42.861 -15.864   2.599  1.00  0.00     0.014 A 
HETATM   21  C   UNL     1      42.067 -16.339   3.648  1.00  0.00    -0.023 A 
HETATM   22  C   UNL     1      40.677 -16.219   3.538  1.00  0.00     0.014 A 
HETATM   23  C   UNL     1      40.099 -15.645   2.399  1.00  0.00     0.030 A 
BRANCH  21  24
HETATM   24  C   UNL     1      42.684 -16.936   4.820  1.00  0.00     0.010 A 
HETATM   25  C   UNL     1      42.501 -16.670   6.198  1.00  0.00     0.152 A 
HETATM   26  N   UNL     1      43.280 -17.424   6.980  1.00  0.00    -0.187 NA
HETATM   27  N   UNL     1      43.971 -18.171   6.105  1.00  0.00    -0.289 N 
HETATM   28  H   UNL     1      44.650 -18.831   6.468  1.00  0.00     0.188 HD
HETATM   29  C   UNL     1      43.652 -17.919   4.802  1.00  0.00     0.123 A 
ENDBRANCH  21  24
ENDBRANCH   4  18
TORSDOF 6
ENDMDL
MODEL 5
REMARK VINA RESULT:      -7.5      1.471      2.266
REMARK  6 active torsions:
REMARK  status: ('A' for Active; 'I' for Inactive)
REMARK    1  A    between atoms: O_2  and  C_3 
REMARK    2  A    between atoms: C_7  and  C_8 
REMARK    3  A    between atoms: C_8  and  N_9 
REMARK    4  A    between atoms: N_9  and  C_10 
REMARK       I    between atoms: N_9  and  C_13 
REMARK       I    between atoms: C_13  and  N_15 
REMARK    5  A    between atoms: N_15  and  C_16 
REMARK    6  A    between atoms: C_19  and  C_22 
ROOT
HETATM    1  N   UNL     1      42.092 -15.657   3.360  1.00  0.00    -0.325 N 
HETATM    2  C   UNL     1      41.755 -15.146   2.094  1.00  0.00     0.323 C 
HETATM    3  O   UNL     1      42.509 -15.268   1.130  1.00  0.00    -0.247 OA
HETATM    4  N   UNL     1      40.538 -14.496   2.052  1.00  0.00    -0.309 N 
HETATM    5  H   UNL     1      39.987 -14.543   2.892  1.00  0.00     0.170 HD
ENDROOT
BRANCH   1   6
HETATM    6  C   UNL     1      43.452 -16.179   3.529  1.00  0.00     0.166 C 
BRANCH   6   7
HETATM    7  C   UNL     1      43.518 -17.683   3.381  1.00  0.00    -0.037 A 
HETATM    8  C   UNL     1      43.258 -18.291   2.147  1.00  0.00     0.009 A 
HETATM    9  C   UNL     1      43.330 -19.677   2.013  1.00  0.00     0.003 A 
HETATM   10  C   UNL     1      43.656 -20.474   3.112  1.00  0.00     0.037 A 
HETATM   11  C   UNL     1      43.914 -19.887   4.351  1.00  0.00     0.068 A 
HETATM   12  C   UNL     1      43.850 -18.495   4.476  1.00  0.00     0.045 A 
BRANCH  11  13
HETATM   13  O   UNL     1      44.240 -20.549   5.502  1.00  0.00    -0.356 OA
HETATM   14  C   UNL     1      43.547 -20.159   6.681  1.00  0.00     0.210 C 
ENDBRANCH  11  13
ENDBRANCH   6   7
ENDBRANCH   1   6
BRANCH   1  15
HETATM   15  C   UNL     1      41.319 -15.437   4.564  1.00  0.00     0.089 A 
HETATM   16  C   UNL     1      40.421 -16.512   5.129  1.00  0.00     0.027 A 
HETATM   17  C   UNL     1      41.652 -16.108   5.875  1.00  0.00     0.027 A 
ENDBRANCH   1  15
BRANCH   4  18
HETATM   18  C   UNL     1      39.960 -13.799   0.972  1.00  0.00     0.036 A 
HETATM   19  C   UNL     1      39.699 -14.362  -0.276  1.00  0.00     0.030 A 
HETATM   20  C   UNL     1      39.141 -13.591  -1.306  1.00  0.00     0.014 A 
HETATM   21  C   UNL     1      38.836 -12.240  -1.108  1.00  0.00    -0.023 A 
HETATM   22  C   UNL     1      39.092 -11.677   0.147  1.00  0.00     0.014 A 
HETATM   23  C   UNL     1      39.648 -12.449   1.175  1.00  0.00     0.030 A 
BRANCH  21  24
HETATM   24  C   UNL     1      38.265 -11.454  -2.187  1.00  0.00     0.010 A 
HETATM   25  C   UNL     1      38.794 -10.361  -2.916  1.00  0.00     0.152 A 
HETATM   26  N   UNL     1      37.943  -9.884  -3.828  1.00  0.00    -0.187 NA
HETATM   27  N   UNL     1      36.860 -10.664  -3.683  1.00  0.00    -0.289 N 
HETATM   28  H   UNL     1      36.057 -10.485  -4.275  1.00  0.00     0.188 HD
HETATM   29  C   UNL     1      37.002 -11.618  -2.716  1.00  0.00     0.123 A 
ENDBRANCH  21  24
ENDBRANCH   4  18
TORSDOF 6
ENDMDL
MODEL 6
REMARK VINA RESULT:      -7.5      2.752      9.007
REMARK  6 active torsions:
REMARK  status: ('A' for Active; 'I' for Inactive)
REMARK    1  A    between atoms: O_2  and  C_3 
REMARK    2  A    between atoms: C_7  and  C_8 
REMARK    3  A    between atoms: C_8  and  N_9 
REMARK    4  A    between atoms: N_9  and  C_10 
REMARK       I    between atoms: N_9  and  C_13 
REMARK       I    between atoms: C_13  and  N_15 
REMARK    5  A    between atoms: N_15  and  C_16 
REMARK    6  A    between atoms: C_19  and  C_22 
ROOT
HETATM    1  N   UNL     1      40.351 -12.413   1.480  1.00  0.00    -0.325 N 
HETATM    2  C   UNL     1      40.527 -13.778   1.773  1.00  0.00     0.323 C 
HETATM    3  O   UNL     1      39.575 -14.557   1.802  1.00  0.00    -0.247 OA
HETATM    4  N   UNL     1      41.834 -14.136   2.034  1.00  0.00    -0.309 N 
HETATM    5  H   UNL     1      42.521 -13.416   1.893  1.00  0.00     0.170 HD
ENDROOT
BRANCH   1   6
HETATM    6  C   UNL     1      38.972 -11.923   1.391  1.00  0.00     0.166 C 
BRANCH   6   7
HETATM    7  C   UNL     1      38.474 -11.845  -0.035  1.00  0.00    -0.037 A 
HETATM    8  C   UNL     1      37.503 -10.906  -0.402  1.00  0.00     0.009 A 
HETATM    9  C   UNL     1      37.054 -10.832  -1.720  1.00  0.00     0.003 A 
HETATM   10  C   UNL     1      37.566 -11.699  -2.688  1.00  0.00     0.037 A 
HETATM   11  C   UNL     1      38.531 -12.644  -2.340  1.00  0.00     0.068 A 
HETATM   12  C   UNL     1      38.985 -12.706  -1.018  1.00  0.00     0.045 A 
BRANCH  11  13
HETATM   13  O   UNL     1      39.111 -13.550  -3.185  1.00  0.00    -0.356 OA
HETATM   14  C   UNL     1      38.283 -14.608  -3.652  1.00  0.00     0.210 C 
ENDBRANCH  11  13
ENDBRANCH   6   7
ENDBRANCH   1   6
BRANCH   1  15
HETATM   15  C   UNL     1      41.398 -11.418   1.556  1.00  0.00     0.089 A 
HETATM   16  C   UNL     1      41.620 -10.424   0.441  1.00  0.00     0.027 A 
HETATM   17  C   UNL     1      41.108  -9.951   1.764  1.00  0.00     0.027 A 
ENDBRANCH   1  15
BRANCH   4  18
HETATM   18  C   UNL     1      42.327 -15.390   2.448  1.00  0.00     0.036 A 
HETATM   19  C   UNL     1      42.839 -16.356   1.584  1.00  0.00     0.030 A 
HETATM   20  C   UNL     1      43.291 -17.589   2.076  1.00  0.00     0.014 A 
HETATM   21  C   UNL     1      43.233 -17.882   3.443  1.00  0.00    -0.023 A 
HETATM   22  C   UNL     1      42.725 -16.909   4.310  1.00  0.00     0.014 A 
HETATM   23  C   UNL     1      42.276 -15.677   3.817  1.00  0.00     0.030 A 
BRANCH  21  24
HETATM   24  C   UNL     1      43.697 -19.167   3.935  1.00  0.00     0.010 A 
HETATM   25  C   UNL     1      44.173 -19.550   5.213  1.00  0.00     0.152 A 
HETATM   26  N   UNL     1      44.533 -20.835   5.268  1.00  0.00    -0.187 NA
HETATM   27  N   UNL     1      44.298 -21.280   4.024  1.00  0.00    -0.289 N 
HETATM   28  H   UNL     1      44.507 -22.249   3.812  1.00  0.00     0.188 HD
HETATM   29  C   UNL     1      43.796 -20.322   3.189  1.00  0.00     0.123 A 
ENDBRANCH  21  24
ENDBRANCH   4  18
TORSDOF 6
ENDMDL
MODEL 7
REMARK VINA RESULT:      -7.2      3.062      8.885
REMARK  6 active torsions:
REMARK  status: ('A' for Active; 'I' for Inactive)
REMARK    1  A    between atoms: O_2  and  C_3 
REMARK    2  A    between atoms: C_7  and  C_8 
REMARK    3  A    between atoms: C_8  and  N_9 
REMARK    4  A    between atoms: N_9  and  C_10 
REMARK       I    between atoms: N_9  and  C_13 
REMARK       I    between atoms: C_13  and  N_15 
REMARK    5  A    between atoms: N_15  and  C_16 
REMARK    6  A    between atoms: C_19  and  C_22 
ROOT
HETATM    1  N   UNL     1      41.645 -11.555   2.280  1.00  0.00    -0.325 N 
HETATM    2  C   UNL     1      41.722 -12.945   2.076  1.00  0.00     0.323 C 
HETATM    3  O   UNL     1      40.937 -13.529   1.330  1.00  0.00    -0.247 OA
HETATM    4  N   UNL     1      42.725 -13.566   2.792  1.00  0.00    -0.309 N 
HETATM    5  H   UNL     1      43.345 -12.957   3.296  1.00  0.00     0.170 HD
ENDROOT
BRANCH   1   6
HETATM    6  C   UNL     1      40.483 -10.861   1.715  1.00  0.00     0.166 C 
BRANCH   6   7
HETATM    7  C   UNL     1      40.696 -10.453   0.274  1.00  0.00    -0.037 A 
HETATM    8  C   UNL     1      41.704  -9.543  -0.068  1.00  0.00     0.009 A 
HETATM    9  C   UNL     1      41.903  -9.177  -1.399  1.00  0.00     0.003 A 
HETATM   10  C   UNL     1      41.094  -9.712  -2.405  1.00  0.00     0.037 A 
HETATM   11  C   UNL     1      40.082 -10.616  -2.082  1.00  0.00     0.068 A 
HETATM   12  C   UNL     1      39.894 -10.987  -0.747  1.00  0.00     0.045 A 
BRANCH  11  13
HETATM   13  O   UNL     1      39.222 -11.209  -2.965  1.00  0.00    -0.356 OA
HETATM   14  C   UNL     1      39.242 -12.630  -3.021  1.00  0.00     0.210 C 
ENDBRANCH  11  13
ENDBRANCH   6   7
ENDBRANCH   1   6
BRANCH   1  15
HETATM   15  C   UNL     1      42.444 -10.823   3.239  1.00  0.00     0.089 A 
HETATM   16  C   UNL     1      41.847  -9.721   4.081  1.00  0.00     0.027 A 
HETATM   17  C   UNL     1      42.282 -10.997   4.730  1.00  0.00     0.027 A 
ENDBRANCH   1  15
BRANCH   4  18
HETATM   18  C   UNL     1      43.005 -14.945   2.881  1.00  0.00     0.036 A 
HETATM   19  C   UNL     1      43.258 -15.768   1.784  1.00  0.00     0.030 A 
HETATM   20  C   UNL     1      43.506 -17.137   1.959  1.00  0.00     0.014 A 
HETATM   21  C   UNL     1      43.502 -17.711   3.234  1.00  0.00    -0.023 A 
HETATM   22  C   UNL     1      43.254 -16.884   4.335  1.00  0.00     0.014 A 
HETATM   23  C   UNL     1      43.007 -15.516   4.159  1.00  0.00     0.030 A 
BRANCH  21  24
HETATM   24  C   UNL     1      43.754 -19.132   3.398  1.00  0.00     0.010 A 
HETATM   25  C   UNL     1      43.681 -20.197   2.467  1.00  0.00     0.152 A 
HETATM   26  N   UNL     1      43.968 -21.382   3.012  1.00  0.00    -0.187 NA
HETATM   27  N   UNL     1      44.216 -21.084   4.297  1.00  0.00    -0.289 N 
HETATM   28  H   UNL     1      44.453 -21.841   4.928  1.00  0.00     0.188 HD
HETATM   29  C   UNL     1      44.103 -19.753   4.578  1.00  0.00     0.123 A 
ENDBRANCH  21  24
ENDBRANCH   4  18
TORSDOF 6
ENDMDL
MODEL 8
REMARK VINA RESULT:      -7.2      6.055      9.688
REMARK  6 active torsions:
REMARK  status: ('A' for Active; 'I' for Inactive)
REMARK    1  A    between atoms: O_2  and  C_3 
REMARK    2  A    between atoms: C_7  and  C_8 
REMARK    3  A    between atoms: C_8  and  N_9 
REMARK    4  A    between atoms: N_9  and  C_10 
REMARK       I    between atoms: N_9  and  C_13 
REMARK       I    between atoms: C_13  and  N_15 
REMARK    5  A    between atoms: N_15  and  C_16 
REMARK    6  A    between atoms: C_19  and  C_22 
ROOT
HETATM    1  N   UNL     1      42.840 -10.305   7.391  1.00  0.00    -0.325 N 
HETATM    2  C   UNL     1      43.375 -11.554   7.028  1.00  0.00     0.323 C 
HETATM    3  O   UNL     1      44.511 -11.888   7.362  1.00  0.00    -0.247 OA
HETATM    4  N   UNL     1      42.527 -12.332   6.266  1.00  0.00    -0.309 N 
HETATM    5  H   UNL     1      41.598 -11.971   6.138  1.00  0.00     0.170 HD
ENDROOT
BRANCH   1   6
HETATM    6  C   UNL     1      43.752  -9.347   8.024  1.00  0.00     0.166 C 
BRANCH   6   7
HETATM    7  C   UNL     1      43.534  -9.238   9.517  1.00  0.00    -0.037 A 
HETATM    8  C   UNL     1      43.694 -10.356  10.345  1.00  0.00     0.009 A 
HETATM    9  C   UNL     1      43.500 -10.249  11.722  1.00  0.00     0.003 A 
HETATM   10  C   UNL     1      43.138  -9.024  12.288  1.00  0.00     0.037 A 
HETATM   11  C   UNL     1      42.970  -7.901  11.479  1.00  0.00     0.068 A 
HETATM   12  C   UNL     1      43.175  -8.013  10.100  1.00  0.00     0.045 A 
BRANCH  11  13
HETATM   13  O   UNL     1      42.616  -6.650  11.903  1.00  0.00    -0.356 OA
HETATM   14  C   UNL     1      41.390  -6.129  11.404  1.00  0.00     0.210 C 
ENDBRANCH  11  13
ENDBRANCH   6   7
ENDBRANCH   1   6
BRANCH   1  15
HETATM   15  C   UNL     1      41.570  -9.792   6.925  1.00  0.00     0.089 A 
HETATM   16  C   UNL     1      40.392  -9.645   7.859  1.00  0.00     0.027 A 
HETATM   17  C   UNL     1      41.058  -8.425   7.309  1.00  0.00     0.027 A 
ENDBRANCH   1  15
BRANCH   4  18
HETATM   18  C   UNL     1      42.793 -13.581   5.669  1.00  0.00     0.036 A 
HETATM   19  C   UNL     1      42.828 -13.802   4.293  1.00  0.00     0.030 A 
HETATM   20  C   UNL     1      43.079 -15.083   3.780  1.00  0.00     0.014 A 
HETATM   21  C   UNL     1      43.293 -16.170   4.635  1.00  0.00    -0.023 A 
HETATM   22  C   UNL     1      43.264 -15.946   6.016  1.00  0.00     0.014 A 
HETATM   23  C   UNL     1      43.015 -14.665   6.526  1.00  0.00     0.030 A 
BRANCH  21  24
HETATM   24  C   UNL     1      43.544 -17.492   4.088  1.00  0.00     0.010 A 
HETATM   25  C   UNL     1      43.280 -18.026   2.803  1.00  0.00     0.152 A 
HETATM   26  N   UNL     1      43.640 -19.308   2.691  1.00  0.00    -0.187 NA
HETATM   27  N   UNL     1      44.128 -19.603   3.906  1.00  0.00    -0.289 N 
HETATM   28  H   UNL     1      44.464 -20.545   4.072  1.00  0.00     0.188 HD
HETATM   29  C   UNL     1      44.094 -18.552   4.777  1.00  0.00     0.123 A 
ENDBRANCH  21  24
ENDBRANCH   4  18
TORSDOF 6
ENDMDL
MODEL 9
REMARK VINA RESULT:      -7.2      2.027      3.057
REMARK  6 active torsions:
REMARK  status: ('A' for Active; 'I' for Inactive)
REMARK    1  A    between atoms: O_2  and  C_3 
REMARK    2  A    between atoms: C_7  and  C_8 
REMARK    3  A    between atoms: C_8  and  N_9 
REMARK    4  A    between atoms: N_9  and  C_10 
REMARK       I    between atoms: N_9  and  C_13 
REMARK       I    between atoms: C_13  and  N_15 
REMARK    5  A    between atoms: N_15  and  C_16 
REMARK    6  A    between atoms: C_19  and  C_22 
ROOT
HETATM    1  N   UNL     1      42.363 -15.159   3.771  1.00  0.00    -0.325 N 
HETATM    2  C   UNL     1      42.564 -14.295   2.679  1.00  0.00     0.323 C 
HETATM    3  O   UNL     1      43.615 -14.300   2.041  1.00  0.00    -0.247 OA
HETATM    4  N   UNL     1      41.499 -13.455   2.420  1.00  0.00    -0.309 N 
HETATM    5  H   UNL     1      40.671 -13.616   2.967  1.00  0.00     0.170 HD
ENDROOT
BRANCH   1   6
HETATM    6  C   UNL     1      43.521 -15.933   4.230  1.00  0.00     0.166 C 
BRANCH   6   7
HETATM    7  C   UNL     1      43.521 -17.347   3.693  1.00  0.00    -0.037 A 
HETATM    8  C   UNL     1      42.991 -17.631   2.429  1.00  0.00     0.009 A 
HETATM    9  C   UNL     1      43.003 -18.935   1.934  1.00  0.00     0.003 A 
HETATM   10  C   UNL     1      43.539 -19.973   2.700  1.00  0.00     0.037 A 
HETATM   11  C   UNL     1      44.067 -19.710   3.963  1.00  0.00     0.068 A 
HETATM   12  C   UNL     1      44.062 -18.399   4.449  1.00  0.00     0.045 A 
BRANCH  11  13
HETATM   13  O   UNL     1      44.617 -20.631   4.812  1.00  0.00    -0.356 OA
HETATM   14  C   UNL     1      43.946 -20.841   6.049  1.00  0.00     0.210 C 
ENDBRANCH  11  13
ENDBRANCH   6   7
ENDBRANCH   1   6
BRANCH   1  15
HETATM   15  C   UNL     1      41.212 -15.118   4.646  1.00  0.00     0.089 A 
HETATM   16  C   UNL     1      40.318 -16.322   4.825  1.00  0.00     0.027 A 
HETATM   17  C   UNL     1      41.168 -15.855   5.963  1.00  0.00     0.027 A 
ENDBRANCH   1  15
BRANCH   4  18
HETATM   18  C   UNL     1      41.419 -12.419   1.467  1.00  0.00     0.036 A 
HETATM   19  C   UNL     1      41.692 -11.079   1.739  1.00  0.00     0.030 A 
HETATM   20  C   UNL     1      41.567 -10.106   0.737  1.00  0.00     0.014 A 
HETATM   21  C   UNL     1      41.162 -10.454  -0.556  1.00  0.00    -0.023 A 
HETATM   22  C   UNL     1      40.894 -11.800  -0.829  1.00  0.00     0.014 A 
HETATM   23  C   UNL     1      41.021 -12.771   0.172  1.00  0.00     0.030 A 
BRANCH  21  24
HETATM   24  C   UNL     1      41.030  -9.433  -1.580  1.00  0.00     0.010 A 
HETATM   25  C   UNL     1      40.903  -9.545  -2.986  1.00  0.00     0.152 A 
HETATM   26  N   UNL     1      40.828  -8.359  -3.596  1.00  0.00    -0.187 NA
HETATM   27  N   UNL     1      40.915  -7.481  -2.584  1.00  0.00    -0.289 N 
HETATM   28  H   UNL     1      40.890  -6.491  -2.804  1.00  0.00     0.188 HD
HETATM   29  C   UNL     1      41.036  -8.072  -1.359  1.00  0.00     0.123 A 
ENDBRANCH  21  24
ENDBRANCH   4  18
TORSDOF 6
ENDMDL
MODEL 10
REMARK VINA RESULT:      -7.1      7.220     10.696
REMARK  6 active torsions:
REMARK  status: ('A' for Active; 'I' for Inactive)
REMARK    1  A    between atoms: O_2  and  C_3 
REMARK    2  A    between atoms: C_7  and  C_8 
REMARK    3  A    between atoms: C_8  and  N_9 
REMARK    4  A    between atoms: N_9  and  C_10 
REMARK       I    between atoms: N_9  and  C_13 
REMARK       I    between atoms: C_13  and  N_15 
REMARK    5  A    between atoms: N_15  and  C_16 
REMARK    6  A    between atoms: C_19  and  C_22 
ROOT
HETATM    1  N   UNL     1      43.352 -11.188   6.799  1.00  0.00    -0.325 N 
HETATM    2  C   UNL     1      43.618 -10.817   8.130  1.00  0.00     0.323 C 
HETATM    3  O   UNL     1      44.594 -11.256   8.736  1.00  0.00    -0.247 OA
HETATM    4  N   UNL     1      42.690  -9.951   8.671  1.00  0.00    -0.309 N 
HETATM    5  H   UNL     1      41.990  -9.607   8.037  1.00  0.00     0.170 HD
ENDROOT
BRANCH   1   6
HETATM    6  C   UNL     1      44.177 -12.257   6.227  1.00  0.00     0.166 C 
BRANCH   6   7
HETATM    7  C   UNL     1      43.430 -13.568   6.112  1.00  0.00    -0.037 A 
HETATM    8  C   UNL     1      43.154 -14.334   7.251  1.00  0.00     0.009 A 
HETATM    9  C   UNL     1      42.457 -15.536   7.142  1.00  0.00     0.003 A 
HETATM   10  C   UNL     1      42.031 -15.992   5.892  1.00  0.00     0.037 A 
HETATM   11  C   UNL     1      42.301 -15.244   4.746  1.00  0.00     0.068 A 
HETATM   12  C   UNL     1      42.992 -14.034   4.863  1.00  0.00     0.045 A 
BRANCH  11  13
HETATM   13  O   UNL     1      41.945 -15.575   3.467  1.00  0.00    -0.356 OA
HETATM   14  C   UNL     1      42.105 -16.938   3.092  1.00  0.00     0.210 C 
ENDBRANCH  11  13
ENDBRANCH   6   7
ENDBRANCH   1   6
BRANCH   1  15
HETATM   15  C   UNL     1      42.159 -10.818   6.069  1.00  0.00     0.089 A 
HETATM   16  C   UNL     1      41.940  -9.404   5.587  1.00  0.00     0.027 A 
HETATM   17  C   UNL     1      42.179 -10.496   4.594  1.00  0.00     0.027 A 
ENDBRANCH   1  15
BRANCH   4  18
HETATM   18  C   UNL     1      42.616  -9.469   9.993  1.00  0.00     0.036 A 
HETATM   19  C   UNL     1      43.708  -8.988  10.715  1.00  0.00     0.030 A 
HETATM   20  C   UNL     1      43.553  -8.546  12.037  1.00  0.00     0.014 A 
HETATM   21  C   UNL     1      42.303  -8.581  12.664  1.00  0.00    -0.023 A 
HETATM   22  C   UNL     1      41.207  -9.057  11.937  1.00  0.00     0.014 A 
HETATM   23  C   UNL     1      41.363  -9.497  10.616  1.00  0.00     0.030 A 
BRANCH  21  24
HETATM   24  C   UNL     1      42.160  -8.127  14.037  1.00  0.00     0.010 A 
HETATM   25  C   UNL     1      42.795  -7.068  14.731  1.00  0.00     0.152 A 
HETATM   26  N   UNL     1      42.410  -6.980  16.007  1.00  0.00    -0.187 NA
HETATM   27  N   UNL     1      41.533  -7.988  16.139  1.00  0.00    -0.289 N 
HETATM   28  H   UNL     1      41.101  -8.132  17.045  1.00  0.00     0.188 HD
HETATM   29  C   UNL     1      41.348  -8.702  14.990  1.00  0.00     0.123 A 
ENDBRANCH  21  24
ENDBRANCH   4  18
TORSDOF 6
ENDMDL
