MODEL 1
REMARK VINA RESULT:      -7.9      0.000      0.000
REMARK  4 active torsions:
REMARK  status: ('A' for Active; 'I' for Inactive)
REMARK    1  A    between atoms: C_9  and  C_10 
REMARK    2  A    between atoms: C_11  and  O_12 
REMARK    3  A    between atoms: C_18  and  C_19 
REMARK       I    between atoms: C_19  and  N_20 
REMARK    4  A    between atoms: N_20  and  C_21 
ROOT
HETATM    1  C   UNL     1      40.199 -14.619  -0.249  1.00  0.00     0.070 C 
HETATM    2  C   UNL     1      40.162 -13.584   0.848  1.00  0.00     0.037 C 
HETATM    3  N   UNL     1      39.816 -12.297   0.449  1.00  0.00    -0.192 N 
HETATM    4  C   UNL     1      39.504 -11.320   1.321  1.00  0.00     0.725 A 
HETATM    5  N   UNL     1      39.673 -11.532   2.664  1.00  0.00    -0.084 N 
HETATM    6  N   UNL     1      39.231 -10.478   3.383  1.00  0.00    -0.149 NA
HETATM    7  C   UNL     1      38.851  -9.651   2.403  1.00  0.00     0.275 A 
HETATM    8  N   UNL     1      39.003 -10.127   1.126  1.00  0.00    -0.054 NA
HETATM    9  C   UNL     1      40.219 -12.770   3.238  1.00  0.00     0.205 C 
HETATM   10  C   UNL     1      40.380 -13.842   2.161  1.00  0.00     0.063 C 
HETATM   11  H   UNL     1      39.567 -12.158  -0.527  1.00  0.00     0.184 HD
ENDROOT
BRANCH  10  12
HETATM   12  C   UNL     1      40.685 -15.196   2.687  1.00  0.00     0.256 C 
HETATM   13  N   UNL     1      42.037 -15.460   2.745  1.00  0.00    -0.323 N 
HETATM   14  H   UNL     1      42.661 -14.721   2.447  1.00  0.00     0.169 HD
HETATM   15  O   UNL     1      39.763 -15.929   3.019  1.00  0.00    -0.267 OA
BRANCH  13  16
HETATM   16  C   UNL     1      42.655 -16.664   3.144  1.00  0.00     0.035 A 
HETATM   17  C   UNL     1      42.944 -17.718   2.274  1.00  0.00     0.031 A 
HETATM   18  C   UNL     1      43.572 -18.876   2.745  1.00  0.00     0.026 A 
HETATM   19  C   UNL     1      43.918 -18.983   4.088  1.00  0.00     0.034 A 
HETATM   20 CL   UNL     1      44.699 -20.403   4.664  1.00  0.00    -0.084 Cl
HETATM   21  C   UNL     1      43.635 -17.943   4.968  1.00  0.00     0.026 A 
HETATM   22  C   UNL     1      42.999 -16.789   4.497  1.00  0.00     0.031 A 
ENDBRANCH  13  16
ENDBRANCH  10  12
BRANCH   9  23
HETATM   23  C   UNL     1      41.535 -12.458   3.952  1.00  0.00     0.005 A 
HETATM   24  C   UNL     1      41.673 -12.684   5.334  1.00  0.00     0.076 A 
HETATM   25  C   UNL     1      42.882 -12.390   5.973  1.00  0.00     0.037 A 
HETATM   26  C   UNL     1      43.949 -11.847   5.255  1.00  0.00     0.003 A 
HETATM   27  C   UNL     1      43.817 -11.596   3.894  1.00  0.00     0.001 A 
HETATM   28  C   UNL     1      42.620 -11.899   3.245  1.00  0.00     0.012 A 
BRANCH  24  29
HETATM   29  O   UNL     1      40.592 -13.226   5.978  1.00  0.00    -0.355 OA
HETATM   30  C   UNL     1      40.724 -14.580   6.395  1.00  0.00     0.210 C 
ENDBRANCH  24  29
ENDBRANCH   9  23
TORSDOF 4
ENDMDL
MODEL 2
REMARK VINA RESULT:      -7.8      3.359      5.804
REMARK  4 active torsions:
REMARK  status: ('A' for Active; 'I' for Inactive)
REMARK    1  A    between atoms: C_9  and  C_10 
REMARK    2  A    between atoms: C_11  and  O_12 
REMARK    3  A    between atoms: C_18  and  C_19 
REMARK       I    between atoms: C_19  and  N_20 
REMARK    4  A    between atoms: N_20  and  C_21 
ROOT
HETATM    1  C   UNL     1      41.715  -9.949   1.271  1.00  0.00     0.070 C 
HETATM    2  C   UNL     1      41.933 -11.026   2.305  1.00  0.00     0.037 C 
HETATM    3  N   UNL     1      42.848 -10.721   3.307  1.00  0.00    -0.192 N 
HETATM    4  C   UNL     1      42.982 -11.458   4.426  1.00  0.00     0.725 A 
HETATM    5  N   UNL     1      42.308 -12.645   4.538  1.00  0.00    -0.084 N 
HETATM    6  N   UNL     1      42.496 -13.200   5.755  1.00  0.00    -0.149 NA
HETATM    7  C   UNL     1      43.330 -12.311   6.305  1.00  0.00     0.275 A 
HETATM    8  N   UNL     1      43.654 -11.231   5.525  1.00  0.00    -0.054 NA
HETATM    9  C   UNL     1      41.454 -13.209   3.483  1.00  0.00     0.205 C 
HETATM   10  C   UNL     1      41.266 -12.207   2.345  1.00  0.00     0.063 C 
HETATM   11  H   UNL     1      43.260  -9.791   3.300  1.00  0.00     0.184 HD
ENDROOT
BRANCH  10  12
HETATM   12  C   UNL     1      40.223 -12.588   1.359  1.00  0.00     0.256 C 
HETATM   13  N   UNL     1      40.747 -13.043   0.168  1.00  0.00    -0.323 N 
HETATM   14  H   UNL     1      41.756 -13.083   0.098  1.00  0.00     0.169 HD
HETATM   15  O   UNL     1      39.044 -12.482   1.669  1.00  0.00    -0.267 OA
BRANCH  13  16
HETATM   16  C   UNL     1      40.033 -13.431  -0.985  1.00  0.00     0.035 A 
HETATM   17  C   UNL     1      39.763 -12.580  -2.058  1.00  0.00     0.031 A 
HETATM   18  C   UNL     1      39.059 -13.045  -3.175  1.00  0.00     0.026 A 
HETATM   19  C   UNL     1      38.626 -14.366  -3.224  1.00  0.00     0.034 A 
HETATM   20 CL   UNL     1      37.769 -14.940  -4.600  1.00  0.00    -0.084 Cl
HETATM   21  C   UNL     1      38.885 -15.226  -2.161  1.00  0.00     0.026 A 
HETATM   22  C   UNL     1      39.582 -14.757  -1.042  1.00  0.00     0.031 A 
ENDBRANCH  13  16
ENDBRANCH  10  12
BRANCH   9  23
HETATM   23  C   UNL     1      42.052 -14.532   3.002  1.00  0.00     0.005 A 
HETATM   24  C   UNL     1      41.542 -15.760   3.463  1.00  0.00     0.076 A 
HETATM   25  C   UNL     1      42.102 -16.961   3.016  1.00  0.00     0.037 A 
HETATM   26  C   UNL     1      43.184 -16.953   2.134  1.00  0.00     0.003 A 
HETATM   27  C   UNL     1      43.712 -15.746   1.690  1.00  0.00     0.001 A 
HETATM   28  C   UNL     1      43.152 -14.544   2.119  1.00  0.00     0.012 A 
BRANCH  24  29
HETATM   29  O   UNL     1      40.475 -15.697   4.320  1.00  0.00    -0.355 OA
HETATM   30  C   UNL     1      40.646 -16.329   5.584  1.00  0.00     0.210 C 
ENDBRANCH  24  29
ENDBRANCH   9  23
TORSDOF 4
ENDMDL
MODEL 3
REMARK VINA RESULT:      -7.5      3.385      6.314
REMARK  4 active torsions:
REMARK  status: ('A' for Active; 'I' for Inactive)
REMARK    1  A    between atoms: C_9  and  C_10 
REMARK    2  A    between atoms: C_11  and  O_12 
REMARK    3  A    between atoms: C_18  and  C_19 
REMARK       I    between atoms: C_19  and  N_20 
REMARK    4  A    between atoms: N_20  and  C_21 
ROOT
HETATM    1  C   UNL     1      42.469 -17.963   2.287  1.00  0.00     0.070 C 
HETATM    2  C   UNL     1      42.692 -17.106   3.508  1.00  0.00     0.037 C 
HETATM    3  N   UNL     1      42.855 -17.796   4.705  1.00  0.00    -0.192 N 
HETATM    4  C   UNL     1      43.297 -17.210   5.834  1.00  0.00     0.725 A 
HETATM    5  N   UNL     1      43.456 -15.850   5.872  1.00  0.00    -0.084 N 
HETATM    6  N   UNL     1      43.985 -15.453   7.050  1.00  0.00    -0.149 NA
HETATM    7  C   UNL     1      44.075 -16.626   7.687  1.00  0.00     0.275 A 
HETATM    8  N   UNL     1      43.664 -17.725   6.979  1.00  0.00    -0.054 NA
HETATM    9  C   UNL     1      43.137 -14.953   4.752  1.00  0.00     0.205 C 
HETATM   10  C   UNL     1      42.800 -15.754   3.495  1.00  0.00     0.063 C 
HETATM   11  H   UNL     1      42.863 -18.812   4.664  1.00  0.00     0.184 HD
ENDROOT
BRANCH  10  12
HETATM   12  C   UNL     1      42.710 -14.941   2.256  1.00  0.00     0.256 C 
HETATM   13  N   UNL     1      41.412 -14.638   1.903  1.00  0.00    -0.323 N 
HETATM   14  H   UNL     1      40.681 -14.978   2.514  1.00  0.00     0.169 HD
HETATM   15  O   UNL     1      43.740 -14.613   1.683  1.00  0.00    -0.267 OA
BRANCH  13  16
HETATM   16  C   UNL     1      40.982 -13.932   0.760  1.00  0.00     0.035 A 
HETATM   17  C   UNL     1      41.209 -12.569   0.555  1.00  0.00     0.031 A 
HETATM   18  C   UNL     1      40.762 -11.942  -0.615  1.00  0.00     0.026 A 
HETATM   19  C   UNL     1      40.091 -12.678  -1.585  1.00  0.00     0.034 A 
HETATM   20 CL   UNL     1      39.550 -11.910  -3.026  1.00  0.00    -0.084 Cl
HETATM   21  C   UNL     1      39.854 -14.036  -1.394  1.00  0.00     0.026 A 
HETATM   22  C   UNL     1      40.295 -14.659  -0.221  1.00  0.00     0.031 A 
ENDBRANCH  13  16
ENDBRANCH  10  12
BRANCH   9  23
HETATM   23  C   UNL     1      42.003 -14.013   5.165  1.00  0.00     0.005 A 
HETATM   24  C   UNL     1      42.186 -12.617   5.146  1.00  0.00     0.076 A 
HETATM   25  C   UNL     1      41.140 -11.771   5.530  1.00  0.00     0.037 A 
HETATM   26  C   UNL     1      39.922 -12.300   5.960  1.00  0.00     0.003 A 
HETATM   27  C   UNL     1      39.738 -13.678   6.007  1.00  0.00     0.001 A 
HETATM   28  C   UNL     1      40.769 -14.529   5.612  1.00  0.00     0.012 A 
BRANCH  24  29
HETATM   29  O   UNL     1      43.400 -12.164   4.706  1.00  0.00    -0.355 OA
HETATM   30  C   UNL     1      43.402 -11.484   3.455  1.00  0.00     0.210 C 
ENDBRANCH  24  29
ENDBRANCH   9  23
TORSDOF 4
ENDMDL
MODEL 4
REMARK VINA RESULT:      -7.3      3.244      5.858
REMARK  4 active torsions:
REMARK  status: ('A' for Active; 'I' for Inactive)
REMARK    1  A    between atoms: C_9  and  C_10 
REMARK    2  A    between atoms: C_11  and  O_12 
REMARK    3  A    between atoms: C_18  and  C_19 
REMARK       I    between atoms: C_19  and  N_20 
REMARK    4  A    between atoms: N_20  and  C_21 
ROOT
HETATM    1  C   UNL     1      41.313  -9.767   2.714  1.00  0.00     0.070 C 
HETATM    2  C   UNL     1      41.290 -11.268   2.563  1.00  0.00     0.037 C 
HETATM    3  N   UNL     1      40.359 -11.766   1.657  1.00  0.00    -0.192 N 
HETATM    4  C   UNL     1      40.367 -13.042   1.226  1.00  0.00     0.725 A 
HETATM    5  N   UNL     1      41.223 -13.944   1.800  1.00  0.00    -0.084 N 
HETATM    6  N   UNL     1      41.151 -15.145   1.185  1.00  0.00    -0.149 NA
HETATM    7  C   UNL     1      40.198 -14.901   0.279  1.00  0.00     0.275 A 
HETATM    8  N   UNL     1      39.691 -13.627   0.271  1.00  0.00    -0.054 NA
HETATM    9  C   UNL     1      42.133 -13.623   2.909  1.00  0.00     0.205 C 
HETATM   10  C   UNL     1      42.135 -12.122   3.191  1.00  0.00     0.063 C 
HETATM   11  H   UNL     1      39.805 -11.093   1.133  1.00  0.00     0.184 HD
ENDROOT
BRANCH  10  12
HETATM   12  C   UNL     1      43.205 -11.675   4.119  1.00  0.00     0.256 C 
HETATM   13  N   UNL     1      42.768 -11.538   5.420  1.00  0.00    -0.323 N 
HETATM   14  H   UNL     1      41.798 -11.765   5.602  1.00  0.00     0.169 HD
HETATM   15  O   UNL     1      44.331 -11.483   3.682  1.00  0.00    -0.267 OA
BRANCH  13  16
HETATM   16  C   UNL     1      43.514 -11.084   6.527  1.00  0.00     0.035 A 
HETATM   17  C   UNL     1      44.850 -11.421   6.758  1.00  0.00     0.031 A 
HETATM   18  C   UNL     1      45.527 -10.917   7.875  1.00  0.00     0.026 A 
HETATM   19  C   UNL     1      44.871 -10.070   8.762  1.00  0.00     0.034 A 
HETATM   20 CL   UNL     1      45.706  -9.443  10.129  1.00  0.00    -0.084 Cl
HETATM   21  C   UNL     1      43.539  -9.727   8.547  1.00  0.00     0.026 A 
HETATM   22  C   UNL     1      42.862 -10.238   7.434  1.00  0.00     0.031 A 
ENDBRANCH  13  16
ENDBRANCH  10  12
BRANCH   9  23
HETATM   23  C   UNL     1      41.742 -14.446   4.138  1.00  0.00     0.005 A 
HETATM   24  C   UNL     1      42.425 -15.637   4.451  1.00  0.00     0.076 A 
HETATM   25  C   UNL     1      42.053 -16.379   5.577  1.00  0.00     0.037 A 
HETATM   26  C   UNL     1      40.988 -15.965   6.380  1.00  0.00     0.003 A 
HETATM   27  C   UNL     1      40.290 -14.804   6.066  1.00  0.00     0.001 A 
HETATM   28  C   UNL     1      40.663 -14.049   4.955  1.00  0.00     0.012 A 
BRANCH  24  29
HETATM   29  O   UNL     1      43.463 -15.982   3.629  1.00  0.00    -0.355 OA
HETATM   30  C   UNL     1      43.408 -17.286   3.059  1.00  0.00     0.210 C 
ENDBRANCH  24  29
ENDBRANCH   9  23
TORSDOF 4
ENDMDL
MODEL 5
REMARK VINA RESULT:      -7.1      3.486      5.125
REMARK  4 active torsions:
REMARK  status: ('A' for Active; 'I' for Inactive)
REMARK    1  A    between atoms: C_9  and  C_10 
REMARK    2  A    between atoms: C_11  and  O_12 
REMARK    3  A    between atoms: C_18  and  C_19 
REMARK       I    between atoms: C_19  and  N_20 
REMARK    4  A    between atoms: N_20  and  C_21 
ROOT
HETATM    1  C   UNL     1      37.934 -14.568  -3.408  1.00  0.00     0.070 C 
HETATM    2  C   UNL     1      37.904 -13.212  -2.747  1.00  0.00     0.037 C 
HETATM    3  N   UNL     1      36.903 -12.352  -3.187  1.00  0.00    -0.192 N 
HETATM    4  C   UNL     1      36.584 -11.211  -2.546  1.00  0.00     0.725 A 
HETATM    5  N   UNL     1      37.361 -10.782  -1.502  1.00  0.00    -0.084 N 
HETATM    6  N   UNL     1      36.843  -9.673  -0.932  1.00  0.00    -0.149 NA
HETATM    7  C   UNL     1      35.777  -9.468  -1.714  1.00  0.00     0.275 A 
HETATM    8  N   UNL     1      35.584 -10.385  -2.715  1.00  0.00    -0.054 NA
HETATM    9  C   UNL     1      38.573 -11.475  -1.040  1.00  0.00     0.205 C 
HETATM   10  C   UNL     1      38.728 -12.822  -1.743  1.00  0.00     0.063 C 
HETATM   11  H   UNL     1      36.244 -12.709  -3.874  1.00  0.00     0.184 HD
ENDROOT
BRANCH  10  12
HETATM   12  C   UNL     1      39.777 -13.698  -1.163  1.00  0.00     0.256 C 
HETATM   13  N   UNL     1      39.649 -13.862   0.200  1.00  0.00    -0.323 N 
HETATM   14  H   UNL     1      38.869 -13.396   0.646  1.00  0.00     0.169 HD
HETATM   15  O   UNL     1      40.622 -14.186  -1.901  1.00  0.00    -0.267 OA
BRANCH  13  16
HETATM   16  C   UNL     1      40.506 -14.584   1.057  1.00  0.00     0.035 A 
HETATM   17  C   UNL     1      40.183 -15.819   1.623  1.00  0.00     0.031 A 
HETATM   18  C   UNL     1      41.096 -16.481   2.454  1.00  0.00     0.026 A 
HETATM   19  C   UNL     1      42.338 -15.911   2.716  1.00  0.00     0.034 A 
HETATM   20 CL   UNL     1      43.462 -16.728   3.728  1.00  0.00    -0.084 Cl
HETATM   21  C   UNL     1      42.673 -14.679   2.161  1.00  0.00     0.026 A 
HETATM   22  C   UNL     1      41.757 -14.016   1.337  1.00  0.00     0.031 A 
ENDBRANCH  13  16
ENDBRANCH  10  12
BRANCH   9  23
HETATM   23  C   UNL     1      39.785 -10.566  -1.249  1.00  0.00     0.005 A 
HETATM   24  C   UNL     1      40.626 -10.233  -0.171  1.00  0.00     0.076 A 
HETATM   25  C   UNL     1      41.729  -9.398  -0.377  1.00  0.00     0.037 A 
HETATM   26  C   UNL     1      41.988  -8.866  -1.642  1.00  0.00     0.003 A 
HETATM   27  C   UNL     1      41.150  -9.168  -2.709  1.00  0.00     0.001 A 
HETATM   28  C   UNL     1      40.057 -10.011  -2.517  1.00  0.00     0.012 A 
BRANCH  24  29
HETATM   29  O   UNL     1      40.322 -10.795   1.041  1.00  0.00    -0.355 OA
HETATM   30  C   UNL     1      41.130 -10.392   2.141  1.00  0.00     0.210 C 
ENDBRANCH  24  29
ENDBRANCH   9  23
TORSDOF 4
ENDMDL
MODEL 6
REMARK VINA RESULT:      -7.0      2.498      4.856
REMARK  4 active torsions:
REMARK  status: ('A' for Active; 'I' for Inactive)
REMARK    1  A    between atoms: C_9  and  C_10 
REMARK    2  A    between atoms: C_11  and  O_12 
REMARK    3  A    between atoms: C_18  and  C_19 
REMARK       I    between atoms: C_19  and  N_20 
REMARK    4  A    between atoms: N_20  and  C_21 
ROOT
HETATM    1  C   UNL     1      40.388 -11.162   3.515  1.00  0.00     0.070 C 
HETATM    2  C   UNL     1      40.561 -11.104   2.017  1.00  0.00     0.037 C 
HETATM    3  N   UNL     1      40.546  -9.830   1.460  1.00  0.00    -0.192 N 
HETATM    4  C   UNL     1      40.922  -9.581   0.191  1.00  0.00     0.725 A 
HETATM    5  N   UNL     1      41.193 -10.628  -0.652  1.00  0.00    -0.084 N 
HETATM    6  N   UNL     1      41.634 -10.187  -1.850  1.00  0.00    -0.149 NA
HETATM    7  C   UNL     1      41.561  -8.864  -1.670  1.00  0.00     0.275 A 
HETATM    8  N   UNL     1      41.129  -8.451  -0.436  1.00  0.00    -0.054 NA
HETATM    9  C   UNL     1      41.063 -12.042  -0.273  1.00  0.00     0.205 C 
HETATM   10  C   UNL     1      40.784 -12.180   1.222  1.00  0.00     0.063 C 
HETATM   11  H   UNL     1      40.471  -9.039   2.095  1.00  0.00     0.184 HD
ENDROOT
BRANCH  10  12
HETATM   12  C   UNL     1      40.887 -13.568   1.739  1.00  0.00     0.256 C 
HETATM   13  N   UNL     1      42.179 -13.929   2.061  1.00  0.00    -0.323 N 
HETATM   14  H   UNL     1      42.896 -13.227   1.930  1.00  0.00     0.169 HD
HETATM   15  O   UNL     1      39.872 -14.243   1.841  1.00  0.00    -0.267 OA
BRANCH  13  16
HETATM   16  C   UNL     1      42.622 -15.185   2.523  1.00  0.00     0.035 A 
HETATM   17  C   UNL     1      42.787 -16.305   1.704  1.00  0.00     0.031 A 
HETATM   18  C   UNL     1      43.246 -17.515   2.238  1.00  0.00     0.026 A 
HETATM   19  C   UNL     1      43.547 -17.608   3.593  1.00  0.00     0.034 A 
HETATM   20 CL   UNL     1      44.120 -19.093   4.246  1.00  0.00    -0.084 Cl
HETATM   21  C   UNL     1      43.385 -16.503   4.423  1.00  0.00     0.026 A 
HETATM   22  C   UNL     1      42.919 -15.296   3.889  1.00  0.00     0.031 A 
ENDBRANCH  13  16
ENDBRANCH  10  12
BRANCH   9  23
HETATM   23  C   UNL     1      39.979 -12.697  -1.131  1.00  0.00     0.005 A 
HETATM   24  C   UNL     1      38.654 -12.222  -1.098  1.00  0.00     0.076 A 
HETATM   25  C   UNL     1      37.674 -12.834  -1.886  1.00  0.00     0.037 A 
HETATM   26  C   UNL     1      37.991 -13.933  -2.687  1.00  0.00     0.003 A 
HETATM   27  C   UNL     1      39.291 -14.426  -2.708  1.00  0.00     0.001 A 
HETATM   28  C   UNL     1      40.279 -13.814  -1.938  1.00  0.00     0.012 A 
BRANCH  24  29
HETATM   29  O   UNL     1      38.411 -11.137  -0.300  1.00  0.00    -0.355 OA
HETATM   30  C   UNL     1      37.232 -11.193   0.496  1.00  0.00     0.210 C 
ENDBRANCH  24  29
ENDBRANCH   9  23
TORSDOF 4
ENDMDL
MODEL 7
REMARK VINA RESULT:      -6.9      4.918      7.324
REMARK  4 active torsions:
REMARK  status: ('A' for Active; 'I' for Inactive)
REMARK    1  A    between atoms: C_9  and  C_10 
REMARK    2  A    between atoms: C_11  and  O_12 
REMARK    3  A    between atoms: C_18  and  C_19 
REMARK       I    between atoms: C_19  and  N_20 
REMARK    4  A    between atoms: N_20  and  C_21 
ROOT
HETATM    1  C   UNL     1      39.568  -7.754   7.561  1.00  0.00     0.070 C 
HETATM    2  C   UNL     1      40.624  -8.390   8.430  1.00  0.00     0.037 C 
HETATM    3  N   UNL     1      40.702  -7.906   9.731  1.00  0.00    -0.192 N 
HETATM    4  C   UNL     1      41.413  -8.517  10.698  1.00  0.00     0.725 A 
HETATM    5  N   UNL     1      42.221  -9.576  10.377  1.00  0.00    -0.084 N 
HETATM    6  N   UNL     1      42.786 -10.111  11.481  1.00  0.00    -0.149 NA
HETATM    7  C   UNL     1      42.305  -9.295  12.425  1.00  0.00     0.275 A 
HETATM    8  N   UNL     1      41.463  -8.305  11.989  1.00  0.00    -0.054 NA
HETATM    9  C   UNL     1      42.404 -10.085   9.010  1.00  0.00     0.205 C 
HETATM   10  C   UNL     1      41.430  -9.411   8.046  1.00  0.00     0.063 C 
HETATM   11  H   UNL     1      40.021  -7.207  10.015  1.00  0.00     0.184 HD
ENDROOT
BRANCH  10  12
HETATM   12  C   UNL     1      41.368 -10.037   6.701  1.00  0.00     0.256 C 
HETATM   13  N   UNL     1      40.574 -11.164   6.666  1.00  0.00    -0.323 N 
HETATM   14  H   UNL     1      40.119 -11.428   7.530  1.00  0.00     0.169 HD
HETATM   15  O   UNL     1      41.986  -9.526   5.776  1.00  0.00    -0.267 OA
BRANCH  13  16
HETATM   16  C   UNL     1      40.349 -12.015   5.565  1.00  0.00     0.035 A 
HETATM   17  C   UNL     1      39.674 -11.627   4.405  1.00  0.00     0.031 A 
HETATM   18  C   UNL     1      39.503 -12.528   3.347  1.00  0.00     0.026 A 
HETATM   19  C   UNL     1      40.011 -13.820   3.444  1.00  0.00     0.034 A 
HETATM   20 CL   UNL     1      39.809 -14.923   2.141  1.00  0.00    -0.084 Cl
HETATM   21  C   UNL     1      40.684 -14.222   4.594  1.00  0.00     0.026 A 
HETATM   22  C   UNL     1      40.847 -13.322   5.654  1.00  0.00     0.031 A 
ENDBRANCH  13  16
ENDBRANCH  10  12
BRANCH   9  23
HETATM   23  C   UNL     1      43.863  -9.897   8.592  1.00  0.00     0.005 A 
HETATM   24  C   UNL     1      44.604 -10.972   8.067  1.00  0.00     0.076 A 
HETATM   25  C   UNL     1      45.938 -10.784   7.693  1.00  0.00     0.037 A 
HETATM   26  C   UNL     1      46.553  -9.542   7.860  1.00  0.00     0.003 A 
HETATM   27  C   UNL     1      45.839  -8.478   8.400  1.00  0.00     0.001 A 
HETATM   28  C   UNL     1      44.504  -8.652   8.763  1.00  0.00     0.012 A 
BRANCH  24  29
HETATM   29  O   UNL     1      43.940 -12.161   7.921  1.00  0.00    -0.355 OA
HETATM   30  C   UNL     1      44.217 -12.894   6.733  1.00  0.00     0.210 C 
ENDBRANCH  24  29
ENDBRANCH   9  23
TORSDOF 4
ENDMDL
MODEL 8
REMARK VINA RESULT:      -6.9     16.346     18.237
REMARK  4 active torsions:
REMARK  status: ('A' for Active; 'I' for Inactive)
REMARK    1  A    between atoms: C_9  and  C_10 
REMARK    2  A    between atoms: C_11  and  O_12 
REMARK    3  A    between atoms: C_18  and  C_19 
REMARK       I    between atoms: C_19  and  N_20 
REMARK    4  A    between atoms: N_20  and  C_21 
ROOT
HETATM    1  C   UNL     1      47.819 -28.572   2.667  1.00  0.00     0.070 C 
HETATM    2  C   UNL     1      47.822 -29.186   1.290  1.00  0.00     0.037 C 
HETATM    3  N   UNL     1      49.041 -29.151   0.619  1.00  0.00    -0.192 N 
HETATM    4  C   UNL     1      49.279 -29.858  -0.502  1.00  0.00     0.725 A 
HETATM    5  N   UNL     1      48.251 -30.528  -1.111  1.00  0.00    -0.084 N 
HETATM    6  N   UNL     1      48.694 -31.245  -2.167  1.00  0.00    -0.149 NA
HETATM    7  C   UNL     1      49.992 -30.922  -2.158  1.00  0.00     0.275 A 
HETATM    8  N   UNL     1      50.391 -30.075  -1.157  1.00  0.00    -0.054 NA
HETATM    9  C   UNL     1      46.859 -30.502  -0.639  1.00  0.00     0.205 C 
HETATM   10  C   UNL     1      46.759 -29.802   0.715  1.00  0.00     0.063 C 
HETATM   11  H   UNL     1      49.840 -28.767   1.116  1.00  0.00     0.184 HD
ENDROOT
BRANCH  10  12
HETATM   12  C   UNL     1      45.442 -29.948   1.384  1.00  0.00     0.256 C 
HETATM   13  N   UNL     1      44.968 -31.243   1.365  1.00  0.00    -0.323 N 
HETATM   14  H   UNL     1      45.557 -31.938   0.924  1.00  0.00     0.169 HD
HETATM   15  O   UNL     1      44.913 -28.963   1.880  1.00  0.00    -0.267 OA
BRANCH  13  16
HETATM   16  C   UNL     1      43.733 -31.707   1.863  1.00  0.00     0.035 A 
HETATM   17  C   UNL     1      43.595 -32.443   3.041  1.00  0.00     0.031 A 
HETATM   18  C   UNL     1      42.330 -32.856   3.477  1.00  0.00     0.026 A 
HETATM   19  C   UNL     1      41.198 -32.528   2.738  1.00  0.00     0.034 A 
HETATM   20 CL   UNL     1      39.643 -33.027   3.279  1.00  0.00    -0.084 Cl
HETATM   21  C   UNL     1      41.320 -31.797   1.560  1.00  0.00     0.026 A 
HETATM   22  C   UNL     1      42.586 -31.392   1.122  1.00  0.00     0.031 A 
ENDBRANCH  13  16
ENDBRANCH  10  12
BRANCH   9  23
HETATM   23  C   UNL     1      45.978 -29.845  -1.702  1.00  0.00     0.005 A 
HETATM   24  C   UNL     1      44.864 -30.524  -2.231  1.00  0.00     0.076 A 
HETATM   25  C   UNL     1      44.069 -29.911  -3.205  1.00  0.00     0.037 A 
HETATM   26  C   UNL     1      44.387 -28.637  -3.680  1.00  0.00     0.003 A 
HETATM   27  C   UNL     1      45.499 -27.966  -3.183  1.00  0.00     0.001 A 
HETATM   28  C   UNL     1      46.289 -28.563  -2.202  1.00  0.00     0.012 A 
BRANCH  24  29
HETATM   29  O   UNL     1      44.602 -31.766  -1.716  1.00  0.00    -0.355 OA
HETATM   30  C   UNL     1      44.172 -32.754  -2.646  1.00  0.00     0.210 C 
ENDBRANCH  24  29
ENDBRANCH   9  23
TORSDOF 4
ENDMDL
MODEL 9
REMARK VINA RESULT:      -6.8     15.976     17.671
REMARK  4 active torsions:
REMARK  status: ('A' for Active; 'I' for Inactive)
REMARK    1  A    between atoms: C_9  and  C_10 
REMARK    2  A    between atoms: C_11  and  O_12 
REMARK    3  A    between atoms: C_18  and  C_19 
REMARK       I    between atoms: C_19  and  N_20 
REMARK    4  A    between atoms: N_20  and  C_21 
ROOT
HETATM    1  C   UNL     1      47.688 -27.705  -1.211  1.00  0.00     0.070 C 
HETATM    2  C   UNL     1      46.624 -28.773  -1.156  1.00  0.00     0.037 C 
HETATM    3  N   UNL     1      45.940 -29.001  -2.345  1.00  0.00    -0.192 N 
HETATM    4  C   UNL     1      45.139 -30.067  -2.535  1.00  0.00     0.725 A 
HETATM    5  N   UNL     1      44.850 -30.893  -1.481  1.00  0.00    -0.084 N 
HETATM    6  N   UNL     1      44.106 -31.949  -1.878  1.00  0.00    -0.149 NA
HETATM    7  C   UNL     1      43.949 -31.667  -3.176  1.00  0.00     0.275 A 
HETATM    8  N   UNL     1      44.563 -30.524  -3.618  1.00  0.00    -0.054 NA
HETATM    9  C   UNL     1      45.334 -30.676  -0.110  1.00  0.00     0.205 C 
HETATM   10  C   UNL     1      46.349 -29.535  -0.068  1.00  0.00     0.063 C 
HETATM   11  H   UNL     1      46.235 -28.478  -3.166  1.00  0.00     0.184 HD
ENDROOT
BRANCH  10  12
HETATM   12  C   UNL     1      47.076 -29.409   1.220  1.00  0.00     0.256 C 
HETATM   13  N   UNL     1      48.077 -30.346   1.369  1.00  0.00    -0.323 N 
HETATM   14  H   UNL     1      48.217 -30.991   0.601  1.00  0.00     0.169 HD
HETATM   15  O   UNL     1      46.753 -28.526   2.003  1.00  0.00    -0.267 OA
BRANCH  13  16
HETATM   16  C   UNL     1      48.912 -30.532   2.490  1.00  0.00     0.035 A 
HETATM   17  C   UNL     1      48.479 -31.066   3.705  1.00  0.00     0.031 A 
HETATM   18  C   UNL     1      49.374 -31.232   4.769  1.00  0.00     0.026 A 
HETATM   19  C   UNL     1      50.708 -30.867   4.618  1.00  0.00     0.034 A 
HETATM   20 CL   UNL     1      51.810 -31.080   5.921  1.00  0.00    -0.084 Cl
HETATM   21  C   UNL     1      51.155 -30.330   3.414  1.00  0.00     0.026 A 
HETATM   22  C   UNL     1      50.257 -30.158   2.355  1.00  0.00     0.031 A 
ENDBRANCH  13  16
ENDBRANCH  10  12
BRANCH   9  23
HETATM   23  C   UNL     1      44.141 -30.429   0.814  1.00  0.00     0.005 A 
HETATM   24  C   UNL     1      43.891 -31.281   1.906  1.00  0.00     0.076 A 
HETATM   25  C   UNL     1      42.793 -31.043   2.740  1.00  0.00     0.037 A 
HETATM   26  C   UNL     1      41.924 -29.981   2.482  1.00  0.00     0.003 A 
HETATM   27  C   UNL     1      42.147 -29.148   1.391  1.00  0.00     0.001 A 
HETATM   28  C   UNL     1      43.246 -29.368   0.563  1.00  0.00     0.012 A 
BRANCH  24  29
HETATM   29  O   UNL     1      44.786 -32.297   2.109  1.00  0.00    -0.355 OA
HETATM   30  C   UNL     1      45.079 -32.615   3.465  1.00  0.00     0.210 C 
ENDBRANCH  24  29
ENDBRANCH   9  23
TORSDOF 4
ENDMDL
MODEL 10
REMARK VINA RESULT:      -6.7      3.424      5.805
REMARK  4 active torsions:
REMARK  status: ('A' for Active; 'I' for Inactive)
REMARK    1  A    between atoms: C_9  and  C_10 
REMARK    2  A    between atoms: C_11  and  O_12 
REMARK    3  A    between atoms: C_18  and  C_19 
REMARK       I    between atoms: C_19  and  N_20 
REMARK    4  A    between atoms: N_20  and  C_21 
ROOT
HETATM    1  C   UNL     1      42.624 -16.225   4.970  1.00  0.00     0.070 C 
HETATM    2  C   UNL     1      42.660 -14.731   5.176  1.00  0.00     0.037 C 
HETATM    3  N   UNL     1      43.490 -14.286   6.200  1.00  0.00    -0.192 N 
HETATM    4  C   UNL     1      43.822 -12.991   6.361  1.00  0.00     0.725 A 
HETATM    5  N   UNL     1      43.213 -12.035   5.592  1.00  0.00    -0.084 N 
HETATM    6  N   UNL     1      43.731 -10.811   5.834  1.00  0.00    -0.149 NA
HETATM    7  C   UNL     1      44.617 -11.102   6.792  1.00  0.00     0.275 A 
HETATM    8  N   UNL     1      44.703 -12.424   7.145  1.00  0.00    -0.054 NA
HETATM    9  C   UNL     1      42.166 -12.322   4.601  1.00  0.00     0.205 C 
HETATM   10  C   UNL     1      42.000 -13.828   4.409  1.00  0.00     0.063 C 
HETATM   11  H   UNL     1      44.042 -14.982   6.694  1.00  0.00     0.184 HD
ENDROOT
BRANCH  10  12
HETATM   12  C   UNL     1      41.149 -14.208   3.253  1.00  0.00     0.256 C 
HETATM   13  N   UNL     1      41.543 -13.610   2.074  1.00  0.00    -0.323 N 
HETATM   14  H   UNL     1      42.354 -13.006   2.117  1.00  0.00     0.169 HD
HETATM   15  O   UNL     1      40.222 -14.987   3.426  1.00  0.00    -0.267 OA
BRANCH  13  16
HETATM   16  C   UNL     1      40.920 -13.718   0.814  1.00  0.00     0.035 A 
HETATM   17  C   UNL     1      40.241 -14.857   0.374  1.00  0.00     0.031 A 
HETATM   18  C   UNL     1      39.636 -14.881  -0.888  1.00  0.00     0.026 A 
HETATM   19  C   UNL     1      39.703 -13.763  -1.713  1.00  0.00     0.034 A 
HETATM   20 CL   UNL     1      38.950 -13.789  -3.260  1.00  0.00    -0.084 Cl
HETATM   21  C   UNL     1      40.377 -12.621  -1.291  1.00  0.00     0.026 A 
HETATM   22  C   UNL     1      40.989 -12.602  -0.032  1.00  0.00     0.031 A 
ENDBRANCH  13  16
ENDBRANCH  10  12
BRANCH   9  23
HETATM   23  C   UNL     1      40.865 -11.642   5.029  1.00  0.00     0.005 A 
HETATM   24  C   UNL     1      40.167 -10.804   4.139  1.00  0.00     0.076 A 
HETATM   25  C   UNL     1      38.979 -10.187   4.547  1.00  0.00     0.037 A 
HETATM   26  C   UNL     1      38.492 -10.373   5.842  1.00  0.00     0.003 A 
HETATM   27  C   UNL     1      39.186 -11.179   6.738  1.00  0.00     0.001 A 
HETATM   28  C   UNL     1      40.363 -11.810   6.336  1.00  0.00     0.012 A 
BRANCH  24  29
HETATM   29  O   UNL     1      40.693 -10.671   2.882  1.00  0.00    -0.355 OA
HETATM   30  C   UNL     1      40.654  -9.363   2.319  1.00  0.00     0.210 C 
ENDBRANCH  24  29
ENDBRANCH   9  23
TORSDOF 4
ENDMDL
