MODEL 1
REMARK VINA RESULT:      -8.0      0.000      0.000
REMARK  5 active torsions:
REMARK  status: ('A' for Active; 'I' for Inactive)
REMARK    1  A    between atoms: C_4  and  O_5 
REMARK    2  A    between atoms: O_5  and  C_6 
REMARK    3  A    between atoms: C_6  and  C_7 
REMARK    4  A    between atoms: C_11  and  N_12 
REMARK       I    between atoms: N_12  and  C_13 
REMARK       I    between atoms: C_13  and  N_14 
REMARK    5  A    between atoms: N_14  and  C_15 
ROOT
HETATM    1  N   UNL     1      43.532 -15.272   3.700  1.00  0.00    -0.306 N 
HETATM    2  C   UNL     1      42.565 -14.312   3.593  1.00  0.00     0.325 C 
HETATM    3  N   UNL     1      41.383 -14.685   3.025  1.00  0.00    -0.305 N 
HETATM    4  O   UNL     1      42.873 -13.176   3.944  1.00  0.00    -0.247 OA
HETATM    5  H   UNL     1      44.447 -14.839   3.753  1.00  0.00     0.171 HD
HETATM    6  H   UNL     1      41.284 -15.649   2.762  1.00  0.00     0.171 HD
ENDROOT
BRANCH   1   7
HETATM    7  C   UNL     1      43.524 -16.672   3.566  1.00  0.00     0.069 A 
HETATM    8  C   UNL     1      43.967 -17.429   4.660  1.00  0.00     0.096 A 
HETATM    9  C   UNL     1      44.088 -18.817   4.578  1.00  0.00     0.046 A 
HETATM   10  C   UNL     1      43.682 -19.483   3.417  1.00  0.00    -0.059 A 
HETATM   11  C   UNL     1      43.862 -20.967   3.287  1.00  0.00     0.048 C 
HETATM   12  C   UNL     1      43.155 -18.738   2.356  1.00  0.00     0.009 A 
HETATM   13  C   UNL     1      43.063 -17.343   2.433  1.00  0.00     0.033 A 
BRANCH   8  14
HETATM   14  O   UNL     1      44.392 -16.802   5.805  1.00  0.00    -0.340 OA
BRANCH  14  15
HETATM   15  C   UNL     1      43.475 -17.036   6.891  1.00  0.00     0.293 C 
BRANCH  15  16
HETATM   16  C   UNL     1      42.898 -15.733   7.419  1.00  0.00     0.408 C 
HETATM   17  F   UNL     1      41.568 -15.644   7.195  1.00  0.00    -0.169 F 
HETATM   18  F   UNL     1      43.091 -15.640   8.756  1.00  0.00    -0.169 F 
HETATM   19  F   UNL     1      43.492 -14.661   6.849  1.00  0.00    -0.169 F 
ENDBRANCH  15  16
ENDBRANCH  14  15
ENDBRANCH   8  14
ENDBRANCH   1   7
BRANCH   3  20
HETATM   20  C   UNL     1      40.332 -13.865   2.650  1.00  0.00     0.086 A 
HETATM   21  C   UNL     1      39.489 -12.953   3.352  1.00  0.00     0.079 A 
HETATM   22  C   UNL     1      39.498 -12.527   4.775  1.00  0.00     0.075 C 
HETATM   23  N   UNL     1      38.603 -12.375   2.528  1.00  0.00    -0.177 NA
HETATM   24  N   UNL     1      38.877 -12.894   1.329  1.00  0.00    -0.280 N 
HETATM   25  H   UNL     1      38.315 -12.589   0.540  1.00  0.00     0.189 HD
HETATM   26  C   UNL     1      39.914 -13.781   1.334  1.00  0.00     0.052 A 
HETATM   27  C   UNL     1      40.353 -14.465   0.096  1.00  0.00     0.072 C 
ENDBRANCH   3  20
TORSDOF 5
ENDMDL
MODEL 2
REMARK VINA RESULT:      -7.7      2.380      6.103
REMARK  5 active torsions:
REMARK  status: ('A' for Active; 'I' for Inactive)
REMARK    1  A    between atoms: C_4  and  O_5 
REMARK    2  A    between atoms: O_5  and  C_6 
REMARK    3  A    between atoms: C_6  and  C_7 
REMARK    4  A    between atoms: C_11  and  N_12 
REMARK       I    between atoms: N_12  and  C_13 
REMARK       I    between atoms: C_13  and  N_14 
REMARK    5  A    between atoms: N_14  and  C_15 
ROOT
HETATM    1  N   UNL     1      40.056 -15.305   3.113  1.00  0.00    -0.306 N 
HETATM    2  C   UNL     1      40.966 -15.924   3.924  1.00  0.00     0.325 C 
HETATM    3  N   UNL     1      42.158 -16.272   3.363  1.00  0.00    -0.305 N 
HETATM    4  O   UNL     1      40.599 -16.185   5.067  1.00  0.00    -0.247 OA
HETATM    5  H   UNL     1      39.119 -15.441   3.475  1.00  0.00     0.171 HD
HETATM    6  H   UNL     1      42.308 -16.014   2.404  1.00  0.00     0.171 HD
ENDROOT
BRANCH   1   7
HETATM    7  C   UNL     1      40.140 -14.711   1.841  1.00  0.00     0.069 A 
HETATM    8  C   UNL     1      40.575 -13.379   1.777  1.00  0.00     0.096 A 
HETATM    9  C   UNL     1      40.592 -12.681   0.568  1.00  0.00     0.046 A 
HETATM   10  C   UNL     1      40.252 -13.338  -0.619  1.00  0.00    -0.059 A 
HETATM   11  C   UNL     1      40.205 -12.589  -1.918  1.00  0.00     0.048 C 
HETATM   12  C   UNL     1      39.905 -14.693  -0.570  1.00  0.00     0.009 A 
HETATM   13  C   UNL     1      39.861 -15.381   0.650  1.00  0.00     0.033 A 
BRANCH   8  14
HETATM   14  O   UNL     1      40.895 -12.703   2.928  1.00  0.00    -0.340 OA
BRANCH  14  15
HETATM   15  C   UNL     1      42.086 -11.913   2.747  1.00  0.00     0.293 C 
BRANCH  15  16
HETATM   16  C   UNL     1      43.319 -12.654   3.237  1.00  0.00     0.408 C 
HETATM   17  F   UNL     1      43.735 -13.583   2.348  1.00  0.00    -0.169 F 
HETATM   18  F   UNL     1      44.343 -11.789   3.428  1.00  0.00    -0.169 F 
HETATM   19  F   UNL     1      43.090 -13.275   4.416  1.00  0.00    -0.169 F 
ENDBRANCH  15  16
ENDBRANCH  14  15
ENDBRANCH   8  14
ENDBRANCH   1   7
BRANCH   3  20
HETATM   20  C   UNL     1      43.156 -17.054   3.920  1.00  0.00     0.086 A 
HETATM   21  C   UNL     1      43.980 -16.929   5.078  1.00  0.00     0.079 A 
HETATM   22  C   UNL     1      44.003 -15.893   6.142  1.00  0.00     0.075 C 
HETATM   23  N   UNL     1      44.809 -17.977   5.202  1.00  0.00    -0.177 NA
HETATM   24  N   UNL     1      44.516 -18.757   4.159  1.00  0.00    -0.280 N 
HETATM   25  H   UNL     1      45.034 -19.623   4.054  1.00  0.00     0.189 HD
HETATM   26  C   UNL     1      43.522 -18.266   3.363  1.00  0.00     0.052 A 
HETATM   27  C   UNL     1      43.071 -18.992   2.153  1.00  0.00     0.072 C 
ENDBRANCH   3  20
TORSDOF 5
ENDMDL
MODEL 3
REMARK VINA RESULT:      -7.5      1.542      1.726
REMARK  5 active torsions:
REMARK  status: ('A' for Active; 'I' for Inactive)
REMARK    1  A    between atoms: C_4  and  O_5 
REMARK    2  A    between atoms: O_5  and  C_6 
REMARK    3  A    between atoms: C_6  and  C_7 
REMARK    4  A    between atoms: C_11  and  N_12 
REMARK       I    between atoms: N_12  and  C_13 
REMARK       I    between atoms: C_13  and  N_14 
REMARK    5  A    between atoms: N_14  and  C_15 
ROOT
HETATM    1  N   UNL     1      43.148 -14.233   3.133  1.00  0.00    -0.306 N 
HETATM    2  C   UNL     1      42.134 -13.342   2.917  1.00  0.00     0.325 C 
HETATM    3  N   UNL     1      41.019 -13.815   2.290  1.00  0.00    -0.305 N 
HETATM    4  O   UNL     1      42.348 -12.175   3.232  1.00  0.00    -0.247 OA
HETATM    5  H   UNL     1      44.029 -13.740   3.226  1.00  0.00     0.171 HD
HETATM    6  H   UNL     1      40.997 -14.793   2.068  1.00  0.00     0.171 HD
ENDROOT
BRANCH   1   7
HETATM    7  C   UNL     1      43.235 -15.635   3.066  1.00  0.00     0.069 A 
HETATM    8  C   UNL     1      43.203 -16.344   4.276  1.00  0.00     0.096 A 
HETATM    9  C   UNL     1      43.384 -17.727   4.309  1.00  0.00     0.046 A 
HETATM   10  C   UNL     1      43.516 -18.440   3.113  1.00  0.00    -0.059 A 
HETATM   11  C   UNL     1      43.774 -19.918   3.131  1.00  0.00     0.048 C 
HETATM   12  C   UNL     1      43.458 -17.746   1.899  1.00  0.00     0.009 A 
HETATM   13  C   UNL     1      43.305 -16.354   1.873  1.00  0.00     0.033 A 
BRANCH   8  14
HETATM   14  O   UNL     1      43.095 -15.669   5.467  1.00  0.00    -0.340 OA
BRANCH  14  15
HETATM   15  C   UNL     1      42.101 -16.276   6.315  1.00  0.00     0.293 C 
BRANCH  15  16
HETATM   16  C   UNL     1      40.700 -15.830   5.930  1.00  0.00     0.408 C 
HETATM   17  F   UNL     1      40.217 -16.535   4.884  1.00  0.00    -0.169 F 
HETATM   18  F   UNL     1      39.848 -16.008   6.967  1.00  0.00    -0.169 F 
HETATM   19  F   UNL     1      40.669 -14.519   5.603  1.00  0.00    -0.169 F 
ENDBRANCH  15  16
ENDBRANCH  14  15
ENDBRANCH   8  14
ENDBRANCH   1   7
BRANCH   3  20
HETATM   20  C   UNL     1      39.948 -13.081   1.808  1.00  0.00     0.086 A 
HETATM   21  C   UNL     1      39.067 -12.119   2.386  1.00  0.00     0.079 A 
HETATM   22  C   UNL     1      39.042 -11.525   3.746  1.00  0.00     0.075 C 
HETATM   23  N   UNL     1      38.175 -11.674   1.488  1.00  0.00    -0.177 NA
HETATM   24  N   UNL     1      38.483 -12.324   0.363  1.00  0.00    -0.280 N 
HETATM   25  H   UNL     1      37.924 -12.136  -0.462  1.00  0.00     0.189 HD
HETATM   26  C   UNL     1      39.547 -13.170   0.487  1.00  0.00     0.052 A 
HETATM   27  C   UNL     1      40.025 -13.983  -0.655  1.00  0.00     0.072 C 
ENDBRANCH   3  20
TORSDOF 5
ENDMDL
MODEL 4
REMARK VINA RESULT:      -7.5      2.312      6.275
REMARK  5 active torsions:
REMARK  status: ('A' for Active; 'I' for Inactive)
REMARK    1  A    between atoms: C_4  and  O_5 
REMARK    2  A    between atoms: O_5  and  C_6 
REMARK    3  A    between atoms: C_6  and  C_7 
REMARK    4  A    between atoms: C_11  and  N_12 
REMARK       I    between atoms: N_12  and  C_13 
REMARK       I    between atoms: C_13  and  N_14 
REMARK    5  A    between atoms: N_14  and  C_15 
ROOT
HETATM    1  N   UNL     1      39.737 -15.526   3.244  1.00  0.00    -0.306 N 
HETATM    2  C   UNL     1      40.690 -16.151   3.999  1.00  0.00     0.325 C 
HETATM    3  N   UNL     1      41.922 -16.304   3.437  1.00  0.00    -0.305 N 
HETATM    4  O   UNL     1      40.329 -16.594   5.086  1.00  0.00    -0.247 OA
HETATM    5  H   UNL     1      38.812 -15.800   3.555  1.00  0.00     0.171 HD
HETATM    6  H   UNL     1      42.064 -15.910   2.524  1.00  0.00     0.171 HD
ENDROOT
BRANCH   1   7
HETATM    7  C   UNL     1      39.785 -14.766   2.062  1.00  0.00     0.069 A 
HETATM    8  C   UNL     1      39.637 -13.376   2.179  1.00  0.00     0.096 A 
HETATM    9  C   UNL     1      39.571 -12.558   1.051  1.00  0.00     0.046 A 
HETATM   10  C   UNL     1      39.740 -13.113  -0.222  1.00  0.00    -0.059 A 
HETATM   11  C   UNL     1      39.610 -12.259  -1.449  1.00  0.00     0.048 C 
HETATM   12  C   UNL     1      39.978 -14.487  -0.337  1.00  0.00     0.009 A 
HETATM   13  C   UNL     1      40.015 -15.308   0.797  1.00  0.00     0.033 A 
BRANCH   8  14
HETATM   14  O   UNL     1      39.448 -12.806   3.414  1.00  0.00    -0.340 OA
BRANCH  14  15
HETATM   15  C   UNL     1      40.483 -11.846   3.701  1.00  0.00     0.293 C 
BRANCH  15  16
HETATM   16  C   UNL     1      41.579 -12.455   4.559  1.00  0.00     0.408 C 
HETATM   17  F   UNL     1      42.478 -13.138   3.817  1.00  0.00    -0.169 F 
HETATM   18  F   UNL     1      42.253 -11.485   5.221  1.00  0.00    -0.169 F 
HETATM   19  F   UNL     1      41.073 -13.298   5.486  1.00  0.00    -0.169 F 
ENDBRANCH  15  16
ENDBRANCH  14  15
ENDBRANCH   8  14
ENDBRANCH   1   7
BRANCH   3  20
HETATM   20  C   UNL     1      42.984 -17.049   3.922  1.00  0.00     0.086 A 
HETATM   21  C   UNL     1      43.605 -18.267   3.517  1.00  0.00     0.079 A 
HETATM   22  C   UNL     1      43.333 -19.153   2.357  1.00  0.00     0.075 C 
HETATM   23  N   UNL     1      44.633 -18.582   4.321  1.00  0.00    -0.177 NA
HETATM   24  N   UNL     1      44.675 -17.587   5.210  1.00  0.00    -0.280 N 
HETATM   25  H   UNL     1      45.392 -17.622   5.927  1.00  0.00     0.189 HD
HETATM   26  C   UNL     1      43.723 -16.629   5.013  1.00  0.00     0.052 A 
HETATM   27  C   UNL     1      43.612 -15.454   5.909  1.00  0.00     0.072 C 
ENDBRANCH   3  20
TORSDOF 5
ENDMDL
MODEL 5
REMARK VINA RESULT:      -7.4      2.867      5.745
REMARK  5 active torsions:
REMARK  status: ('A' for Active; 'I' for Inactive)
REMARK    1  A    between atoms: C_4  and  O_5 
REMARK    2  A    between atoms: O_5  and  C_6 
REMARK    3  A    between atoms: C_6  and  C_7 
REMARK    4  A    between atoms: C_11  and  N_12 
REMARK       I    between atoms: N_12  and  C_13 
REMARK       I    between atoms: C_13  and  N_14 
REMARK    5  A    between atoms: N_14  and  C_15 
ROOT
HETATM    1  N   UNL     1      39.589 -13.808   4.259  1.00  0.00    -0.306 N 
HETATM    2  C   UNL     1      40.323 -13.329   5.308  1.00  0.00     0.325 C 
HETATM    3  N   UNL     1      41.541 -12.792   5.016  1.00  0.00    -0.305 N 
HETATM    4  O   UNL     1      39.856 -13.499   6.432  1.00  0.00    -0.247 OA
HETATM    5  H   UNL     1      38.930 -14.505   4.586  1.00  0.00     0.171 HD
HETATM    6  H   UNL     1      41.801 -12.742   4.048  1.00  0.00     0.171 HD
ENDROOT
BRANCH   1   7
HETATM    7  C   UNL     1      39.691 -13.670   2.864  1.00  0.00     0.069 A 
HETATM    8  C   UNL     1      40.017 -14.816   2.122  1.00  0.00     0.096 A 
HETATM    9  C   UNL     1      40.238 -14.748   0.746  1.00  0.00     0.046 A 
HETATM   10  C   UNL     1      40.051 -13.538   0.070  1.00  0.00    -0.059 A 
HETATM   11  C   UNL     1      40.344 -13.431  -1.398  1.00  0.00     0.048 C 
HETATM   12  C   UNL     1      39.638 -12.413   0.793  1.00  0.00     0.009 A 
HETATM   13  C   UNL     1      39.446 -12.479   2.179  1.00  0.00     0.033 A 
BRANCH   8  14
HETATM   14  O   UNL     1      40.227 -16.012   2.761  1.00  0.00    -0.340 OA
BRANCH  14  15
HETATM   15  C   UNL     1      41.539 -16.529   2.468  1.00  0.00     0.293 C 
BRANCH  15  16
HETATM   16  C   UNL     1      42.489 -16.321   3.636  1.00  0.00     0.408 C 
HETATM   17  F   UNL     1      43.160 -15.153   3.538  1.00  0.00    -0.169 F 
HETATM   18  F   UNL     1      41.802 -16.297   4.802  1.00  0.00    -0.169 F 
HETATM   19  F   UNL     1      43.396 -17.320   3.722  1.00  0.00    -0.169 F 
ENDBRANCH  15  16
ENDBRANCH  14  15
ENDBRANCH   8  14
ENDBRANCH   1   7
BRANCH   3  20
HETATM   20  C   UNL     1      42.529 -12.409   5.907  1.00  0.00     0.086 A 
HETATM   21  C   UNL     1      43.518 -13.117   6.652  1.00  0.00     0.079 A 
HETATM   22  C   UNL     1      43.858 -14.563   6.679  1.00  0.00     0.075 C 
HETATM   23  N   UNL     1      44.269 -12.281   7.385  1.00  0.00    -0.177 NA
HETATM   24  N   UNL     1      43.782 -11.069   7.108  1.00  0.00    -0.280 N 
HETATM   25  H   UNL     1      44.211 -10.270   7.563  1.00  0.00     0.189 HD
HETATM   26  C   UNL     1      42.749 -11.079   6.216  1.00  0.00     0.052 A 
HETATM   27  C   UNL     1      42.077  -9.826   5.798  1.00  0.00     0.072 C 
ENDBRANCH   3  20
TORSDOF 5
ENDMDL
MODEL 6
REMARK VINA RESULT:      -7.3      2.272      3.377
REMARK  5 active torsions:
REMARK  status: ('A' for Active; 'I' for Inactive)
REMARK    1  A    between atoms: C_4  and  O_5 
REMARK    2  A    between atoms: O_5  and  C_6 
REMARK    3  A    between atoms: C_6  and  C_7 
REMARK    4  A    between atoms: C_11  and  N_12 
REMARK       I    between atoms: N_12  and  C_13 
REMARK       I    between atoms: C_13  and  N_14 
REMARK    5  A    between atoms: N_14  and  C_15 
ROOT
HETATM    1  N   UNL     1      42.832 -13.462   2.188  1.00  0.00    -0.306 N 
HETATM    2  C   UNL     1      41.791 -12.773   1.630  1.00  0.00     0.325 C 
HETATM    3  N   UNL     1      40.784 -13.511   1.082  1.00  0.00    -0.305 N 
HETATM    4  O   UNL     1      41.893 -11.549   1.599  1.00  0.00    -0.247 OA
HETATM    5  H   UNL     1      43.663 -12.882   2.203  1.00  0.00     0.171 HD
HETATM    6  H   UNL     1      40.851 -14.510   1.162  1.00  0.00     0.171 HD
ENDROOT
BRANCH   1   7
HETATM    7  C   UNL     1      43.017 -14.807   2.551  1.00  0.00     0.069 A 
HETATM    8  C   UNL     1      43.073 -15.107   3.921  1.00  0.00     0.096 A 
HETATM    9  C   UNL     1      43.354 -16.398   4.368  1.00  0.00     0.046 A 
HETATM   10  C   UNL     1      43.501 -17.438   3.444  1.00  0.00    -0.059 A 
HETATM   11  C   UNL     1      43.865 -18.819   3.903  1.00  0.00     0.048 C 
HETATM   12  C   UNL     1      43.357 -17.160   2.080  1.00  0.00     0.009 A 
HETATM   13  C   UNL     1      43.103 -15.856   1.635  1.00  0.00     0.033 A 
BRANCH   8  14
HETATM   14  O   UNL     1      42.953 -14.103   4.850  1.00  0.00    -0.340 OA
BRANCH  14  15
HETATM   15  C   UNL     1      41.788 -14.301   5.674  1.00  0.00     0.293 C 
BRANCH  15  16
HETATM   16  C   UNL     1      40.625 -13.444   5.202  1.00  0.00     0.408 C 
HETATM   17  F   UNL     1      39.727 -13.226   6.188  1.00  0.00    -0.169 F 
HETATM   18  F   UNL     1      41.070 -12.236   4.784  1.00  0.00    -0.169 F 
HETATM   19  F   UNL     1      39.976 -14.017   4.164  1.00  0.00    -0.169 F 
ENDBRANCH  15  16
ENDBRANCH  14  15
ENDBRANCH   8  14
ENDBRANCH   1   7
BRANCH   3  20
HETATM   20  C   UNL     1      39.726 -13.055   0.314  1.00  0.00     0.086 A 
HETATM   21  C   UNL     1      39.363 -13.205  -1.058  1.00  0.00     0.079 A 
HETATM   22  C   UNL     1      40.006 -13.977  -2.150  1.00  0.00     0.075 C 
HETATM   23  N   UNL     1      38.213 -12.569  -1.329  1.00  0.00    -0.177 NA
HETATM   24  N   UNL     1      37.845 -12.037  -0.162  1.00  0.00    -0.280 N 
HETATM   25  H   UNL     1      36.983 -11.500  -0.136  1.00  0.00     0.189 HD
HETATM   26  C   UNL     1      38.702 -12.307   0.865  1.00  0.00     0.052 A 
HETATM   27  C   UNL     1      38.460 -11.789   2.231  1.00  0.00     0.072 C 
ENDBRANCH   3  20
TORSDOF 5
ENDMDL
MODEL 7
REMARK VINA RESULT:      -7.2      3.668      4.834
REMARK  5 active torsions:
REMARK  status: ('A' for Active; 'I' for Inactive)
REMARK    1  A    between atoms: C_4  and  O_5 
REMARK    2  A    between atoms: O_5  and  C_6 
REMARK    3  A    between atoms: C_6  and  C_7 
REMARK    4  A    between atoms: C_11  and  N_12 
REMARK       I    between atoms: N_12  and  C_13 
REMARK       I    between atoms: C_13  and  N_14 
REMARK    5  A    between atoms: N_14  and  C_15 
ROOT
HETATM    1  N   UNL     1      40.999 -15.636   5.851  1.00  0.00    -0.306 N 
HETATM    2  C   UNL     1      40.858 -14.282   5.980  1.00  0.00     0.325 C 
HETATM    3  N   UNL     1      41.880 -13.507   5.520  1.00  0.00    -0.305 N 
HETATM    4  O   UNL     1      39.859 -13.886   6.574  1.00  0.00    -0.247 OA
HETATM    5  H   UNL     1      40.424 -16.112   6.536  1.00  0.00     0.171 HD
HETATM    6  H   UNL     1      42.649 -13.976   5.077  1.00  0.00     0.171 HD
ENDROOT
BRANCH   1   7
HETATM    7  C   UNL     1      41.882 -16.450   5.120  1.00  0.00     0.069 A 
HETATM    8  C   UNL     1      41.788 -16.415   3.721  1.00  0.00     0.096 A 
HETATM    9  C   UNL     1      42.556 -17.265   2.923  1.00  0.00     0.046 A 
HETATM   10  C   UNL     1      43.500 -18.110   3.514  1.00  0.00    -0.059 A 
HETATM   11  C   UNL     1      44.289 -19.074   2.678  1.00  0.00     0.048 C 
HETATM   12  C   UNL     1      43.659 -18.083   4.904  1.00  0.00     0.009 A 
HETATM   13  C   UNL     1      42.867 -17.249   5.703  1.00  0.00     0.033 A 
BRANCH   8  14
HETATM   14  O   UNL     1      40.856 -15.610   3.114  1.00  0.00    -0.340 OA
BRANCH  14  15
HETATM   15  C   UNL     1      41.372 -15.061   1.886  1.00  0.00     0.293 C 
BRANCH  15  16
HETATM   16  C   UNL     1      40.271 -14.886   0.853  1.00  0.00     0.408 C 
HETATM   17  F   UNL     1      40.768 -14.613  -0.373  1.00  0.00    -0.169 F 
HETATM   18  F   UNL     1      39.538 -16.020   0.750  1.00  0.00    -0.169 F 
HETATM   19  F   UNL     1      39.425 -13.889   1.195  1.00  0.00    -0.169 F 
ENDBRANCH  15  16
ENDBRANCH  14  15
ENDBRANCH   8  14
ENDBRANCH   1   7
BRANCH   3  20
HETATM   20  C   UNL     1      42.050 -12.144   5.695  1.00  0.00     0.086 A 
HETATM   21  C   UNL     1      42.911 -11.350   6.510  1.00  0.00     0.079 A 
HETATM   22  C   UNL     1      43.993 -11.747   7.446  1.00  0.00     0.075 C 
HETATM   23  N   UNL     1      42.700 -10.040   6.311  1.00  0.00    -0.177 NA
HETATM   24  N   UNL     1      41.739  -9.996   5.386  1.00  0.00    -0.280 N 
HETATM   25  H   UNL     1      41.417  -9.083   5.079  1.00  0.00     0.189 HD
HETATM   26  C   UNL     1      41.319 -11.224   4.965  1.00  0.00     0.052 A 
HETATM   27  C   UNL     1      40.250 -11.370   3.949  1.00  0.00     0.072 C 
ENDBRANCH   3  20
TORSDOF 5
ENDMDL
MODEL 8
REMARK VINA RESULT:      -7.1      2.081      2.706
REMARK  5 active torsions:
REMARK  status: ('A' for Active; 'I' for Inactive)
REMARK    1  A    between atoms: C_4  and  O_5 
REMARK    2  A    between atoms: O_5  and  C_6 
REMARK    3  A    between atoms: C_6  and  C_7 
REMARK    4  A    between atoms: C_11  and  N_12 
REMARK       I    between atoms: N_12  and  C_13 
REMARK       I    between atoms: C_13  and  N_14 
REMARK    5  A    between atoms: N_14  and  C_15 
ROOT
HETATM    1  N   UNL     1      43.248 -12.836   3.582  1.00  0.00    -0.306 N 
HETATM    2  C   UNL     1      42.346 -11.910   4.026  1.00  0.00     0.325 C 
HETATM    3  N   UNL     1      41.025 -12.214   3.884  1.00  0.00    -0.305 N 
HETATM    4  O   UNL     1      42.805 -10.849   4.442  1.00  0.00    -0.247 OA
HETATM    5  H   UNL     1      44.131 -12.387   3.368  1.00  0.00     0.171 HD
HETATM    6  H   UNL     1      40.800 -13.115   3.502  1.00  0.00     0.171 HD
ENDROOT
BRANCH   1   7
HETATM    7  C   UNL     1      43.140 -14.185   3.201  1.00  0.00     0.069 A 
HETATM    8  C   UNL     1      42.844 -15.120   4.205  1.00  0.00     0.096 A 
HETATM    9  C   UNL     1      42.818 -16.489   3.935  1.00  0.00     0.046 A 
HETATM   10  C   UNL     1      43.005 -16.943   2.625  1.00  0.00    -0.059 A 
HETATM   11  C   UNL     1      43.043 -18.412   2.326  1.00  0.00     0.048 C 
HETATM   12  C   UNL     1      43.212 -16.007   1.605  1.00  0.00     0.009 A 
HETATM   13  C   UNL     1      43.266 -14.636   1.887  1.00  0.00     0.033 A 
BRANCH   8  14
HETATM   14  O   UNL     1      42.675 -14.705   5.503  1.00  0.00    -0.340 OA
BRANCH  14  15
HETATM   15  C   UNL     1      43.685 -15.273   6.360  1.00  0.00     0.293 C 
BRANCH  15  16
HETATM   16  C   UNL     1      43.061 -16.052   7.506  1.00  0.00     0.408 C 
HETATM   17  F   UNL     1      43.737 -17.193   7.765  1.00  0.00    -0.169 F 
HETATM   18  F   UNL     1      43.068 -15.311   8.639  1.00  0.00    -0.169 F 
HETATM   19  F   UNL     1      41.776 -16.377   7.244  1.00  0.00    -0.169 F 
ENDBRANCH  15  16
ENDBRANCH  14  15
ENDBRANCH   8  14
ENDBRANCH   1   7
BRANCH   3  20
HETATM   20  C   UNL     1      39.940 -11.379   4.090  1.00  0.00     0.086 A 
HETATM   21  C   UNL     1      39.331 -10.818   5.252  1.00  0.00     0.079 A 
HETATM   22  C   UNL     1      39.710 -10.912   6.684  1.00  0.00     0.075 C 
HETATM   23  N   UNL     1      38.285 -10.042   4.927  1.00  0.00    -0.177 NA
HETATM   24  N   UNL     1      38.233 -10.097   3.594  1.00  0.00    -0.280 N 
HETATM   25  H   UNL     1      37.501  -9.571   3.126  1.00  0.00     0.189 HD
HETATM   26  C   UNL     1      39.209 -10.868   3.034  1.00  0.00     0.052 A 
HETATM   27  C   UNL     1      39.301 -11.053   1.567  1.00  0.00     0.072 C 
ENDBRANCH   3  20
TORSDOF 5
ENDMDL
MODEL 9
REMARK VINA RESULT:      -7.1      3.210      5.931
REMARK  5 active torsions:
REMARK  status: ('A' for Active; 'I' for Inactive)
REMARK    1  A    between atoms: C_4  and  O_5 
REMARK    2  A    between atoms: O_5  and  C_6 
REMARK    3  A    between atoms: C_6  and  C_7 
REMARK    4  A    between atoms: C_11  and  N_12 
REMARK       I    between atoms: N_12  and  C_13 
REMARK       I    between atoms: C_13  and  N_14 
REMARK    5  A    between atoms: N_14  and  C_15 
ROOT
HETATM    1  N   UNL     1      39.527 -13.577   4.386  1.00  0.00    -0.306 N 
HETATM    2  C   UNL     1      40.245 -13.029   5.412  1.00  0.00     0.325 C 
HETATM    3  N   UNL     1      41.450 -12.476   5.098  1.00  0.00    -0.305 N 
HETATM    4  O   UNL     1      39.778 -13.155   6.542  1.00  0.00    -0.247 OA
HETATM    5  H   UNL     1      38.885 -14.274   4.745  1.00  0.00     0.171 HD
HETATM    6  H   UNL     1      41.713 -12.468   4.129  1.00  0.00     0.171 HD
ENDROOT
BRANCH   1   7
HETATM    7  C   UNL     1      39.632 -13.505   2.986  1.00  0.00     0.069 A 
HETATM    8  C   UNL     1      40.318 -14.542   2.334  1.00  0.00     0.096 A 
HETATM    9  C   UNL     1      40.556 -14.500   0.960  1.00  0.00     0.046 A 
HETATM   10  C   UNL     1      40.033 -13.452   0.195  1.00  0.00    -0.059 A 
HETATM   11  C   UNL     1      40.331 -13.356  -1.272  1.00  0.00     0.048 C 
HETATM   12  C   UNL     1      39.272 -12.463   0.829  1.00  0.00     0.009 A 
HETATM   13  C   UNL     1      39.060 -12.495   2.213  1.00  0.00     0.033 A 
BRANCH   8  14
HETATM   14  O   UNL     1      40.860 -15.573   3.062  1.00  0.00    -0.340 OA
BRANCH  14  15
HETATM   15  C   UNL     1      41.477 -16.545   2.196  1.00  0.00     0.293 C 
BRANCH  15  16
HETATM   16  C   UNL     1      42.990 -16.529   2.338  1.00  0.00     0.408 C 
HETATM   17  F   UNL     1      43.486 -17.762   2.582  1.00  0.00    -0.169 F 
HETATM   18  F   UNL     1      43.564 -16.080   1.197  1.00  0.00    -0.169 F 
HETATM   19  F   UNL     1      43.386 -15.712   3.338  1.00  0.00    -0.169 F 
ENDBRANCH  15  16
ENDBRANCH  14  15
ENDBRANCH   8  14
ENDBRANCH   1   7
BRANCH   3  20
HETATM   20  C   UNL     1      42.425 -12.025   5.972  1.00  0.00     0.086 A 
HETATM   21  C   UNL     1      42.745 -10.749   6.524  1.00  0.00     0.079 A 
HETATM   22  C   UNL     1      42.074  -9.433   6.371  1.00  0.00     0.075 C 
HETATM   23  N   UNL     1      43.799 -10.826   7.352  1.00  0.00    -0.177 NA
HETATM   24  N   UNL     1      44.136 -12.118   7.339  1.00  0.00    -0.280 N 
HETATM   25  H   UNL     1      44.925 -12.407   7.909  1.00  0.00     0.189 HD
HETATM   26  C   UNL     1      43.340 -12.890   6.544  1.00  0.00     0.052 A 
HETATM   27  C   UNL     1      43.572 -14.346   6.399  1.00  0.00     0.072 C 
ENDBRANCH   3  20
TORSDOF 5
ENDMDL
MODEL 10
REMARK VINA RESULT:      -7.1      2.199      2.846
REMARK  5 active torsions:
REMARK  status: ('A' for Active; 'I' for Inactive)
REMARK    1  A    between atoms: C_4  and  O_5 
REMARK    2  A    between atoms: O_5  and  C_6 
REMARK    3  A    between atoms: C_6  and  C_7 
REMARK    4  A    between atoms: C_11  and  N_12 
REMARK       I    between atoms: N_12  and  C_13 
REMARK       I    between atoms: C_13  and  N_14 
REMARK    5  A    between atoms: N_14  and  C_15 
ROOT
HETATM    1  N   UNL     1      40.200 -14.779   3.325  1.00  0.00    -0.306 N 
HETATM    2  C   UNL     1      39.821 -13.862   2.385  1.00  0.00     0.325 C 
HETATM    3  N   UNL     1      40.643 -13.703   1.309  1.00  0.00    -0.305 N 
HETATM    4  O   UNL     1      38.814 -13.203   2.631  1.00  0.00    -0.247 OA
HETATM    5  H   UNL     1      39.778 -14.555   4.219  1.00  0.00     0.171 HD
HETATM    6  H   UNL     1      41.449 -14.299   1.255  1.00  0.00     0.171 HD
ENDROOT
BRANCH   1   7
HETATM    7  C   UNL     1      41.160 -15.806   3.342  1.00  0.00     0.069 A 
HETATM    8  C   UNL     1      41.893 -15.988   4.525  1.00  0.00     0.096 A 
HETATM    9  C   UNL     1      42.933 -16.916   4.596  1.00  0.00     0.046 A 
HETATM   10  C   UNL     1      43.202 -17.745   3.502  1.00  0.00    -0.059 A 
HETATM   11  C   UNL     1      44.355 -18.704   3.538  1.00  0.00     0.048 C 
HETATM   12  C   UNL     1      42.414 -17.627   2.351  1.00  0.00     0.009 A 
HETATM   13  C   UNL     1      41.390 -16.675   2.275  1.00  0.00     0.033 A 
BRANCH   8  14
HETATM   14  O   UNL     1      41.664 -15.176   5.608  1.00  0.00    -0.340 OA
BRANCH  14  15
HETATM   15  C   UNL     1      42.658 -14.136   5.691  1.00  0.00     0.293 C 
BRANCH  15  16
HETATM   16  C   UNL     1      43.506 -14.281   6.944  1.00  0.00     0.408 C 
HETATM   17  F   UNL     1      43.836 -13.081   7.469  1.00  0.00    -0.169 F 
HETATM   18  F   UNL     1      42.828 -14.967   7.894  1.00  0.00    -0.169 F 
HETATM   19  F   UNL     1      44.648 -14.959   6.694  1.00  0.00    -0.169 F 
ENDBRANCH  15  16
ENDBRANCH  14  15
ENDBRANCH   8  14
ENDBRANCH   1   7
BRANCH   3  20
HETATM   20  C   UNL     1      40.570 -12.728   0.329  1.00  0.00     0.086 A 
HETATM   21  C   UNL     1      40.979 -11.363   0.258  1.00  0.00     0.079 A 
HETATM   22  C   UNL     1      41.696 -10.516   1.244  1.00  0.00     0.075 C 
HETATM   23  N   UNL     1      40.693 -10.830  -0.940  1.00  0.00    -0.177 NA
HETATM   24  N   UNL     1      40.127 -11.829  -1.621  1.00  0.00    -0.280 N 
HETATM   25  H   UNL     1      39.827 -11.643  -2.573  1.00  0.00     0.189 HD
HETATM   26  C   UNL     1      40.040 -12.997  -0.921  1.00  0.00     0.052 A 
HETATM   27  C   UNL     1      39.431 -14.210  -1.513  1.00  0.00     0.072 C 
ENDBRANCH   3  20
TORSDOF 5
ENDMDL
