MODEL 1
REMARK VINA RESULT:     -10.0      0.000      0.000
REMARK  6 active torsions:
REMARK  status: ('A' for Active; 'I' for Inactive)
REMARK    1  A    between atoms: C_2  and  O_3 
REMARK    2  A    between atoms: O_3  and  C_4 
REMARK    3  A    between atoms: C_7  and  C_8 
REMARK       I    between atoms: C_8  and  N_9 
REMARK    4  A    between atoms: N_9  and  C_10 
REMARK    5  A    between atoms: N_11  and  C_12 
REMARK    6  A    between atoms: C_24  and  C_25 
ROOT
HETATM    1  C   UNL     1      41.545 -13.723   2.162  1.00  0.00     0.152 C 
HETATM    2  N   UNL     1      41.377 -15.094   1.972  1.00  0.00    -0.044 N 
HETATM    3  N   UNL     1      40.455 -15.341   0.979  1.00  0.00    -0.148 NA
HETATM    4  C   UNL     1      40.314 -14.155   0.375  1.00  0.00     0.115 C 
HETATM    5  C   UNL     1      41.010 -13.126   1.043  1.00  0.00     0.087 C 
ENDROOT
BRANCH   1   6
HETATM    6  N   UNL     1      42.121 -13.088   3.251  1.00  0.00    -0.307 N 
HETATM    7  C   UNL     1      41.526 -13.153   4.498  1.00  0.00     0.257 C 
HETATM    8  O   UNL     1      40.503 -13.757   4.798  1.00  0.00    -0.267 OA
HETATM    9  H   UNL     1      42.786 -12.344   3.078  1.00  0.00     0.170 HD
BRANCH   7  10
HETATM   10  C   UNL     1      42.164 -12.303   5.519  1.00  0.00     0.032 A 
HETATM   11  C   UNL     1      43.327 -12.741   6.162  1.00  0.00     0.020 A 
HETATM   12  C   UNL     1      43.977 -11.894   7.062  1.00  0.00     0.038 A 
HETATM   13  C   UNL     1      43.469 -10.615   7.298  1.00  0.00     0.069 A 
HETATM   14  C   UNL     1      42.280 -10.204   6.690  1.00  0.00     0.038 A 
HETATM   15  C   UNL     1      41.631 -11.041   5.781  1.00  0.00     0.020 A 
BRANCH  13  16
HETATM   16  O   UNL     1      44.062  -9.702   8.128  1.00  0.00    -0.347 OA
BRANCH  16  17
HETATM   17  C   UNL     1      45.341 -10.085   8.661  1.00  0.00     0.120 C 
HETATM   18  C   UNL     1      45.297  -9.773  10.156  1.00  0.00     0.040 C 
HETATM   19  C   UNL     1      46.481  -9.300   8.008  1.00  0.00     0.040 C 
ENDBRANCH  16  17
ENDBRANCH  13  16
ENDBRANCH   7  10
ENDBRANCH   1   6
BRANCH   2  20
HETATM   20  C   UNL     1      42.104 -16.191   2.487  1.00  0.00     0.732 A 
HETATM   21  N   UNL     1      42.118 -17.377   1.968  1.00  0.00    -0.067 NA
HETATM   22  C   UNL     1      42.864 -18.327   2.632  1.00  0.00     0.065 A 
HETATM   23  C   UNL     1      43.560 -18.091   3.761  1.00  0.00     0.036 A 
HETATM   24  C   UNL     1      42.860 -19.697   1.995  1.00  0.00     0.060 C 
HETATM   25  C   UNL     1      44.362 -19.124   4.497  1.00  0.00     0.046 C 
HETATM   26  C   UNL     1      43.511 -16.727   4.335  1.00  0.00     0.268 A 
HETATM   27  C   UNL     1      44.044 -20.551   4.048  1.00  0.00     0.005 C 
HETATM   28  C   UNL     1      43.945 -20.636   2.531  1.00  0.00     0.006 C 
HETATM   29  O   UNL     1      44.112 -16.422   5.359  1.00  0.00    -0.267 OA
HETATM   30  N   UNL     1      42.742 -15.844   3.649  1.00  0.00    -0.152 N 
HETATM   31  H   UNL     1      42.647 -14.898   4.001  1.00  0.00     0.188 HD
ENDBRANCH   2  20
BRANCH   4  32
HETATM   32  C   UNL     1      39.479 -13.967  -0.847  1.00  0.00     0.105 A 
HETATM   33  O   UNL     1      38.587 -12.943  -1.023  1.00  0.00    -0.320 OA
HETATM   34  C   UNL     1      38.023 -13.108  -2.248  1.00  0.00     0.142 A 
HETATM   35  C   UNL     1      38.535 -14.222  -2.869  1.00  0.00     0.027 A 
HETATM   36  C   UNL     1      39.475 -14.777  -1.966  1.00  0.00     0.041 A 
ENDBRANCH   4  32
TORSDOF 6
ENDMDL
MODEL 2
REMARK VINA RESULT:      -9.8      1.583      2.107
REMARK  6 active torsions:
REMARK  status: ('A' for Active; 'I' for Inactive)
REMARK    1  A    between atoms: C_2  and  O_3 
REMARK    2  A    between atoms: O_3  and  C_4 
REMARK    3  A    between atoms: C_7  and  C_8 
REMARK       I    between atoms: C_8  and  N_9 
REMARK    4  A    between atoms: N_9  and  C_10 
REMARK    5  A    between atoms: N_11  and  C_12 
REMARK    6  A    between atoms: C_24  and  C_25 
ROOT
HETATM    1  C   UNL     1      41.334 -12.972   3.173  1.00  0.00     0.152 C 
HETATM    2  N   UNL     1      41.164 -14.352   3.067  1.00  0.00    -0.044 N 
HETATM    3  N   UNL     1      40.359 -14.664   1.995  1.00  0.00    -0.148 NA
HETATM    4  C   UNL     1      40.310 -13.527   1.292  1.00  0.00     0.115 C 
HETATM    5  C   UNL     1      40.942 -12.456   1.958  1.00  0.00     0.087 C 
ENDROOT
BRANCH   1   6
HETATM    6  N   UNL     1      41.792 -12.262   4.273  1.00  0.00    -0.307 N 
HETATM    7  C   UNL     1      43.100 -11.814   4.325  1.00  0.00     0.257 C 
HETATM    8  O   UNL     1      43.961 -11.945   3.464  1.00  0.00    -0.267 OA
HETATM    9  H   UNL     1      41.279 -12.339   5.142  1.00  0.00     0.170 HD
BRANCH   7  10
HETATM   10  C   UNL     1      43.484 -11.217   5.617  1.00  0.00     0.032 A 
HETATM   11  C   UNL     1      42.574 -10.412   6.310  1.00  0.00     0.020 A 
HETATM   12  C   UNL     1      42.910  -9.925   7.575  1.00  0.00     0.038 A 
HETATM   13  C   UNL     1      44.143 -10.257   8.140  1.00  0.00     0.069 A 
HETATM   14  C   UNL     1      45.066 -11.020   7.420  1.00  0.00     0.038 A 
HETATM   15  C   UNL     1      44.732 -11.521   6.161  1.00  0.00     0.020 A 
BRANCH  13  16
HETATM   16  O   UNL     1      44.539  -9.862   9.388  1.00  0.00    -0.347 OA
BRANCH  16  17
HETATM   17  C   UNL     1      43.504  -9.822  10.386  1.00  0.00     0.120 C 
HETATM   18  C   UNL     1      43.498  -8.400  10.945  1.00  0.00     0.040 C 
HETATM   19  C   UNL     1      43.775 -10.816  11.518  1.00  0.00     0.040 C 
ENDBRANCH  16  17
ENDBRANCH  13  16
ENDBRANCH   7  10
ENDBRANCH   1   6
BRANCH   2  20
HETATM   20  C   UNL     1      41.806 -15.414   3.744  1.00  0.00     0.732 A 
HETATM   21  N   UNL     1      42.499 -16.344   3.168  1.00  0.00    -0.067 NA
HETATM   22  C   UNL     1      43.026 -17.314   3.995  1.00  0.00     0.065 A 
HETATM   23  C   UNL     1      42.863 -17.342   5.331  1.00  0.00     0.036 A 
HETATM   24  C   UNL     1      43.832 -18.380   3.288  1.00  0.00     0.060 C 
HETATM   25  C   UNL     1      43.419 -18.403   6.234  1.00  0.00     0.046 C 
HETATM   26  C   UNL     1      42.053 -16.270   5.955  1.00  0.00     0.268 A 
HETATM   27  C   UNL     1      43.900 -19.638   5.471  1.00  0.00     0.005 C 
HETATM   28  C   UNL     1      44.684 -19.239   4.227  1.00  0.00     0.006 C 
HETATM   29  O   UNL     1      41.850 -16.217   7.162  1.00  0.00    -0.267 OA
HETATM   30  N   UNL     1      41.543 -15.359   5.087  1.00  0.00    -0.152 N 
HETATM   31  H   UNL     1      40.961 -14.612   5.446  1.00  0.00     0.188 HD
ENDBRANCH   2  20
BRANCH   4  32
HETATM   32  C   UNL     1      39.625 -13.423  -0.029  1.00  0.00     0.105 A 
HETATM   33  O   UNL     1      38.920 -12.328  -0.451  1.00  0.00    -0.320 OA
HETATM   34  C   UNL     1      38.448 -12.607  -1.693  1.00  0.00     0.142 A 
HETATM   35  C   UNL     1      38.835 -13.867  -2.084  1.00  0.00     0.027 A 
HETATM   36  C   UNL     1      39.595 -14.394  -1.011  1.00  0.00     0.041 A 
ENDBRANCH   4  32
TORSDOF 6
ENDMDL
MODEL 3
REMARK VINA RESULT:      -9.7      1.695      7.853
REMARK  6 active torsions:
REMARK  status: ('A' for Active; 'I' for Inactive)
REMARK    1  A    between atoms: C_2  and  O_3 
REMARK    2  A    between atoms: O_3  and  C_4 
REMARK    3  A    between atoms: C_7  and  C_8 
REMARK       I    between atoms: C_8  and  N_9 
REMARK    4  A    between atoms: N_9  and  C_10 
REMARK    5  A    between atoms: N_11  and  C_12 
REMARK    6  A    between atoms: C_24  and  C_25 
ROOT
HETATM    1  C   UNL     1      42.497 -12.175   5.305  1.00  0.00     0.152 C 
HETATM    2  N   UNL     1      43.407 -13.121   5.778  1.00  0.00    -0.044 N 
HETATM    3  N   UNL     1      44.155 -12.604   6.812  1.00  0.00    -0.148 NA
HETATM    4  C   UNL     1      43.494 -11.493   7.158  1.00  0.00     0.115 C 
HETATM    5  C   UNL     1      42.427 -11.208   6.283  1.00  0.00     0.087 C 
ENDROOT
BRANCH   1   6
HETATM    6  N   UNL     1      41.812 -12.195   4.100  1.00  0.00    -0.307 N 
HETATM    7  C   UNL     1      40.609 -12.868   3.986  1.00  0.00     0.257 C 
HETATM    8  O   UNL     1      40.012 -13.468   4.872  1.00  0.00    -0.267 OA
HETATM    9  H   UNL     1      42.326 -11.990   3.252  1.00  0.00     0.170 HD
BRANCH   7  10
HETATM   10  C   UNL     1      40.080 -12.936   2.612  1.00  0.00     0.032 A 
HETATM   11  C   UNL     1      39.331 -11.870   2.101  1.00  0.00     0.020 A 
HETATM   12  C   UNL     1      38.911 -11.900   0.770  1.00  0.00     0.038 A 
HETATM   13  C   UNL     1      39.253 -12.984  -0.040  1.00  0.00     0.069 A 
HETATM   14  C   UNL     1      39.959 -14.067   0.492  1.00  0.00     0.038 A 
HETATM   15  C   UNL     1      40.393 -14.039   1.818  1.00  0.00     0.020 A 
BRANCH  13  16
HETATM   16  O   UNL     1      38.923 -13.079  -1.364  1.00  0.00    -0.347 OA
BRANCH  16  17
HETATM   17  C   UNL     1      39.688 -14.026  -2.130  1.00  0.00     0.120 C 
HETATM   18  C   UNL     1      40.640 -13.209  -3.002  1.00  0.00     0.040 C 
HETATM   19  C   UNL     1      38.789 -14.886  -3.021  1.00  0.00     0.040 C 
ENDBRANCH  16  17
ENDBRANCH  13  16
ENDBRANCH   7  10
ENDBRANCH   1   6
BRANCH   2  20
HETATM   20  C   UNL     1      43.535 -14.498   5.492  1.00  0.00     0.732 A 
HETATM   21  N   UNL     1      43.373 -15.027   4.321  1.00  0.00    -0.067 NA
HETATM   22  C   UNL     1      43.511 -16.397   4.245  1.00  0.00     0.065 A 
HETATM   23  C   UNL     1      43.796 -17.190   5.294  1.00  0.00     0.036 A 
HETATM   24  C   UNL     1      43.320 -16.978   2.862  1.00  0.00     0.060 C 
HETATM   25  C   UNL     1      43.931 -18.682   5.221  1.00  0.00     0.046 C 
HETATM   26  C   UNL     1      43.961 -16.554   6.622  1.00  0.00     0.268 A 
HETATM   27  C   UNL     1      43.378 -19.264   3.919  1.00  0.00     0.005 C 
HETATM   28  C   UNL     1      43.805 -18.423   2.722  1.00  0.00     0.006 C 
HETATM   29  O   UNL     1      44.220 -17.197   7.632  1.00  0.00    -0.267 OA
HETATM   30  N   UNL     1      43.791 -15.207   6.636  1.00  0.00    -0.152 N 
HETATM   31  H   UNL     1      43.868 -14.712   7.517  1.00  0.00     0.188 HD
ENDBRANCH   2  20
BRANCH   4  32
HETATM   32  C   UNL     1      43.888 -10.651   8.325  1.00  0.00     0.105 A 
HETATM   33  O   UNL     1      44.209 -11.143   9.562  1.00  0.00    -0.320 OA
HETATM   34  C   UNL     1      44.510 -10.081  10.352  1.00  0.00     0.142 A 
HETATM   35  C   UNL     1      44.389  -8.906   9.649  1.00  0.00     0.027 A 
HETATM   36  C   UNL     1      43.988  -9.273   8.340  1.00  0.00     0.041 A 
ENDBRANCH   4  32
TORSDOF 6
ENDMDL
MODEL 4
REMARK VINA RESULT:      -9.5      1.823      6.029
REMARK  6 active torsions:
REMARK  status: ('A' for Active; 'I' for Inactive)
REMARK    1  A    between atoms: C_2  and  O_3 
REMARK    2  A    between atoms: O_3  and  C_4 
REMARK    3  A    between atoms: C_7  and  C_8 
REMARK       I    between atoms: C_8  and  N_9 
REMARK    4  A    between atoms: N_9  and  C_10 
REMARK    5  A    between atoms: N_11  and  C_12 
REMARK    6  A    between atoms: C_24  and  C_25 
ROOT
HETATM    1  C   UNL     1      43.092 -15.091   4.102  1.00  0.00     0.152 C 
HETATM    2  N   UNL     1      42.400 -15.164   2.893  1.00  0.00    -0.044 N 
HETATM    3  N   UNL     1      42.589 -16.389   2.295  1.00  0.00    -0.148 NA
HETATM    4  C   UNL     1      43.115 -17.141   3.270  1.00  0.00     0.115 C 
HETATM    5  C   UNL     1      43.402 -16.392   4.430  1.00  0.00     0.087 C 
ENDROOT
BRANCH   1   6
HETATM    6  N   UNL     1      43.411 -13.951   4.823  1.00  0.00    -0.307 N 
HETATM    7  C   UNL     1      42.620 -13.544   5.882  1.00  0.00     0.257 C 
HETATM    8  O   UNL     1      41.622 -14.106   6.317  1.00  0.00    -0.267 OA
HETATM    9  H   UNL     1      44.023 -13.267   4.394  1.00  0.00     0.170 HD
BRANCH   7  10
HETATM   10  C   UNL     1      42.991 -12.234   6.448  1.00  0.00     0.032 A 
HETATM   11  C   UNL     1      42.090 -11.166   6.380  1.00  0.00     0.020 A 
HETATM   12  C   UNL     1      42.410  -9.956   6.997  1.00  0.00     0.038 A 
HETATM   13  C   UNL     1      43.617  -9.828   7.688  1.00  0.00     0.069 A 
HETATM   14  C   UNL     1      44.533 -10.883   7.708  1.00  0.00     0.038 A 
HETATM   15  C   UNL     1      44.215 -12.100   7.104  1.00  0.00     0.020 A 
BRANCH  13  16
HETATM   16  O   UNL     1      43.995  -8.697   8.358  1.00  0.00    -0.347 OA
BRANCH  16  17
HETATM   17  C   UNL     1      43.265  -8.416   9.565  1.00  0.00     0.120 C 
HETATM   18  C   UNL     1      43.166  -6.895   9.667  1.00  0.00     0.040 C 
HETATM   19  C   UNL     1      43.988  -8.964  10.798  1.00  0.00     0.040 C 
ENDBRANCH  16  17
ENDBRANCH  13  16
ENDBRANCH   7  10
ENDBRANCH   1   6
BRANCH   2  20
HETATM   20  C   UNL     1      41.450 -14.288   2.323  1.00  0.00     0.732 A 
HETATM   21  N   UNL     1      40.727 -13.446   2.992  1.00  0.00    -0.067 NA
HETATM   22  C   UNL     1      39.831 -12.695   2.261  1.00  0.00     0.065 A 
HETATM   23  C   UNL     1      39.673 -12.789   0.927  1.00  0.00     0.036 A 
HETATM   24  C   UNL     1      39.009 -11.721   3.074  1.00  0.00     0.060 C 
HETATM   25  C   UNL     1      38.689 -11.986   0.129  1.00  0.00     0.046 C 
HETATM   26  C   UNL     1      40.505 -13.772   0.196  1.00  0.00     0.268 A 
HETATM   27  C   UNL     1      37.639 -11.298   1.002  1.00  0.00     0.005 C 
HETATM   28  C   UNL     1      38.280 -10.669   2.233  1.00  0.00     0.006 C 
HETATM   29  O   UNL     1      40.428 -13.926  -1.017  1.00  0.00    -0.267 OA
HETATM   30  N   UNL     1      41.351 -14.496   0.973  1.00  0.00    -0.152 N 
HETATM   31  H   UNL     1      41.933 -15.202   0.538  1.00  0.00     0.188 HD
ENDBRANCH   2  20
BRANCH   4  32
HETATM   32  C   UNL     1      43.390 -18.598   3.106  1.00  0.00     0.105 A 
HETATM   33  O   UNL     1      43.849 -19.415   4.104  1.00  0.00    -0.320 OA
HETATM   34  C   UNL     1      43.976 -20.661   3.577  1.00  0.00     0.142 A 
HETATM   35  C   UNL     1      43.608 -20.664   2.253  1.00  0.00     0.027 A 
HETATM   36  C   UNL     1      43.230 -19.334   1.947  1.00  0.00     0.041 A 
ENDBRANCH   4  32
TORSDOF 6
ENDMDL
MODEL 5
REMARK VINA RESULT:      -9.5      1.774      8.472
REMARK  6 active torsions:
REMARK  status: ('A' for Active; 'I' for Inactive)
REMARK    1  A    between atoms: C_2  and  O_3 
REMARK    2  A    between atoms: O_3  and  C_4 
REMARK    3  A    between atoms: C_7  and  C_8 
REMARK       I    between atoms: C_8  and  N_9 
REMARK    4  A    between atoms: N_9  and  C_10 
REMARK    5  A    between atoms: N_11  and  C_12 
REMARK    6  A    between atoms: C_24  and  C_25 
ROOT
HETATM    1  C   UNL     1      42.465 -15.706   2.231  1.00  0.00     0.152 C 
HETATM    2  N   UNL     1      42.515 -15.455   3.602  1.00  0.00    -0.044 N 
HETATM    3  N   UNL     1      42.732 -16.619   4.305  1.00  0.00    -0.148 NA
HETATM    4  C   UNL     1      43.119 -17.489   3.365  1.00  0.00     0.115 C 
HETATM    5  C   UNL     1      43.017 -16.956   2.064  1.00  0.00     0.087 C 
ENDROOT
BRANCH   1   6
HETATM    6  N   UNL     1      41.958 -14.878   1.242  1.00  0.00    -0.307 N 
HETATM    7  C   UNL     1      40.632 -14.972   0.857  1.00  0.00     0.257 C 
HETATM    8  O   UNL     1      39.780 -15.721   1.321  1.00  0.00    -0.267 OA
HETATM    9  H   UNL     1      42.609 -14.435   0.605  1.00  0.00     0.170 HD
BRANCH   7  10
HETATM   10  C   UNL     1      40.279 -14.143  -0.309  1.00  0.00     0.032 A 
HETATM   11  C   UNL     1      39.412 -14.647  -1.284  1.00  0.00     0.020 A 
HETATM   12  C   UNL     1      39.010 -13.825  -2.339  1.00  0.00     0.038 A 
HETATM   13  C   UNL     1      39.464 -12.506  -2.401  1.00  0.00     0.069 A 
HETATM   14  C   UNL     1      40.368 -12.026  -1.450  1.00  0.00     0.038 A 
HETATM   15  C   UNL     1      40.765 -12.838  -0.386  1.00  0.00     0.020 A 
BRANCH  13  16
HETATM   16  O   UNL     1      39.089 -11.617  -3.370  1.00  0.00    -0.347 OA
BRANCH  16  17
HETATM   17  C   UNL     1      38.459 -10.412  -2.900  1.00  0.00     0.120 C 
HETATM   18  C   UNL     1      36.976 -10.738  -2.730  1.00  0.00     0.040 C 
HETATM   19  C   UNL     1      38.619  -9.266  -3.902  1.00  0.00     0.040 C 
ENDBRANCH  16  17
ENDBRANCH  13  16
ENDBRANCH   7  10
ENDBRANCH   1   6
BRANCH   2  20
HETATM   20  C   UNL     1      42.557 -14.234   4.314  1.00  0.00     0.732 A 
HETATM   21  N   UNL     1      43.482 -13.905   5.159  1.00  0.00    -0.067 NA
HETATM   22  C   UNL     1      43.336 -12.681   5.778  1.00  0.00     0.065 A 
HETATM   23  C   UNL     1      42.311 -11.837   5.556  1.00  0.00     0.036 A 
HETATM   24  C   UNL     1      44.435 -12.328   6.753  1.00  0.00     0.060 C 
HETATM   25  C   UNL     1      42.137 -10.512   6.238  1.00  0.00     0.046 C 
HETATM   26  C   UNL     1      41.263 -12.252   4.594  1.00  0.00     0.268 A 
HETATM   27  C   UNL     1      43.041 -10.353   7.461  1.00  0.00     0.005 C 
HETATM   28  C   UNL     1      44.449 -10.854   7.167  1.00  0.00     0.006 C 
HETATM   29  O   UNL     1      40.295 -11.549   4.331  1.00  0.00    -0.267 OA
HETATM   30  N   UNL     1      41.452 -13.475   4.035  1.00  0.00    -0.152 N 
HETATM   31  H   UNL     1      40.760 -13.829   3.385  1.00  0.00     0.188 HD
ENDBRANCH   2  20
BRANCH   4  32
HETATM   32  C   UNL     1      43.569 -18.875   3.685  1.00  0.00     0.105 A 
HETATM   33  O   UNL     1      44.020 -19.277   4.914  1.00  0.00    -0.320 OA
HETATM   34  C   UNL     1      44.335 -20.595   4.816  1.00  0.00     0.142 A 
HETATM   35  C   UNL     1      44.097 -21.054   3.542  1.00  0.00     0.027 A 
HETATM   36  C   UNL     1      43.603 -19.945   2.812  1.00  0.00     0.041 A 
ENDBRANCH   4  32
TORSDOF 6
ENDMDL
MODEL 6
REMARK VINA RESULT:      -9.3      2.254      6.276
REMARK  6 active torsions:
REMARK  status: ('A' for Active; 'I' for Inactive)
REMARK    1  A    between atoms: C_2  and  O_3 
REMARK    2  A    between atoms: O_3  and  C_4 
REMARK    3  A    between atoms: C_7  and  C_8 
REMARK       I    between atoms: C_8  and  N_9 
REMARK    4  A    between atoms: N_9  and  C_10 
REMARK    5  A    between atoms: N_11  and  C_12 
REMARK    6  A    between atoms: C_24  and  C_25 
ROOT
HETATM    1  C   UNL     1      41.302 -15.051   3.568  1.00  0.00     0.152 C 
HETATM    2  N   UNL     1      41.582 -15.100   2.202  1.00  0.00    -0.044 N 
HETATM    3  N   UNL     1      42.410 -16.161   1.912  1.00  0.00    -0.148 NA
HETATM    4  C   UNL     1      42.366 -16.911   3.019  1.00  0.00     0.115 C 
HETATM    5  C   UNL     1      41.650 -16.288   4.062  1.00  0.00     0.087 C 
ENDROOT
BRANCH   1   6
HETATM    6  N   UNL     1      40.788 -13.981   4.284  1.00  0.00    -0.307 N 
HETATM    7  C   UNL     1      41.629 -13.010   4.797  1.00  0.00     0.257 C 
HETATM    8  O   UNL     1      42.847 -12.949   4.677  1.00  0.00    -0.267 OA
HETATM    9  H   UNL     1      39.862 -14.070   4.684  1.00  0.00     0.170 HD
BRANCH   7  10
HETATM   10  C   UNL     1      40.960 -12.026   5.666  1.00  0.00     0.032 A 
HETATM   11  C   UNL     1      41.695 -10.971   6.217  1.00  0.00     0.020 A 
HETATM   12  C   UNL     1      41.037  -9.991   6.964  1.00  0.00     0.038 A 
HETATM   13  C   UNL     1      39.654 -10.065   7.139  1.00  0.00     0.069 A 
HETATM   14  C   UNL     1      38.935 -11.149   6.627  1.00  0.00     0.038 A 
HETATM   15  C   UNL     1      39.583 -12.125   5.870  1.00  0.00     0.020 A 
BRANCH  13  16
HETATM   16  O   UNL     1      38.921  -9.129   7.817  1.00  0.00    -0.347 OA
BRANCH  16  17
HETATM   17  C   UNL     1      39.478  -8.690   9.068  1.00  0.00     0.120 C 
HETATM   18  C   UNL     1      39.191  -9.796  10.081  1.00  0.00     0.040 C 
HETATM   19  C   UNL     1      38.835  -7.384   9.541  1.00  0.00     0.040 C 
ENDBRANCH  16  17
ENDBRANCH  13  16
ENDBRANCH   7  10
ENDBRANCH   1   6
BRANCH   2  20
HETATM   20  C   UNL     1      41.028 -14.377   1.122  1.00  0.00     0.732 A 
HETATM   21  N   UNL     1      40.288 -14.892   0.192  1.00  0.00    -0.067 NA
HETATM   22  C   UNL     1      39.864 -14.031  -0.797  1.00  0.00     0.065 A 
HETATM   23  C   UNL     1      40.170 -12.720  -0.846  1.00  0.00     0.036 A 
HETATM   24  C   UNL     1      38.999 -14.665  -1.863  1.00  0.00     0.060 C 
HETATM   25  C   UNL     1      39.725 -11.782  -1.928  1.00  0.00     0.046 C 
HETATM   26  C   UNL     1      41.031 -12.168   0.226  1.00  0.00     0.268 A 
HETATM   27  C   UNL     1      39.179 -12.511  -3.156  1.00  0.00     0.005 C 
HETATM   28  C   UNL     1      38.262 -13.656  -2.748  1.00  0.00     0.006 C 
HETATM   29  O   UNL     1      41.361 -10.989   0.263  1.00  0.00    -0.267 OA
HETATM   30  N   UNL     1      41.434 -13.070   1.158  1.00  0.00    -0.152 N 
HETATM   31  H   UNL     1      42.043 -12.762   1.907  1.00  0.00     0.188 HD
ENDBRANCH   2  20
BRANCH   4  32
HETATM   32  C   UNL     1      43.040 -18.238   3.122  1.00  0.00     0.105 A 
HETATM   33  O   UNL     1      43.729 -18.672   4.223  1.00  0.00    -0.320 OA
HETATM   34  C   UNL     1      44.195 -19.916   3.941  1.00  0.00     0.142 A 
HETATM   35  C   UNL     1      43.821 -20.296   2.674  1.00  0.00     0.027 A 
HETATM   36  C   UNL     1      43.075 -19.214   2.145  1.00  0.00     0.041 A 
ENDBRANCH   4  32
TORSDOF 6
ENDMDL
MODEL 7
REMARK VINA RESULT:      -9.2      3.032      8.006
REMARK  6 active torsions:
REMARK  status: ('A' for Active; 'I' for Inactive)
REMARK    1  A    between atoms: C_2  and  O_3 
REMARK    2  A    between atoms: O_3  and  C_4 
REMARK    3  A    between atoms: C_7  and  C_8 
REMARK       I    between atoms: C_8  and  N_9 
REMARK    4  A    between atoms: N_9  and  C_10 
REMARK    5  A    between atoms: N_11  and  C_12 
REMARK    6  A    between atoms: C_24  and  C_25 
ROOT
HETATM    1  C   UNL     1      41.492 -11.728   2.637  1.00  0.00     0.152 C 
HETATM    2  N   UNL     1      40.298 -11.356   2.019  1.00  0.00    -0.044 N 
HETATM    3  N   UNL     1      39.829 -10.169   2.536  1.00  0.00    -0.148 NA
HETATM    4  C   UNL     1      40.875  -9.684   3.215  1.00  0.00     0.115 C 
HETATM    5  C   UNL     1      41.951 -10.594   3.268  1.00  0.00     0.087 C 
ENDROOT
BRANCH   1   6
HETATM    6  N   UNL     1      42.089 -12.979   2.629  1.00  0.00    -0.307 N 
HETATM    7  C   UNL     1      41.565 -14.014   3.382  1.00  0.00     0.257 C 
HETATM    8  O   UNL     1      40.561 -13.982   4.083  1.00  0.00    -0.267 OA
HETATM    9  H   UNL     1      43.054 -13.049   2.329  1.00  0.00     0.170 HD
BRANCH   7  10
HETATM   10  C   UNL     1      42.394 -15.232   3.398  1.00  0.00     0.032 A 
HETATM   11  C   UNL     1      42.942 -15.685   4.603  1.00  0.00     0.020 A 
HETATM   12  C   UNL     1      43.650 -16.889   4.627  1.00  0.00     0.038 A 
HETATM   13  C   UNL     1      43.790 -17.634   3.455  1.00  0.00     0.069 A 
HETATM   14  C   UNL     1      43.282 -17.150   2.247  1.00  0.00     0.038 A 
HETATM   15  C   UNL     1      42.563 -15.954   2.216  1.00  0.00     0.020 A 
BRANCH  13  16
HETATM   16  O   UNL     1      44.428 -18.843   3.393  1.00  0.00    -0.347 OA
BRANCH  16  17
HETATM   17  C   UNL     1      43.578 -19.985   3.192  1.00  0.00     0.120 C 
HETATM   18  C   UNL     1      43.921 -20.979   4.300  1.00  0.00     0.040 C 
HETATM   19  C   UNL     1      43.823 -20.635   1.828  1.00  0.00     0.040 C 
ENDBRANCH  16  17
ENDBRANCH  13  16
ENDBRANCH   7  10
ENDBRANCH   1   6
BRANCH   2  20
HETATM   20  C   UNL     1      39.642 -11.890   0.887  1.00  0.00     0.732 A 
HETATM   21  N   UNL     1      40.030 -12.942   0.237  1.00  0.00    -0.067 NA
HETATM   22  C   UNL     1      39.275 -13.293  -0.862  1.00  0.00     0.065 A 
HETATM   23  C   UNL     1      38.187 -12.619  -1.282  1.00  0.00     0.036 A 
HETATM   24  C   UNL     1      39.754 -14.527  -1.592  1.00  0.00     0.060 C 
HETATM   25  C   UNL     1      37.372 -12.987  -2.486  1.00  0.00     0.046 C 
HETATM   26  C   UNL     1      37.781 -11.413  -0.524  1.00  0.00     0.268 A 
HETATM   27  C   UNL     1      38.079 -13.991  -3.397  1.00  0.00     0.005 C 
HETATM   28  C   UNL     1      38.735 -15.099  -2.582  1.00  0.00     0.006 C 
HETATM   29  O   UNL     1      36.806 -10.739  -0.835  1.00  0.00    -0.267 OA
HETATM   30  N   UNL     1      38.576 -11.107   0.533  1.00  0.00    -0.152 N 
HETATM   31  H   UNL     1      38.367 -10.281   1.081  1.00  0.00     0.188 HD
ENDBRANCH   2  20
BRANCH   4  32
HETATM   32  C   UNL     1      40.862  -8.341   3.865  1.00  0.00     0.105 A 
HETATM   33  O   UNL     1      40.983  -8.133   5.213  1.00  0.00    -0.320 OA
HETATM   34  C   UNL     1      40.926  -6.791   5.419  1.00  0.00     0.142 A 
HETATM   35  C   UNL     1      40.768  -6.126   4.227  1.00  0.00     0.027 A 
HETATM   36  C   UNL     1      40.727  -7.125   3.223  1.00  0.00     0.041 A 
ENDBRANCH   4  32
TORSDOF 6
ENDMDL
MODEL 8
REMARK VINA RESULT:      -9.1      2.355      6.667
REMARK  6 active torsions:
REMARK  status: ('A' for Active; 'I' for Inactive)
REMARK    1  A    between atoms: C_2  and  O_3 
REMARK    2  A    between atoms: O_3  and  C_4 
REMARK    3  A    between atoms: C_7  and  C_8 
REMARK       I    between atoms: C_8  and  N_9 
REMARK    4  A    between atoms: N_9  and  C_10 
REMARK    5  A    between atoms: N_11  and  C_12 
REMARK    6  A    between atoms: C_24  and  C_25 
ROOT
HETATM    1  C   UNL     1      42.804 -13.784   5.519  1.00  0.00     0.152 C 
HETATM    2  N   UNL     1      42.403 -13.675   4.187  1.00  0.00    -0.044 N 
HETATM    3  N   UNL     1      42.811 -14.773   3.463  1.00  0.00    -0.148 NA
HETATM    4  C   UNL     1      43.164 -15.659   4.402  1.00  0.00     0.115 C 
HETATM    5  C   UNL     1      43.131 -15.109   5.700  1.00  0.00     0.087 C 
ENDROOT
BRANCH   1   6
HETATM    6  N   UNL     1      42.869 -12.771   6.463  1.00  0.00    -0.307 N 
HETATM    7  C   UNL     1      43.829 -11.780   6.366  1.00  0.00     0.257 C 
HETATM    8  O   UNL     1      44.671 -11.651   5.486  1.00  0.00    -0.267 OA
HETATM    9  H   UNL     1      42.432 -12.925   7.364  1.00  0.00     0.170 HD
BRANCH   7  10
HETATM   10  C   UNL     1      43.877 -10.867   7.522  1.00  0.00     0.032 A 
HETATM   11  C   UNL     1      42.751 -10.105   7.855  1.00  0.00     0.020 A 
HETATM   12  C   UNL     1      42.772  -9.312   9.004  1.00  0.00     0.038 A 
HETATM   13  C   UNL     1      43.908  -9.298   9.816  1.00  0.00     0.069 A 
HETATM   14  C   UNL     1      45.046 -10.023   9.449  1.00  0.00     0.038 A 
HETATM   15  C   UNL     1      45.028 -10.828   8.309  1.00  0.00     0.020 A 
BRANCH  13  16
HETATM   16  O   UNL     1      44.003  -8.587  10.980  1.00  0.00    -0.347 OA
BRANCH  16  17
HETATM   17  C   UNL     1      42.915  -8.759  11.905  1.00  0.00     0.120 C 
HETATM   18  C   UNL     1      43.200  -7.831  13.085  1.00  0.00     0.040 C 
HETATM   19  C   UNL     1      42.823 -10.204  12.402  1.00  0.00     0.040 C 
ENDBRANCH  16  17
ENDBRANCH  13  16
ENDBRANCH   7  10
ENDBRANCH   1   6
BRANCH   2  20
HETATM   20  C   UNL     1      41.538 -12.751   3.559  1.00  0.00     0.732 A 
HETATM   21  N   UNL     1      40.749 -11.936   4.184  1.00  0.00    -0.067 NA
HETATM   22  C   UNL     1      39.957 -11.129   3.396  1.00  0.00     0.065 A 
HETATM   23  C   UNL     1      39.961 -11.143   2.049  1.00  0.00     0.036 A 
HETATM   24  C   UNL     1      39.052 -10.188   4.159  1.00  0.00     0.060 C 
HETATM   25  C   UNL     1      39.090 -10.279   1.187  1.00  0.00     0.046 C 
HETATM   26  C   UNL     1      40.865 -12.097   1.367  1.00  0.00     0.268 A 
HETATM   27  C   UNL     1      37.949  -9.623   1.966  1.00  0.00     0.005 C 
HETATM   28  C   UNL     1      38.443  -9.077   3.299  1.00  0.00     0.006 C 
HETATM   29  O   UNL     1      40.935 -12.181   0.147  1.00  0.00    -0.267 OA
HETATM   30  N   UNL     1      41.602 -12.880   2.197  1.00  0.00    -0.152 N 
HETATM   31  H   UNL     1      42.226 -13.570   1.795  1.00  0.00     0.188 HD
ENDBRANCH   2  20
BRANCH   4  32
HETATM   32  C   UNL     1      43.578 -17.055   4.078  1.00  0.00     0.105 A 
HETATM   33  O   UNL     1      44.218 -17.894   4.950  1.00  0.00    -0.320 OA
HETATM   34  C   UNL     1      44.427 -19.068   4.299  1.00  0.00     0.142 A 
HETATM   35  C   UNL     1      43.933 -19.004   3.018  1.00  0.00     0.027 A 
HETATM   36  C   UNL     1      43.384 -17.706   2.874  1.00  0.00     0.041 A 
ENDBRANCH   4  32
TORSDOF 6
ENDMDL
MODEL 9
REMARK VINA RESULT:      -9.0      1.955      2.833
REMARK  6 active torsions:
REMARK  status: ('A' for Active; 'I' for Inactive)
REMARK    1  A    between atoms: C_2  and  O_3 
REMARK    2  A    between atoms: O_3  and  C_4 
REMARK    3  A    between atoms: C_7  and  C_8 
REMARK       I    between atoms: C_8  and  N_9 
REMARK    4  A    between atoms: N_9  and  C_10 
REMARK    5  A    between atoms: N_11  and  C_12 
REMARK    6  A    between atoms: C_24  and  C_25 
ROOT
HETATM    1  C   UNL     1      40.372 -12.644   1.982  1.00  0.00     0.152 C 
HETATM    2  N   UNL     1      40.564 -14.025   1.947  1.00  0.00    -0.044 N 
HETATM    3  N   UNL     1      39.933 -14.579   0.856  1.00  0.00    -0.148 NA
HETATM    4  C   UNL     1      39.642 -13.523   0.088  1.00  0.00     0.115 C 
HETATM    5  C   UNL     1      39.939 -12.299   0.721  1.00  0.00     0.087 C 
ENDROOT
BRANCH   1   6
HETATM    6  N   UNL     1      40.565 -11.794   3.060  1.00  0.00    -0.307 N 
HETATM    7  C   UNL     1      41.777 -11.152   3.240  1.00  0.00     0.257 C 
HETATM    8  O   UNL     1      42.762 -11.215   2.515  1.00  0.00    -0.267 OA
HETATM    9  H   UNL     1      39.949 -11.883   3.859  1.00  0.00     0.170 HD
BRANCH   7  10
HETATM   10  C   UNL     1      41.887 -10.410   4.509  1.00  0.00     0.032 A 
HETATM   11  C   UNL     1      41.088  -9.282   4.727  1.00  0.00     0.020 A 
HETATM   12  C   UNL     1      41.130  -8.637   5.965  1.00  0.00     0.038 A 
HETATM   13  C   UNL     1      41.956  -9.133   6.976  1.00  0.00     0.069 A 
HETATM   14  C   UNL     1      42.787 -10.230   6.733  1.00  0.00     0.038 A 
HETATM   15  C   UNL     1      42.741 -10.887   5.503  1.00  0.00     0.020 A 
BRANCH  13  16
HETATM   16  O   UNL     1      42.029  -8.594   8.231  1.00  0.00    -0.347 OA
BRANCH  16  17
HETATM   17  C   UNL     1      43.143  -7.716   8.467  1.00  0.00     0.120 C 
HETATM   18  C   UNL     1      43.859  -8.248   9.708  1.00  0.00     0.040 C 
HETATM   19  C   UNL     1      42.682  -6.279   8.721  1.00  0.00     0.040 C 
ENDBRANCH  16  17
ENDBRANCH  13  16
ENDBRANCH   7  10
ENDBRANCH   1   6
BRANCH   2  20
HETATM   20  C   UNL     1      41.410 -14.856   2.715  1.00  0.00     0.732 A 
HETATM   21  N   UNL     1      41.955 -14.517   3.840  1.00  0.00    -0.067 NA
HETATM   22  C   UNL     1      42.776 -15.455   4.429  1.00  0.00     0.065 A 
HETATM   23  C   UNL     1      43.033 -16.671   3.910  1.00  0.00     0.036 A 
HETATM   24  C   UNL     1      43.390 -15.026   5.742  1.00  0.00     0.060 C 
HETATM   25  C   UNL     1      43.938 -17.689   4.537  1.00  0.00     0.046 C 
HETATM   26  C   UNL     1      42.405 -17.020   2.615  1.00  0.00     0.268 A 
HETATM   27  C   UNL     1      44.815 -17.102   5.644  1.00  0.00     0.005 C 
HETATM   28  C   UNL     1      44.008 -16.175   6.544  1.00  0.00     0.006 C 
HETATM   29  O   UNL     1      42.583 -18.102   2.068  1.00  0.00    -0.267 OA
HETATM   30  N   UNL     1      41.627 -16.047   2.075  1.00  0.00    -0.152 N 
HETATM   31  H   UNL     1      41.185 -16.214   1.178  1.00  0.00     0.188 HD
ENDBRANCH   2  20
BRANCH   4  32
HETATM   32  C   UNL     1      39.038 -13.655  -1.270  1.00  0.00     0.105 A 
HETATM   33  O   UNL     1      37.885 -13.032  -1.667  1.00  0.00    -0.320 OA
HETATM   34  C   UNL     1      37.656 -13.393  -2.957  1.00  0.00     0.142 A 
HETATM   35  C   UNL     1      38.642 -14.241  -3.402  1.00  0.00     0.027 A 
HETATM   36  C   UNL     1      39.534 -14.411  -2.315  1.00  0.00     0.041 A 
ENDBRANCH   4  32
TORSDOF 6
ENDMDL
MODEL 10
REMARK VINA RESULT:      -8.8      2.415      9.003
REMARK  6 active torsions:
REMARK  status: ('A' for Active; 'I' for Inactive)
REMARK    1  A    between atoms: C_2  and  O_3 
REMARK    2  A    between atoms: O_3  and  C_4 
REMARK    3  A    between atoms: C_7  and  C_8 
REMARK       I    between atoms: C_8  and  N_9 
REMARK    4  A    between atoms: N_9  and  C_10 
REMARK    5  A    between atoms: N_11  and  C_12 
REMARK    6  A    between atoms: C_24  and  C_25 
ROOT
HETATM    1  C   UNL     1      40.628 -15.073   1.904  1.00  0.00     0.152 C 
HETATM    2  N   UNL     1      40.835 -14.658   3.220  1.00  0.00    -0.044 N 
HETATM    3  N   UNL     1      41.514 -15.620   3.934  1.00  0.00    -0.148 NA
HETATM    4  C   UNL     1      41.980 -16.447   2.991  1.00  0.00     0.115 C 
HETATM    5  C   UNL     1      41.497 -16.122   1.706  1.00  0.00     0.087 C 
ENDROOT
BRANCH   1   6
HETATM    6  N   UNL     1      39.730 -14.549   0.988  1.00  0.00    -0.307 N 
HETATM    7  C   UNL     1      40.099 -13.503   0.161  1.00  0.00     0.257 C 
HETATM    8  O   UNL     1      41.193 -12.955   0.107  1.00  0.00    -0.267 OA
HETATM    9  H   UNL     1      38.742 -14.716   1.133  1.00  0.00     0.170 HD
BRANCH   7  10
HETATM   10  C   UNL     1      38.996 -12.949  -0.645  1.00  0.00     0.032 A 
HETATM   11  C   UNL     1      38.411 -11.731  -0.281  1.00  0.00     0.020 A 
HETATM   12  C   UNL     1      37.430 -11.168  -1.098  1.00  0.00     0.038 A 
HETATM   13  C   UNL     1      37.053 -11.816  -2.276  1.00  0.00     0.069 A 
HETATM   14  C   UNL     1      37.607 -13.056  -2.606  1.00  0.00     0.038 A 
HETATM   15  C   UNL     1      38.596 -13.620  -1.801  1.00  0.00     0.020 A 
BRANCH  13  16
HETATM   16  O   UNL     1      36.134 -11.318  -3.159  1.00  0.00    -0.347 OA
BRANCH  16  17
HETATM   17  C   UNL     1      35.857  -9.911  -3.041  1.00  0.00     0.120 C 
HETATM   18  C   UNL     1      34.352  -9.785  -2.814  1.00  0.00     0.040 C 
HETATM   19  C   UNL     1      36.247  -9.153  -4.312  1.00  0.00     0.040 C 
ENDBRANCH  16  17
ENDBRANCH  13  16
ENDBRANCH   7  10
ENDBRANCH   1   6
BRANCH   2  20
HETATM   20  C   UNL     1      40.625 -13.403   3.833  1.00  0.00     0.732 A 
HETATM   21  N   UNL     1      39.711 -12.554   3.483  1.00  0.00    -0.067 NA
HETATM   22  C   UNL     1      39.681 -11.366   4.182  1.00  0.00     0.065 A 
HETATM   23  C   UNL     1      40.528 -11.052   5.180  1.00  0.00     0.036 A 
HETATM   24  C   UNL     1      38.598 -10.404   3.750  1.00  0.00     0.060 C 
HETATM   25  C   UNL     1      40.510  -9.755   5.934  1.00  0.00     0.046 C 
HETATM   26  C   UNL     1      41.570 -12.039   5.544  1.00  0.00     0.268 A 
HETATM   27  C   UNL     1      39.669  -8.680   5.244  1.00  0.00     0.005 C 
HETATM   28  C   UNL     1      38.354  -9.259   4.737  1.00  0.00     0.006 C 
HETATM   29  O   UNL     1      42.384 -11.837   6.438  1.00  0.00    -0.267 OA
HETATM   30  N   UNL     1      41.563 -13.178   4.806  1.00  0.00    -0.152 N 
HETATM   31  H   UNL     1      42.264 -13.886   4.988  1.00  0.00     0.188 HD
ENDBRANCH   2  20
BRANCH   4  32
HETATM   32  C   UNL     1      42.879 -17.596   3.298  1.00  0.00     0.105 A 
HETATM   33  O   UNL     1      43.554 -17.756   4.479  1.00  0.00    -0.320 OA
HETATM   34  C   UNL     1      44.262 -18.911   4.385  1.00  0.00     0.142 A 
HETATM   35  C   UNL     1      44.060 -19.503   3.161  1.00  0.00     0.027 A 
HETATM   36  C   UNL     1      43.167 -18.656   2.459  1.00  0.00     0.041 A 
ENDBRANCH   4  32
TORSDOF 6
ENDMDL
