MODEL 1
REMARK VINA RESULT:     -10.0      0.000      0.000
REMARK  8 active torsions:
REMARK  status: ('A' for Active; 'I' for Inactive)
REMARK    1  A    between atoms: C_2  and  C_3 
REMARK    2  A    between atoms: C_6  and  N_7 
REMARK       I    between atoms: N_7  and  C_8 
REMARK    3  A    between atoms: C_8  and  O_9 
REMARK    4  A    between atoms: O_9  and  C_10 
REMARK    5  A    between atoms: C_13  and  N_14 
REMARK       I    between atoms: N_14  and  C_15 
REMARK    6  A    between atoms: C_15  and  C_16 
REMARK    7  A    between atoms: N_19  and  C_20 
REMARK    8  A    between atoms: C_22  and  C_23 
ROOT
HETATM    1  C   UNL     1      43.306  -9.647   7.109  1.00  0.00     0.189 C 
HETATM    2  C   UNL     1      43.065 -10.550   5.895  1.00  0.00     0.184 C 
HETATM    3  C   UNL     1      41.658 -10.200   5.413  1.00  0.00     0.177 C 
HETATM    4  C   UNL     1      40.961 -11.543   5.252  1.00  0.00     0.139 C 
HETATM    5  C   UNL     1      41.692 -12.371   6.301  1.00  0.00     0.196 C 
HETATM    6  O   UNL     1      43.066 -11.955   6.231  1.00  0.00    -0.378 OA
HETATM    7  O   UNL     1      41.040  -9.440   6.469  1.00  0.00    -0.378 OA
HETATM    8  C   UNL     1      42.099  -8.722   7.114  1.00  0.00     0.203 C 
ENDROOT
BRANCH   4   9
HETATM    9  N   UNL     1      41.117 -12.141   3.924  1.00  0.00    -0.351 N 
HETATM   10  C   UNL     1      40.060 -12.713   3.250  1.00  0.00     0.222 C 
HETATM   11  O   UNL     1      38.892 -12.560   3.589  1.00  0.00    -0.273 OA
HETATM   12  H   UNL     1      42.053 -12.417   3.651  1.00  0.00     0.163 HD
BRANCH  10  13
HETATM   13  C   UNL     1      40.496 -13.596   2.083  1.00  0.00     0.081 C 
HETATM   14  C   UNL     1      42.015 -13.568   1.867  1.00  0.00     0.034 C 
HETATM   15  C   UNL     1      42.779 -14.468   2.838  1.00  0.00     0.142 C 
HETATM   16  N   UNL     1      42.188 -15.805   2.812  1.00  0.00    -0.214 N 
HETATM   17  C   UNL     1      40.783 -15.873   3.192  1.00  0.00     0.142 C 
HETATM   18  C   UNL     1      39.969 -15.031   2.210  1.00  0.00     0.034 C 
BRANCH  16  19
HETATM   19  C   UNL     1      43.002 -16.836   3.265  1.00  0.00     0.724 A 
HETATM   20  N   UNL     1      42.969 -18.013   2.621  1.00  0.00    -0.058 NA
HETATM   21  C   UNL     1      43.686 -19.057   3.115  1.00  0.00     0.160 A 
HETATM   22  C   UNL     1      44.443 -18.937   4.261  1.00  0.00     0.057 A 
HETATM   23  C   UNL     1      44.435 -17.703   4.853  1.00  0.00     0.139 A 
HETATM   24  N   UNL     1      43.731 -16.660   4.379  1.00  0.00    -0.075 NA
BRANCH  21  25
HETATM   25  C   UNL     1      43.604 -20.403   2.419  1.00  0.00     0.435 C 
HETATM   26  F   UNL     1      43.809 -21.474   3.236  1.00  0.00    -0.165 F 
HETATM   27  F   UNL     1      42.385 -20.614   1.836  1.00  0.00    -0.165 F 
HETATM   28  F   UNL     1      44.512 -20.522   1.407  1.00  0.00    -0.165 F 
ENDBRANCH  21  25
ENDBRANCH  16  19
ENDBRANCH  10  13
ENDBRANCH   4   9
BRANCH   1  29
HETATM   29  O   UNL     1      43.315 -10.411   8.330  1.00  0.00    -0.293 OA
BRANCH  29  30
HETATM   30  C   UNL     1      44.543 -10.638   8.855  1.00  0.00     0.365 C 
HETATM   31  N   UNL     1      44.744 -10.186  10.132  1.00  0.00    -0.303 N 
HETATM   32  H   UNL     1      45.678 -10.418  10.445  1.00  0.00     0.171 HD
HETATM   33  O   UNL     1      45.447 -11.218   8.261  1.00  0.00    -0.238 OA
BRANCH  31  34
HETATM   34  C   UNL     1      43.876  -9.629  11.087  1.00  0.00     0.036 A 
HETATM   35  C   UNL     1      43.583  -8.270  11.213  1.00  0.00     0.030 A 
HETATM   36  C   UNL     1      42.636  -7.822  12.147  1.00  0.00     0.017 A 
HETATM   37  C   UNL     1      41.977  -8.733  12.977  1.00  0.00     0.009 A 
HETATM   38  C   UNL     1      42.301 -10.089  12.890  1.00  0.00     0.017 A 
HETATM   39  C   UNL     1      43.241 -10.530  11.952  1.00  0.00     0.030 A 
BRANCH  37  40
HETATM   40  C   UNL     1      40.933  -8.311  13.952  1.00  0.00     0.155 C 
HETATM   41  C   UNL     1      41.288  -8.246  15.415  1.00  0.00     0.096 C 
HETATM   42  O   UNL     1      39.808  -8.016  13.555  1.00  0.00    -0.293 OA
ENDBRANCH  37  40
ENDBRANCH  31  34
ENDBRANCH  29  30
ENDBRANCH   1  29
TORSDOF 8
ENDMDL
MODEL 2
REMARK VINA RESULT:      -9.9      5.660     11.292
REMARK  8 active torsions:
REMARK  status: ('A' for Active; 'I' for Inactive)
REMARK    1  A    between atoms: C_2  and  C_3 
REMARK    2  A    between atoms: C_6  and  N_7 
REMARK       I    between atoms: N_7  and  C_8 
REMARK    3  A    between atoms: C_8  and  O_9 
REMARK    4  A    between atoms: O_9  and  C_10 
REMARK    5  A    between atoms: C_13  and  N_14 
REMARK       I    between atoms: N_14  and  C_15 
REMARK    6  A    between atoms: C_15  and  C_16 
REMARK    7  A    between atoms: N_19  and  C_20 
REMARK    8  A    between atoms: C_22  and  C_23 
ROOT
HETATM    1  C   UNL     1      41.237 -11.649   3.317  1.00  0.00     0.189 C 
HETATM    2  C   UNL     1      41.944 -10.823   4.396  1.00  0.00     0.184 C 
HETATM    3  C   UNL     1      43.427 -11.151   4.241  1.00  0.00     0.177 C 
HETATM    4  C   UNL     1      43.897 -11.485   5.648  1.00  0.00     0.139 C 
HETATM    5  C   UNL     1      42.611 -12.031   6.257  1.00  0.00     0.196 C 
HETATM    6  O   UNL     1      41.558 -11.203   5.736  1.00  0.00    -0.378 OA
HETATM    7  O   UNL     1      43.504 -12.318   3.399  1.00  0.00    -0.378 OA
HETATM    8  C   UNL     1      42.383 -12.239   2.509  1.00  0.00     0.203 C 
ENDROOT
BRANCH   4   9
HETATM    9  N   UNL     1      44.375 -10.328   6.409  1.00  0.00    -0.351 N 
HETATM   10  C   UNL     1      45.022 -10.463   7.618  1.00  0.00     0.222 C 
HETATM   11  O   UNL     1      45.451 -11.536   8.028  1.00  0.00    -0.273 OA
HETATM   12  H   UNL     1      43.946  -9.433   6.202  1.00  0.00     0.163 HD
BRANCH  10  13
HETATM   13  C   UNL     1      45.096  -9.161   8.411  1.00  0.00     0.081 C 
HETATM   14  C   UNL     1      43.784  -8.368   8.353  1.00  0.00     0.034 C 
HETATM   15  C   UNL     1      42.718  -8.895   9.313  1.00  0.00     0.142 C 
HETATM   16  N   UNL     1      43.298  -9.010  10.650  1.00  0.00    -0.214 N 
HETATM   17  C   UNL     1      44.442  -9.906  10.759  1.00  0.00     0.142 C 
HETATM   18  C   UNL     1      45.560  -9.383   9.856  1.00  0.00     0.034 C 
BRANCH  16  19
HETATM   19  C   UNL     1      42.392  -9.034  11.704  1.00  0.00     0.724 A 
HETATM   20  N   UNL     1      42.599  -8.221  12.751  1.00  0.00    -0.058 NA
HETATM   21  C   UNL     1      41.776  -8.307  13.829  1.00  0.00     0.160 A 
HETATM   22  C   UNL     1      40.734  -9.210  13.873  1.00  0.00     0.057 A 
HETATM   23  C   UNL     1      40.580  -9.995  12.763  1.00  0.00     0.139 A 
HETATM   24  N   UNL     1      41.386  -9.924  11.688  1.00  0.00    -0.075 NA
BRANCH  21  25
HETATM   25  C   UNL     1      42.045  -7.428  15.036  1.00  0.00     0.435 C 
HETATM   26  F   UNL     1      41.290  -6.295  15.089  1.00  0.00    -0.165 F 
HETATM   27  F   UNL     1      41.813  -8.079  16.215  1.00  0.00    -0.165 F 
HETATM   28  F   UNL     1      43.345  -7.017  15.102  1.00  0.00    -0.165 F 
ENDBRANCH  21  25
ENDBRANCH  16  19
ENDBRANCH  10  13
ENDBRANCH   4   9
BRANCH   1  29
HETATM   29  O   UNL     1      40.476 -12.724   3.900  1.00  0.00    -0.293 OA
BRANCH  29  30
HETATM   30  C   UNL     1      39.544 -13.274   3.086  1.00  0.00     0.365 C 
HETATM   31  N   UNL     1      39.810 -14.540   2.635  1.00  0.00    -0.303 N 
HETATM   32  H   UNL     1      39.052 -14.873   2.053  1.00  0.00     0.171 HD
HETATM   33  O   UNL     1      38.505 -12.711   2.754  1.00  0.00    -0.238 OA
BRANCH  31  34
HETATM   34  C   UNL     1      40.821 -15.464   2.951  1.00  0.00     0.036 A 
HETATM   35  C   UNL     1      41.013 -16.050   4.202  1.00  0.00     0.030 A 
HETATM   36  C   UNL     1      42.001 -17.027   4.395  1.00  0.00     0.017 A 
HETATM   37  C   UNL     1      42.820 -17.422   3.334  1.00  0.00     0.009 A 
HETATM   38  C   UNL     1      42.666 -16.804   2.090  1.00  0.00     0.017 A 
HETATM   39  C   UNL     1      41.675 -15.835   1.903  1.00  0.00     0.030 A 
BRANCH  37  40
HETATM   40  C   UNL     1      43.853 -18.486   3.478  1.00  0.00     0.155 C 
HETATM   41  C   UNL     1      43.797 -19.682   2.562  1.00  0.00     0.096 C 
HETATM   42  O   UNL     1      44.734 -18.373   4.327  1.00  0.00    -0.293 OA
ENDBRANCH  37  40
ENDBRANCH  31  34
ENDBRANCH  29  30
ENDBRANCH   1  29
TORSDOF 8
ENDMDL
MODEL 3
REMARK VINA RESULT:      -9.6      6.383     10.385
REMARK  8 active torsions:
REMARK  status: ('A' for Active; 'I' for Inactive)
REMARK    1  A    between atoms: C_2  and  C_3 
REMARK    2  A    between atoms: C_6  and  N_7 
REMARK       I    between atoms: N_7  and  C_8 
REMARK    3  A    between atoms: C_8  and  O_9 
REMARK    4  A    between atoms: O_9  and  C_10 
REMARK    5  A    between atoms: C_13  and  N_14 
REMARK       I    between atoms: N_14  and  C_15 
REMARK    6  A    between atoms: C_15  and  C_16 
REMARK    7  A    between atoms: N_19  and  C_20 
REMARK    8  A    between atoms: C_22  and  C_23 
ROOT
HETATM    1  C   UNL     1      41.888 -13.807   4.827  1.00  0.00     0.189 C 
HETATM    2  C   UNL     1      41.779 -13.353   3.368  1.00  0.00     0.184 C 
HETATM    3  C   UNL     1      40.785 -14.317   2.724  1.00  0.00     0.177 C 
HETATM    4  C   UNL     1      41.471 -14.782   1.449  1.00  0.00     0.139 C 
HETATM    5  C   UNL     1      42.936 -14.672   1.855  1.00  0.00     0.196 C 
HETATM    6  O   UNL     1      43.026 -13.476   2.647  1.00  0.00    -0.378 OA
HETATM    7  O   UNL     1      40.633 -15.420   3.639  1.00  0.00    -0.378 OA
HETATM    8  C   UNL     1      40.812 -14.874   4.952  1.00  0.00     0.203 C 
ENDROOT
BRANCH   4   9
HETATM    9  N   UNL     1      41.197 -13.940   0.282  1.00  0.00    -0.351 N 
HETATM   10  C   UNL     1      40.264 -14.290  -0.670  1.00  0.00     0.222 C 
HETATM   11  O   UNL     1      39.443 -15.184  -0.502  1.00  0.00    -0.273 OA
HETATM   12  H   UNL     1      41.914 -13.275   0.017  1.00  0.00     0.163 HD
BRANCH  10  13
HETATM   13  C   UNL     1      40.398 -13.493  -1.966  1.00  0.00     0.081 C 
HETATM   14  C   UNL     1      39.286 -13.822  -2.970  1.00  0.00     0.034 C 
HETATM   15  C   UNL     1      37.968 -13.111  -2.666  1.00  0.00     0.142 C 
HETATM   16  N   UNL     1      38.226 -11.683  -2.495  1.00  0.00    -0.214 N 
HETATM   17  C   UNL     1      39.148 -11.340  -1.419  1.00  0.00     0.142 C 
HETATM   18  C   UNL     1      40.503 -11.983  -1.713  1.00  0.00     0.034 C 
BRANCH  16  19
HETATM   19  C   UNL     1      37.130 -10.844  -2.661  1.00  0.00     0.724 A 
HETATM   20  N   UNL     1      35.961 -11.381  -3.045  1.00  0.00    -0.058 NA
HETATM   21  C   UNL     1      34.911 -10.560  -3.306  1.00  0.00     0.160 A 
HETATM   22  C   UNL     1      35.017  -9.189  -3.188  1.00  0.00     0.057 A 
HETATM   23  C   UNL     1      36.236  -8.721  -2.781  1.00  0.00     0.139 A 
HETATM   24  N   UNL     1      37.287  -9.518  -2.520  1.00  0.00    -0.075 NA
BRANCH  21  25
HETATM   25  C   UNL     1      33.606 -11.162  -3.794  1.00  0.00     0.435 C 
HETATM   26  F   UNL     1      32.579 -11.080  -2.903  1.00  0.00    -0.165 F 
HETATM   27  F   UNL     1      33.151 -10.561  -4.935  1.00  0.00    -0.165 F 
HETATM   28  F   UNL     1      33.728 -12.484  -4.108  1.00  0.00    -0.165 F 
ENDBRANCH  21  25
ENDBRANCH  16  19
ENDBRANCH  10  13
ENDBRANCH   4   9
BRANCH   1  29
HETATM   29  O   UNL     1      43.171 -14.406   5.090  1.00  0.00    -0.293 OA
BRANCH  29  30
HETATM   30  C   UNL     1      43.418 -14.683   6.393  1.00  0.00     0.365 C 
HETATM   31  N   UNL     1      43.592 -16.006   6.704  1.00  0.00    -0.303 N 
HETATM   32  H   UNL     1      43.790 -16.112   7.691  1.00  0.00     0.171 HD
HETATM   33  O   UNL     1      43.497 -13.831   7.273  1.00  0.00    -0.238 OA
BRANCH  31  34
HETATM   34  C   UNL     1      43.695 -17.159   5.909  1.00  0.00     0.036 A 
HETATM   35  C   UNL     1      43.614 -18.471   6.378  1.00  0.00     0.030 A 
HETATM   36  C   UNL     1      43.646 -19.556   5.489  1.00  0.00     0.017 A 
HETATM   37  C   UNL     1      43.772 -19.340   4.115  1.00  0.00     0.009 A 
HETATM   38  C   UNL     1      43.904 -18.032   3.642  1.00  0.00     0.017 A 
HETATM   39  C   UNL     1      43.865 -16.953   4.533  1.00  0.00     0.030 A 
BRANCH  37  40
HETATM   40  C   UNL     1      43.766 -20.457   3.129  1.00  0.00     0.155 C 
HETATM   41  C   UNL     1      43.377 -20.165   1.702  1.00  0.00     0.096 C 
HETATM   42  O   UNL     1      44.083 -21.590   3.485  1.00  0.00    -0.293 OA
ENDBRANCH  37  40
ENDBRANCH  31  34
ENDBRANCH  29  30
ENDBRANCH   1  29
TORSDOF 8
ENDMDL
MODEL 4
REMARK VINA RESULT:      -9.5      3.989      5.445
REMARK  8 active torsions:
REMARK  status: ('A' for Active; 'I' for Inactive)
REMARK    1  A    between atoms: C_2  and  C_3 
REMARK    2  A    between atoms: C_6  and  N_7 
REMARK       I    between atoms: N_7  and  C_8 
REMARK    3  A    between atoms: C_8  and  O_9 
REMARK    4  A    between atoms: O_9  and  C_10 
REMARK    5  A    between atoms: C_13  and  N_14 
REMARK       I    between atoms: N_14  and  C_15 
REMARK    6  A    between atoms: C_15  and  C_16 
REMARK    7  A    between atoms: N_19  and  C_20 
REMARK    8  A    between atoms: C_22  and  C_23 
ROOT
HETATM    1  C   UNL     1      43.698 -10.325   6.896  1.00  0.00     0.189 C 
HETATM    2  C   UNL     1      43.546 -11.334   5.752  1.00  0.00     0.184 C 
HETATM    3  C   UNL     1      42.040 -11.517   5.582  1.00  0.00     0.177 C 
HETATM    4  C   UNL     1      41.835 -13.024   5.560  1.00  0.00     0.139 C 
HETATM    5  C   UNL     1      43.003 -13.483   6.424  1.00  0.00     0.196 C 
HETATM    6  O   UNL     1      44.103 -12.629   6.069  1.00  0.00    -0.378 OA
HETATM    7  O   UNL     1      41.422 -10.946   6.751  1.00  0.00    -0.378 OA
HETATM    8  C   UNL     1      42.273  -9.869   7.164  1.00  0.00     0.203 C 
ENDROOT
BRANCH   4   9
HETATM    9  N   UNL     1      41.918 -13.619   4.225  1.00  0.00    -0.351 N 
HETATM   10  C   UNL     1      41.522 -14.915   3.975  1.00  0.00     0.222 C 
HETATM   11  O   UNL     1      40.865 -15.576   4.770  1.00  0.00    -0.273 OA
HETATM   12  H   UNL     1      42.560 -13.188   3.569  1.00  0.00     0.163 HD
BRANCH  10  13
HETATM   13  C   UNL     1      42.032 -15.454   2.640  1.00  0.00     0.081 C 
HETATM   14  C   UNL     1      41.016 -16.379   1.958  1.00  0.00     0.034 C 
HETATM   15  C   UNL     1      39.905 -15.623   1.231  1.00  0.00     0.142 C 
HETATM   16  N   UNL     1      40.508 -14.628   0.346  1.00  0.00    -0.214 N 
HETATM   17  C   UNL     1      41.337 -13.627   1.006  1.00  0.00     0.142 C 
HETATM   18  C   UNL     1      42.499 -14.336   1.700  1.00  0.00     0.034 C 
BRANCH  16  19
HETATM   19  C   UNL     1      39.705 -14.177  -0.696  1.00  0.00     0.724 A 
HETATM   20  N   UNL     1      39.245 -12.917  -0.656  1.00  0.00    -0.058 NA
HETATM   21  C   UNL     1      38.380 -12.498  -1.616  1.00  0.00     0.160 A 
HETATM   22  C   UNL     1      37.963 -13.336  -2.630  1.00  0.00     0.057 A 
HETATM   23  C   UNL     1      38.486 -14.600  -2.608  1.00  0.00     0.139 A 
HETATM   24  N   UNL     1      39.341 -15.032  -1.665  1.00  0.00    -0.075 NA
BRANCH  21  25
HETATM   25  C   UNL     1      37.816 -11.092  -1.539  1.00  0.00     0.435 C 
HETATM   26  F   UNL     1      38.455 -10.183  -2.327  1.00  0.00    -0.165 F 
HETATM   27  F   UNL     1      36.501 -11.038  -1.910  1.00  0.00    -0.165 F 
HETATM   28  F   UNL     1      37.852 -10.584  -0.272  1.00  0.00    -0.165 F 
ENDBRANCH  21  25
ENDBRANCH  16  19
ENDBRANCH  10  13
ENDBRANCH   4   9
BRANCH   1  29
HETATM   29  O   UNL     1      44.217 -10.959   8.081  1.00  0.00    -0.293 OA
BRANCH  29  30
HETATM   30  C   UNL     1      45.403 -10.472   8.519  1.00  0.00     0.365 C 
HETATM   31  N   UNL     1      45.375  -9.804   9.714  1.00  0.00    -0.303 N 
HETATM   32  H   UNL     1      46.305  -9.497   9.968  1.00  0.00     0.171 HD
HETATM   33  O   UNL     1      46.464 -10.606   7.916  1.00  0.00    -0.238 OA
BRANCH  31  34
HETATM   34  C   UNL     1      44.364  -9.621  10.673  1.00  0.00     0.036 A 
HETATM   35  C   UNL     1      43.652  -8.438  10.876  1.00  0.00     0.030 A 
HETATM   36  C   UNL     1      42.601  -8.381  11.804  1.00  0.00     0.017 A 
HETATM   37  C   UNL     1      42.257  -9.511  12.551  1.00  0.00     0.009 A 
HETATM   38  C   UNL     1      42.998 -10.685  12.388  1.00  0.00     0.017 A 
HETATM   39  C   UNL     1      44.040 -10.736  11.457  1.00  0.00     0.030 A 
BRANCH  37  40
HETATM   40  C   UNL     1      41.121  -9.513  13.516  1.00  0.00     0.155 C 
HETATM   41  C   UNL     1      39.899 -10.336  13.198  1.00  0.00     0.096 C 
HETATM   42  O   UNL     1      41.197  -8.856  14.551  1.00  0.00    -0.293 OA
ENDBRANCH  37  40
ENDBRANCH  31  34
ENDBRANCH  29  30
ENDBRANCH   1  29
TORSDOF 8
ENDMDL
MODEL 5
REMARK VINA RESULT:      -9.3      3.142      6.146
REMARK  8 active torsions:
REMARK  status: ('A' for Active; 'I' for Inactive)
REMARK    1  A    between atoms: C_2  and  C_3 
REMARK    2  A    between atoms: C_6  and  N_7 
REMARK       I    between atoms: N_7  and  C_8 
REMARK    3  A    between atoms: C_8  and  O_9 
REMARK    4  A    between atoms: O_9  and  C_10 
REMARK    5  A    between atoms: C_13  and  N_14 
REMARK       I    between atoms: N_14  and  C_15 
REMARK    6  A    between atoms: C_15  and  C_16 
REMARK    7  A    between atoms: N_19  and  C_20 
REMARK    8  A    between atoms: C_22  and  C_23 
ROOT
HETATM    1  C   UNL     1      40.629  -7.894  12.728  1.00  0.00     0.189 C 
HETATM    2  C   UNL     1      41.181  -8.279  11.351  1.00  0.00     0.184 C 
HETATM    3  C   UNL     1      41.458  -9.779  11.440  1.00  0.00     0.177 C 
HETATM    4  C   UNL     1      42.874  -9.941  10.908  1.00  0.00     0.139 C 
HETATM    5  C   UNL     1      43.475  -8.591  11.282  1.00  0.00     0.196 C 
HETATM    6  O   UNL     1      42.434  -7.628  11.047  1.00  0.00    -0.378 OA
HETATM    7  O   UNL     1      41.408 -10.124  12.838  1.00  0.00    -0.378 OA
HETATM    8  C   UNL     1      40.458  -9.231  13.433  1.00  0.00     0.203 C 
ENDROOT
BRANCH   4   9
HETATM    9  N   UNL     1      42.947 -10.153   9.461  1.00  0.00    -0.351 N 
HETATM   10  C   UNL     1      44.100 -10.587   8.842  1.00  0.00     0.222 C 
HETATM   11  O   UNL     1      45.055 -11.046   9.459  1.00  0.00    -0.273 OA
HETATM   12  H   UNL     1      42.258  -9.677   8.891  1.00  0.00     0.163 HD
BRANCH  10  13
HETATM   13  C   UNL     1      44.085 -10.383   7.329  1.00  0.00     0.081 C 
HETATM   14  C   UNL     1      45.006 -11.370   6.599  1.00  0.00     0.034 C 
HETATM   15  C   UNL     1      44.387 -12.756   6.422  1.00  0.00     0.142 C 
HETATM   16  N   UNL     1      43.061 -12.611   5.825  1.00  0.00    -0.214 N 
HETATM   17  C   UNL     1      42.112 -11.821   6.600  1.00  0.00     0.142 C 
HETATM   18  C   UNL     1      42.664 -10.404   6.752  1.00  0.00     0.034 C 
BRANCH  16  19
HETATM   19  C   UNL     1      42.555 -13.740   5.192  1.00  0.00     0.724 A 
HETATM   20  N   UNL     1      43.066 -14.095   4.003  1.00  0.00    -0.058 NA
HETATM   21  C   UNL     1      42.512 -15.137   3.329  1.00  0.00     0.160 A 
HETATM   22  C   UNL     1      41.438 -15.838   3.837  1.00  0.00     0.057 A 
HETATM   23  C   UNL     1      40.982 -15.423   5.059  1.00  0.00     0.139 A 
HETATM   24  N   UNL     1      41.517 -14.393   5.738  1.00  0.00    -0.075 NA
BRANCH  21  25
HETATM   25  C   UNL     1      43.054 -15.502   1.959  1.00  0.00     0.435 C 
HETATM   26  F   UNL     1      42.115 -15.542   0.974  1.00  0.00    -0.165 F 
HETATM   27  F   UNL     1      44.005 -14.622   1.525  1.00  0.00    -0.165 F 
HETATM   28  F   UNL     1      43.663 -16.724   1.949  1.00  0.00    -0.165 F 
ENDBRANCH  21  25
ENDBRANCH  16  19
ENDBRANCH  10  13
ENDBRANCH   4   9
BRANCH   1  29
HETATM   29  O   UNL     1      41.577  -7.097  13.463  1.00  0.00    -0.293 OA
BRANCH  29  30
HETATM   30  C   UNL     1      41.197  -5.816  13.687  1.00  0.00     0.365 C 
HETATM   31  N   UNL     1      40.872  -5.503  14.980  1.00  0.00    -0.303 N 
HETATM   32  H   UNL     1      40.621  -4.525  15.053  1.00  0.00     0.171 HD
HETATM   33  O   UNL     1      41.141  -4.954  12.815  1.00  0.00    -0.238 OA
BRANCH  31  34
HETATM   34  C   UNL     1      40.973  -6.223  16.183  1.00  0.00     0.036 A 
HETATM   35  C   UNL     1      42.163  -6.495  16.860  1.00  0.00     0.030 A 
HETATM   36  C   UNL     1      42.150  -7.151  18.100  1.00  0.00     0.017 A 
HETATM   37  C   UNL     1      40.942  -7.555  18.673  1.00  0.00     0.009 A 
HETATM   38  C   UNL     1      39.751  -7.330  17.977  1.00  0.00     0.017 A 
HETATM   39  C   UNL     1      39.770  -6.669  16.744  1.00  0.00     0.030 A 
BRANCH  37  40
HETATM   40  C   UNL     1      40.874  -8.215  20.007  1.00  0.00     0.155 C 
HETATM   41  C   UNL     1      39.869  -7.717  21.014  1.00  0.00     0.096 C 
HETATM   42  O   UNL     1      41.625  -9.153  20.265  1.00  0.00    -0.293 OA
ENDBRANCH  37  40
ENDBRANCH  31  34
ENDBRANCH  29  30
ENDBRANCH   1  29
TORSDOF 8
ENDMDL
MODEL 6
REMARK VINA RESULT:      -9.1      2.607      4.097
REMARK  8 active torsions:
REMARK  status: ('A' for Active; 'I' for Inactive)
REMARK    1  A    between atoms: C_2  and  C_3 
REMARK    2  A    between atoms: C_6  and  N_7 
REMARK       I    between atoms: N_7  and  C_8 
REMARK    3  A    between atoms: C_8  and  O_9 
REMARK    4  A    between atoms: O_9  and  C_10 
REMARK    5  A    between atoms: C_13  and  N_14 
REMARK       I    between atoms: N_14  and  C_15 
REMARK    6  A    between atoms: C_15  and  C_16 
REMARK    7  A    between atoms: N_19  and  C_20 
REMARK    8  A    between atoms: C_22  and  C_23 
ROOT
HETATM    1  C   UNL     1      39.194  -6.486   8.143  1.00  0.00     0.189 C 
HETATM    2  C   UNL     1      40.141  -7.471   7.451  1.00  0.00     0.184 C 
HETATM    3  C   UNL     1      39.335  -8.050   6.290  1.00  0.00     0.177 C 
HETATM    4  C   UNL     1      39.518  -9.555   6.407  1.00  0.00     0.139 C 
HETATM    5  C   UNL     1      39.721  -9.703   7.910  1.00  0.00     0.196 C 
HETATM    6  O   UNL     1      40.522  -8.576   8.302  1.00  0.00    -0.378 OA
HETATM    7  O   UNL     1      37.959  -7.694   6.528  1.00  0.00    -0.378 OA
HETATM    8  C   UNL     1      37.988  -6.438   7.217  1.00  0.00     0.203 C 
ENDROOT
BRANCH   4   9
HETATM    9  N   UNL     1      40.678 -10.075   5.679  1.00  0.00    -0.351 N 
HETATM   10  C   UNL     1      40.946 -11.424   5.596  1.00  0.00     0.222 C 
HETATM   11  O   UNL     1      40.133 -12.285   5.910  1.00  0.00    -0.273 OA
HETATM   12  H   UNL     1      41.444  -9.432   5.516  1.00  0.00     0.163 HD
BRANCH  10  13
HETATM   13  C   UNL     1      42.369 -11.728   5.132  1.00  0.00     0.081 C 
HETATM   14  C   UNL     1      43.237 -12.308   6.256  1.00  0.00     0.034 C 
HETATM   15  C   UNL     1      42.995 -13.798   6.498  1.00  0.00     0.142 C 
HETATM   16  N   UNL     1      43.097 -14.509   5.225  1.00  0.00    -0.214 N 
HETATM   17  C   UNL     1      42.151 -14.090   4.199  1.00  0.00     0.142 C 
HETATM   18  C   UNL     1      42.396 -12.615   3.880  1.00  0.00     0.034 C 
BRANCH  16  19
HETATM   19  C   UNL     1      43.352 -15.872   5.311  1.00  0.00     0.724 A 
HETATM   20  N   UNL     1      43.472 -16.579   4.176  1.00  0.00    -0.058 NA
HETATM   21  C   UNL     1      43.622 -17.927   4.249  1.00  0.00     0.160 A 
HETATM   22  C   UNL     1      43.653 -18.587   5.460  1.00  0.00     0.057 A 
HETATM   23  C   UNL     1      43.538 -17.797   6.571  1.00  0.00     0.139 A 
HETATM   24  N   UNL     1      43.387 -16.461   6.517  1.00  0.00    -0.075 NA
BRANCH  21  25
HETATM   25  C   UNL     1      43.699 -18.732   2.965  1.00  0.00     0.435 C 
HETATM   26  F   UNL     1      43.028 -18.185   1.914  1.00  0.00    -0.165 F 
HETATM   27  F   UNL     1      44.986 -18.898   2.533  1.00  0.00    -0.165 F 
HETATM   28  F   UNL     1      43.205 -19.996   3.112  1.00  0.00    -0.165 F 
ENDBRANCH  21  25
ENDBRANCH  16  19
ENDBRANCH  10  13
ENDBRANCH   4   9
BRANCH   1  29
HETATM   29  O   UNL     1      38.775  -6.984   9.429  1.00  0.00    -0.293 OA
BRANCH  29  30
HETATM   30  C   UNL     1      38.933  -6.116  10.457  1.00  0.00     0.365 C 
HETATM   31  N   UNL     1      39.894  -6.442  11.377  1.00  0.00    -0.303 N 
HETATM   32  H   UNL     1      39.952  -5.729  12.092  1.00  0.00     0.171 HD
HETATM   33  O   UNL     1      38.281  -5.085  10.590  1.00  0.00    -0.238 OA
BRANCH  31  34
HETATM   34  C   UNL     1      40.867  -7.456  11.411  1.00  0.00     0.036 A 
HETATM   35  C   UNL     1      40.632  -8.785  11.766  1.00  0.00     0.030 A 
HETATM   36  C   UNL     1      41.655  -9.742  11.687  1.00  0.00     0.017 A 
HETATM   37  C   UNL     1      42.934  -9.374  11.262  1.00  0.00     0.009 A 
HETATM   38  C   UNL     1      43.189  -8.036  10.952  1.00  0.00     0.017 A 
HETATM   39  C   UNL     1      42.163  -7.088  11.027  1.00  0.00     0.030 A 
BRANCH  37  40
HETATM   40  C   UNL     1      44.041 -10.362  11.120  1.00  0.00     0.155 C 
HETATM   41  C   UNL     1      45.228 -10.005  10.262  1.00  0.00     0.096 C 
HETATM   42  O   UNL     1      43.978 -11.441  11.704  1.00  0.00    -0.293 OA
ENDBRANCH  37  40
ENDBRANCH  31  34
ENDBRANCH  29  30
ENDBRANCH   1  29
TORSDOF 8
ENDMDL
MODEL 7
REMARK VINA RESULT:      -9.0      4.032      5.421
REMARK  8 active torsions:
REMARK  status: ('A' for Active; 'I' for Inactive)
REMARK    1  A    between atoms: C_2  and  C_3 
REMARK    2  A    between atoms: C_6  and  N_7 
REMARK       I    between atoms: N_7  and  C_8 
REMARK    3  A    between atoms: C_8  and  O_9 
REMARK    4  A    between atoms: O_9  and  C_10 
REMARK    5  A    between atoms: C_13  and  N_14 
REMARK       I    between atoms: N_14  and  C_15 
REMARK    6  A    between atoms: C_15  and  C_16 
REMARK    7  A    between atoms: N_19  and  C_20 
REMARK    8  A    between atoms: C_22  and  C_23 
ROOT
HETATM    1  C   UNL     1      44.244 -10.971   7.893  1.00  0.00     0.189 C 
HETATM    2  C   UNL     1      43.117 -11.735   7.190  1.00  0.00     0.184 C 
HETATM    3  C   UNL     1      43.785 -12.425   6.003  1.00  0.00     0.177 C 
HETATM    4  C   UNL     1      42.900 -12.088   4.813  1.00  0.00     0.139 C 
HETATM    5  C   UNL     1      42.338 -10.740   5.248  1.00  0.00     0.196 C 
HETATM    6  O   UNL     1      42.093 -10.863   6.659  1.00  0.00    -0.378 OA
HETATM    7  O   UNL     1      45.081 -11.815   5.849  1.00  0.00    -0.378 OA
HETATM    8  C   UNL     1      45.498 -11.432   7.166  1.00  0.00     0.203 C 
ENDROOT
BRANCH   4   9
HETATM    9  N   UNL     1      41.817 -13.046   4.583  1.00  0.00    -0.351 N 
HETATM   10  C   UNL     1      42.023 -14.241   3.928  1.00  0.00     0.222 C 
HETATM   11  O   UNL     1      43.140 -14.694   3.704  1.00  0.00    -0.273 OA
HETATM   12  H   UNL     1      40.870 -12.687   4.620  1.00  0.00     0.163 HD
BRANCH  10  13
HETATM   13  C   UNL     1      40.729 -14.906   3.465  1.00  0.00     0.081 C 
HETATM   14  C   UNL     1      39.671 -13.883   3.032  1.00  0.00     0.034 C 
HETATM   15  C   UNL     1      39.899 -13.340   1.622  1.00  0.00     0.142 C 
HETATM   16  N   UNL     1      40.069 -14.463   0.701  1.00  0.00    -0.214 N 
HETATM   17  C   UNL     1      41.188 -15.348   0.998  1.00  0.00     0.142 C 
HETATM   18  C   UNL     1      40.972 -15.963   2.380  1.00  0.00     0.034 C 
BRANCH  16  19
HETATM   19  C   UNL     1      39.838 -14.186  -0.641  1.00  0.00     0.724 A 
HETATM   20  N   UNL     1      40.187 -12.982  -1.120  1.00  0.00    -0.058 NA
HETATM   21  C   UNL     1      39.875 -12.665  -2.404  1.00  0.00     0.160 A 
HETATM   22  C   UNL     1      39.209 -13.551  -3.226  1.00  0.00     0.057 A 
HETATM   23  C   UNL     1      38.899 -14.761  -2.669  1.00  0.00     0.139 A 
HETATM   24  N   UNL     1      39.198 -15.090  -1.400  1.00  0.00    -0.075 NA
BRANCH  21  25
HETATM   25  C   UNL     1      40.218 -11.283  -2.928  1.00  0.00     0.435 C 
HETATM   26  F   UNL     1      39.180 -10.630  -3.521  1.00  0.00    -0.165 F 
HETATM   27  F   UNL     1      40.661 -10.448  -1.941  1.00  0.00    -0.165 F 
HETATM   28  F   UNL     1      41.223 -11.311  -3.852  1.00  0.00    -0.165 F 
ENDBRANCH  21  25
ENDBRANCH  16  19
ENDBRANCH  10  13
ENDBRANCH   4   9
BRANCH   1  29
HETATM   29  O   UNL     1      44.097  -9.549   7.714  1.00  0.00    -0.293 OA
BRANCH  29  30
HETATM   30  C   UNL     1      45.023  -8.793   8.351  1.00  0.00     0.365 C 
HETATM   31  N   UNL     1      44.684  -8.355   9.604  1.00  0.00    -0.303 N 
HETATM   32  H   UNL     1      45.442  -7.819  10.006  1.00  0.00     0.171 HD
HETATM   33  O   UNL     1      46.117  -8.502   7.874  1.00  0.00    -0.238 OA
BRANCH  31  34
HETATM   34  C   UNL     1      43.593  -8.639  10.442  1.00  0.00     0.036 A 
HETATM   35  C   UNL     1      42.317  -8.090  10.316  1.00  0.00     0.030 A 
HETATM   36  C   UNL     1      41.270  -8.503  11.155  1.00  0.00     0.017 A 
HETATM   37  C   UNL     1      41.494  -9.465  12.142  1.00  0.00     0.009 A 
HETATM   38  C   UNL     1      42.782  -9.983  12.307  1.00  0.00     0.017 A 
HETATM   39  C   UNL     1      43.819  -9.572  11.464  1.00  0.00     0.030 A 
BRANCH  37  40
HETATM   40  C   UNL     1      40.406  -9.967  13.028  1.00  0.00     0.155 C 
HETATM   41  C   UNL     1      39.300 -10.793  12.423  1.00  0.00     0.096 C 
HETATM   42  O   UNL     1      40.427  -9.710  14.229  1.00  0.00    -0.293 OA
ENDBRANCH  37  40
ENDBRANCH  31  34
ENDBRANCH  29  30
ENDBRANCH   1  29
TORSDOF 8
ENDMDL
MODEL 8
REMARK VINA RESULT:      -8.9      2.495      3.780
REMARK  8 active torsions:
REMARK  status: ('A' for Active; 'I' for Inactive)
REMARK    1  A    between atoms: C_2  and  C_3 
REMARK    2  A    between atoms: C_6  and  N_7 
REMARK       I    between atoms: N_7  and  C_8 
REMARK    3  A    between atoms: C_8  and  O_9 
REMARK    4  A    between atoms: O_9  and  C_10 
REMARK    5  A    between atoms: C_13  and  N_14 
REMARK       I    between atoms: N_14  and  C_15 
REMARK    6  A    between atoms: C_15  and  C_16 
REMARK    7  A    between atoms: N_19  and  C_20 
REMARK    8  A    between atoms: C_22  and  C_23 
ROOT
HETATM    1  C   UNL     1      39.546  -6.790   5.935  1.00  0.00     0.189 C 
HETATM    2  C   UNL     1      39.879  -7.930   4.967  1.00  0.00     0.184 C 
HETATM    3  C   UNL     1      39.275  -9.180   5.601  1.00  0.00     0.177 C 
HETATM    4  C   UNL     1      40.396 -10.208   5.570  1.00  0.00     0.139 C 
HETATM    5  C   UNL     1      41.618  -9.301   5.649  1.00  0.00     0.196 C 
HETATM    6  O   UNL     1      41.300  -8.158   4.837  1.00  0.00    -0.378 OA
HETATM    7  O   UNL     1      38.953  -8.835   6.963  1.00  0.00    -0.378 OA
HETATM    8  C   UNL     1      38.619  -7.441   6.950  1.00  0.00     0.203 C 
ENDROOT
BRANCH   4   9
HETATM    9  N   UNL     1      40.432 -11.015   4.348  1.00  0.00    -0.351 N 
HETATM   10  C   UNL     1      40.328 -12.389   4.374  1.00  0.00     0.222 C 
HETATM   11  O   UNL     1      39.966 -13.011   5.366  1.00  0.00    -0.273 OA
HETATM   12  H   UNL     1      40.853 -10.591   3.530  1.00  0.00     0.163 HD
BRANCH  10  13
HETATM   13  C   UNL     1      40.761 -13.051   3.068  1.00  0.00     0.081 C 
HETATM   14  C   UNL     1      42.286 -13.065   2.900  1.00  0.00     0.034 C 
HETATM   15  C   UNL     1      42.971 -14.177   3.694  1.00  0.00     0.142 C 
HETATM   16  N   UNL     1      42.316 -15.449   3.392  1.00  0.00    -0.214 N 
HETATM   17  C   UNL     1      40.897 -15.512   3.717  1.00  0.00     0.142 C 
HETATM   18  C   UNL     1      40.160 -14.452   2.898  1.00  0.00     0.034 C 
BRANCH  16  19
HETATM   19  C   UNL     1      43.062 -16.591   3.655  1.00  0.00     0.724 A 
HETATM   20  N   UNL     1      42.924 -17.652   2.844  1.00  0.00    -0.058 NA
HETATM   21  C   UNL     1      43.573 -18.806   3.148  1.00  0.00     0.160 A 
HETATM   22  C   UNL     1      44.369 -18.915   4.269  1.00  0.00     0.057 A 
HETATM   23  C   UNL     1      44.469 -17.787   5.038  1.00  0.00     0.139 A 
HETATM   24  N   UNL     1      43.833 -16.637   4.753  1.00  0.00    -0.075 NA
BRANCH  21  25
HETATM   25  C   UNL     1      43.371 -20.022   2.263  1.00  0.00     0.435 C 
HETATM   26  F   UNL     1      44.102 -20.011   1.113  1.00  0.00    -0.165 F 
HETATM   27  F   UNL     1      43.703 -21.187   2.897  1.00  0.00    -0.165 F 
HETATM   28  F   UNL     1      42.070 -20.179   1.881  1.00  0.00    -0.165 F 
ENDBRANCH  21  25
ENDBRANCH  16  19
ENDBRANCH  10  13
ENDBRANCH   4   9
BRANCH   1  29
HETATM   29  O   UNL     1      40.728  -6.323   6.614  1.00  0.00    -0.293 OA
BRANCH  29  30
HETATM   30  C   UNL     1      40.498  -5.667   7.777  1.00  0.00     0.365 C 
HETATM   31  N   UNL     1      41.082  -6.201   8.894  1.00  0.00    -0.303 N 
HETATM   32  H   UNL     1      40.873  -5.635   9.706  1.00  0.00     0.171 HD
HETATM   33  O   UNL     1      39.822  -4.646   7.867  1.00  0.00    -0.238 OA
BRANCH  31  34
HETATM   34  C   UNL     1      42.000  -7.250   9.073  1.00  0.00     0.036 A 
HETATM   35  C   UNL     1      41.663  -8.580   9.330  1.00  0.00     0.030 A 
HETATM   36  C   UNL     1      42.654  -9.571   9.410  1.00  0.00     0.017 A 
HETATM   37  C   UNL     1      44.001  -9.237   9.244  1.00  0.00     0.009 A 
HETATM   38  C   UNL     1      44.349  -7.900   9.036  1.00  0.00     0.017 A 
HETATM   39  C   UNL     1      43.356  -6.918   8.951  1.00  0.00     0.030 A 
BRANCH  37  40
HETATM   40  C   UNL     1      45.084 -10.259   9.276  1.00  0.00     0.155 C 
HETATM   41  C   UNL     1      45.810 -10.590   7.997  1.00  0.00     0.096 C 
HETATM   42  O   UNL     1      45.376 -10.810  10.335  1.00  0.00    -0.293 OA
ENDBRANCH  37  40
ENDBRANCH  31  34
ENDBRANCH  29  30
ENDBRANCH   1  29
TORSDOF 8
ENDMDL
MODEL 9
REMARK VINA RESULT:      -8.9      5.601     11.263
REMARK  8 active torsions:
REMARK  status: ('A' for Active; 'I' for Inactive)
REMARK    1  A    between atoms: C_2  and  C_3 
REMARK    2  A    between atoms: C_6  and  N_7 
REMARK       I    between atoms: N_7  and  C_8 
REMARK    3  A    between atoms: C_8  and  O_9 
REMARK    4  A    between atoms: O_9  and  C_10 
REMARK    5  A    between atoms: C_13  and  N_14 
REMARK       I    between atoms: N_14  and  C_15 
REMARK    6  A    between atoms: C_15  and  C_16 
REMARK    7  A    between atoms: N_19  and  C_20 
REMARK    8  A    between atoms: C_22  and  C_23 
ROOT
HETATM    1  C   UNL     1      41.575 -11.717   3.864  1.00  0.00     0.189 C 
HETATM    2  C   UNL     1      42.180 -10.924   5.027  1.00  0.00     0.184 C 
HETATM    3  C   UNL     1      43.684 -10.917   4.764  1.00  0.00     0.177 C 
HETATM    4  C   UNL     1      44.309 -11.343   6.083  1.00  0.00     0.139 C 
HETATM    5  C   UNL     1      43.201 -12.220   6.654  1.00  0.00     0.196 C 
HETATM    6  O   UNL     1      41.972 -11.560   6.308  1.00  0.00    -0.378 OA
HETATM    7  O   UNL     1      43.929 -11.914   3.752  1.00  0.00    -0.378 OA
HETATM    8  C   UNL     1      42.754 -11.941   2.930  1.00  0.00     0.203 C 
ENDROOT
BRANCH   4   9
HETATM    9  N   UNL     1      44.603 -10.231   6.991  1.00  0.00    -0.351 N 
HETATM   10  C   UNL     1      45.749 -10.194   7.755  1.00  0.00     0.222 C 
HETATM   11  O   UNL     1      46.700 -10.943   7.567  1.00  0.00    -0.273 OA
HETATM   12  H   UNL     1      43.819  -9.662   7.290  1.00  0.00     0.163 HD
BRANCH  10  13
HETATM   13  C   UNL     1      45.686  -9.170   8.886  1.00  0.00     0.081 C 
HETATM   14  C   UNL     1      44.608  -8.105   8.649  1.00  0.00     0.034 C 
HETATM   15  C   UNL     1      43.199  -8.583   8.999  1.00  0.00     0.142 C 
HETATM   16  N   UNL     1      43.209  -9.144  10.349  1.00  0.00    -0.214 N 
HETATM   17  C   UNL     1      44.101 -10.280  10.546  1.00  0.00     0.142 C 
HETATM   18  C   UNL     1      45.535  -9.831  10.263  1.00  0.00     0.034 C 
BRANCH  16  19
HETATM   19  C   UNL     1      41.977  -9.207  10.988  1.00  0.00     0.724 A 
HETATM   20  N   UNL     1      41.024  -8.330  10.637  1.00  0.00    -0.058 NA
HETATM   21  C   UNL     1      39.851  -8.318  11.324  1.00  0.00     0.160 A 
HETATM   22  C   UNL     1      39.617  -9.184  12.372  1.00  0.00     0.057 A 
HETATM   23  C   UNL     1      40.632 -10.055  12.661  1.00  0.00     0.139 A 
HETATM   24  N   UNL     1      41.800 -10.079  11.994  1.00  0.00    -0.075 NA
BRANCH  21  25
HETATM   25  C   UNL     1      38.795  -7.289  10.964  1.00  0.00     0.435 C 
HETATM   26  F   UNL     1      38.309  -7.399   9.696  1.00  0.00    -0.165 F 
HETATM   27  F   UNL     1      37.702  -7.358  11.783  1.00  0.00    -0.165 F 
HETATM   28  F   UNL     1      39.253  -6.009  11.083  1.00  0.00    -0.165 F 
ENDBRANCH  21  25
ENDBRANCH  16  19
ENDBRANCH  10  13
ENDBRANCH   4   9
BRANCH   1  29
HETATM   29  O   UNL     1      41.082 -12.996   4.308  1.00  0.00    -0.293 OA
BRANCH  29  30
HETATM   30  C   UNL     1      39.737 -13.074   4.451  1.00  0.00     0.365 C 
HETATM   31  N   UNL     1      39.015 -13.177   3.292  1.00  0.00    -0.303 N 
HETATM   32  H   UNL     1      38.027 -13.249   3.498  1.00  0.00     0.171 HD
HETATM   33  O   UNL     1      39.161 -13.065   5.534  1.00  0.00    -0.238 OA
BRANCH  31  34
HETATM   34  C   UNL     1      39.397 -13.349   1.950  1.00  0.00     0.036 A 
HETATM   35  C   UNL     1      39.933 -14.519   1.410  1.00  0.00     0.030 A 
HETATM   36  C   UNL     1      40.205 -14.618   0.037  1.00  0.00     0.017 A 
HETATM   37  C   UNL     1      39.952 -13.538  -0.813  1.00  0.00     0.009 A 
HETATM   38  C   UNL     1      39.462 -12.347  -0.271  1.00  0.00     0.017 A 
HETATM   39  C   UNL     1      39.187 -12.257   1.098  1.00  0.00     0.030 A 
BRANCH  37  40
HETATM   40  C   UNL     1      40.183 -13.611  -2.283  1.00  0.00     0.155 C 
HETATM   41  C   UNL     1      40.992 -12.526  -2.946  1.00  0.00     0.096 C 
HETATM   42  O   UNL     1      39.721 -14.548  -2.929  1.00  0.00    -0.293 OA
ENDBRANCH  37  40
ENDBRANCH  31  34
ENDBRANCH  29  30
ENDBRANCH   1  29
TORSDOF 8
ENDMDL
MODEL 10
REMARK VINA RESULT:      -8.8      6.014      9.590
REMARK  8 active torsions:
REMARK  status: ('A' for Active; 'I' for Inactive)
REMARK    1  A    between atoms: C_2  and  C_3 
REMARK    2  A    between atoms: C_6  and  N_7 
REMARK       I    between atoms: N_7  and  C_8 
REMARK    3  A    between atoms: C_8  and  O_9 
REMARK    4  A    between atoms: O_9  and  C_10 
REMARK    5  A    between atoms: C_13  and  N_14 
REMARK       I    between atoms: N_14  and  C_15 
REMARK    6  A    between atoms: C_15  and  C_16 
REMARK    7  A    between atoms: N_19  and  C_20 
REMARK    8  A    between atoms: C_22  and  C_23 
ROOT
HETATM    1  C   UNL     1      42.839 -11.097   5.320  1.00  0.00     0.189 C 
HETATM    2  C   UNL     1      42.680 -10.981   3.801  1.00  0.00     0.184 C 
HETATM    3  C   UNL     1      41.282 -11.521   3.506  1.00  0.00     0.177 C 
HETATM    4  C   UNL     1      41.483 -12.514   2.372  1.00  0.00     0.139 C 
HETATM    5  C   UNL     1      42.908 -12.979   2.649  1.00  0.00     0.196 C 
HETATM    6  O   UNL     1      43.619 -11.804   3.073  1.00  0.00    -0.378 OA
HETATM    7  O   UNL     1      40.846 -12.204   4.697  1.00  0.00    -0.378 OA
HETATM    8  C   UNL     1      41.457 -11.516   5.796  1.00  0.00     0.203 C 
ENDROOT
BRANCH   4   9
HETATM    9  N   UNL     1      41.386 -11.923   1.036  1.00  0.00    -0.351 N 
HETATM   10  C   UNL     1      40.722 -12.552   0.004  1.00  0.00     0.222 C 
HETATM   11  O   UNL     1      39.979 -13.510   0.176  1.00  0.00    -0.273 OA
HETATM   12  H   UNL     1      42.073 -11.219   0.793  1.00  0.00     0.163 HD
BRANCH  10  13
HETATM   13  C   UNL     1      41.054 -11.970  -1.368  1.00  0.00     0.081 C 
HETATM   14  C   UNL     1      40.286 -12.667  -2.499  1.00  0.00     0.034 C 
HETATM   15  C   UNL     1      38.844 -12.181  -2.638  1.00  0.00     0.142 C 
HETATM   16  N   UNL     1      38.840 -10.721  -2.714  1.00  0.00    -0.214 N 
HETATM   17  C   UNL     1      39.406 -10.035  -1.560  1.00  0.00     0.142 C 
HETATM   18  C   UNL     1      40.871 -10.447  -1.416  1.00  0.00     0.034 C 
BRANCH  16  19
HETATM   19  C   UNL     1      37.708 -10.148  -3.281  1.00  0.00     0.724 A 
HETATM   20  N   UNL     1      36.557 -10.837  -3.260  1.00  0.00    -0.058 NA
HETATM   21  C   UNL     1      35.470 -10.329  -3.899  1.00  0.00     0.160 A 
HETATM   22  C   UNL     1      35.522  -9.124  -4.567  1.00  0.00     0.057 A 
HETATM   23  C   UNL     1      36.726  -8.476  -4.532  1.00  0.00     0.139 A 
HETATM   24  N   UNL     1      37.812  -8.965  -3.908  1.00  0.00    -0.075 NA
BRANCH  21  25
HETATM   25  C   UNL     1      34.185 -11.135  -3.924  1.00  0.00     0.435 C 
HETATM   26  F   UNL     1      33.424 -10.950  -5.038  1.00  0.00    -0.165 F 
HETATM   27  F   UNL     1      34.414 -12.481  -3.855  1.00  0.00    -0.165 F 
HETATM   28  F   UNL     1      33.373 -10.855  -2.862  1.00  0.00    -0.165 F 
ENDBRANCH  21  25
ENDBRANCH  16  19
ENDBRANCH  10  13
ENDBRANCH   4   9
BRANCH   1  29
HETATM   29  O   UNL     1      43.785 -12.128   5.666  1.00  0.00    -0.293 OA
BRANCH  29  30
HETATM   30  C   UNL     1      43.775 -12.499   6.969  1.00  0.00     0.365 C 
HETATM   31  N   UNL     1      43.549 -13.828   7.213  1.00  0.00    -0.303 N 
HETATM   32  H   UNL     1      43.581 -14.012   8.208  1.00  0.00     0.171 HD
HETATM   33  O   UNL     1      43.964 -11.727   7.904  1.00  0.00    -0.238 OA
BRANCH  31  34
HETATM   34  C   UNL     1      43.444 -14.942   6.364  1.00  0.00     0.036 A 
HETATM   35  C   UNL     1      42.386 -15.192   5.490  1.00  0.00     0.030 A 
HETATM   36  C   UNL     1      42.415 -16.293   4.620  1.00  0.00     0.017 A 
HETATM   37  C   UNL     1      43.504 -17.167   4.625  1.00  0.00     0.009 A 
HETATM   38  C   UNL     1      44.545 -16.952   5.533  1.00  0.00     0.017 A 
HETATM   39  C   UNL     1      44.513 -15.849   6.392  1.00  0.00     0.030 A 
BRANCH  37  40
HETATM   40  C   UNL     1      43.602 -18.324   3.691  1.00  0.00     0.155 C 
HETATM   41  C   UNL     1      42.965 -18.214   2.330  1.00  0.00     0.096 C 
HETATM   42  O   UNL     1      44.201 -19.340   4.036  1.00  0.00    -0.293 OA
ENDBRANCH  37  40
ENDBRANCH  31  34
ENDBRANCH  29  30
ENDBRANCH   1  29
TORSDOF 8
ENDMDL
