MODEL 1
REMARK VINA RESULT:      -8.7      0.000      0.000
REMARK  4 active torsions:
REMARK  status: ('A' for Active; 'I' for Inactive)
REMARK    1  A    between atoms: C_6  and  C_7 
REMARK    2  A    between atoms: C_7  and  N_8 
REMARK    3  A    between atoms: C_12  and  C_13 
REMARK    4  A    between atoms: C_15  and  C_16 
ROOT
HETATM    1  N   UNL     1      42.710 -13.400   5.905  1.00  0.00    -0.067 N 
HETATM    2  H   UNL     1      43.162 -13.565   4.999  1.00  0.00     0.280 HD
HETATM    3  C   UNL     1      41.968 -12.084   5.805  1.00  0.00     0.236 C 
HETATM    4  C   UNL     1      42.952 -10.949   5.546  1.00  0.00     0.040 C 
HETATM    5  C   UNL     1      44.079 -10.877   6.582  1.00  0.00     0.058 C 
HETATM    6  C   UNL     1      44.756 -12.244   6.724  1.00  0.00     0.040 C 
HETATM    7  C   UNL     1      43.771 -13.379   6.976  1.00  0.00     0.236 C 
ENDROOT
BRANCH   1   8
HETATM    8  C   UNL     1      41.766 -14.571   6.122  1.00  0.00     0.273 C 
BRANCH   8   9
HETATM    9  C   UNL     1      42.372 -15.898   5.758  1.00  0.00    -0.032 A 
HETATM   10  C   UNL     1      42.607 -16.218   4.412  1.00  0.00     0.017 A 
HETATM   11  C   UNL     1      43.224 -17.425   4.117  1.00  0.00    -0.035 A 
HETATM   12  C   UNL     1      43.625 -18.320   5.112  1.00  0.00     0.016 A 
HETATM   13  C   UNL     1      43.612 -17.965   2.780  1.00  0.00     0.055 C 
HETATM   14  N   UNL     1      44.289 -19.436   4.583  1.00  0.00    -0.287 NA
HETATM   15  C   UNL     1      43.393 -18.015   6.442  1.00  0.00     0.025 A 
HETATM   16  C   UNL     1      44.207 -20.701   5.294  1.00  0.00     0.116 C 
HETATM   17  C   UNL     1      43.929 -19.425   3.153  1.00  0.00     0.100 C 
HETATM   18  C   UNL     1      42.758 -16.810   6.765  1.00  0.00     0.011 A 
ENDBRANCH   8   9
ENDBRANCH   1   8
BRANCH   5  19
HETATM   19  C   UNL     1      43.558 -10.392   7.900  1.00  0.00     0.108 A 
HETATM   20  N   UNL     1      44.045 -10.708   9.081  1.00  0.00    -0.229 NA
HETATM   21  C   UNL     1      43.250 -10.062  10.023  1.00  0.00     0.157 A 
HETATM   22  C   UNL     1      42.273  -9.341   9.362  1.00  0.00     0.126 A 
HETATM   23  N   UNL     1      42.478  -9.554   8.027  1.00  0.00    -0.352 N 
HETATM   24  H   UNL     1      41.924  -9.168   7.272  1.00  0.00     0.166 HD
BRANCH  21  25
HETATM   25  C   UNL     1      43.480 -10.186  11.506  1.00  0.00     0.436 C 
HETATM   26  F   UNL     1      42.326 -10.424  12.185  1.00  0.00    -0.165 F 
HETATM   27  F   UNL     1      44.328 -11.205  11.799  1.00  0.00    -0.165 F 
HETATM   28  F   UNL     1      44.019  -9.055  12.029  1.00  0.00    -0.165 F 
ENDBRANCH  21  25
ENDBRANCH   5  19
TORSDOF 4
ENDMDL
MODEL 2
REMARK VINA RESULT:      -8.4      6.842      8.256
REMARK  4 active torsions:
REMARK  status: ('A' for Active; 'I' for Inactive)
REMARK    1  A    between atoms: C_6  and  C_7 
REMARK    2  A    between atoms: C_7  and  N_8 
REMARK    3  A    between atoms: C_12  and  C_13 
REMARK    4  A    between atoms: C_15  and  C_16 
ROOT
HETATM    1  N   UNL     1      41.913 -14.356   2.677  1.00  0.00    -0.067 N 
HETATM    2  H   UNL     1      41.772 -14.520   3.681  1.00  0.00     0.280 HD
HETATM    3  C   UNL     1      41.940 -12.858   2.464  1.00  0.00     0.236 C 
HETATM    4  C   UNL     1      40.602 -12.249   2.868  1.00  0.00     0.040 C 
HETATM    5  C   UNL     1      39.406 -12.892   2.158  1.00  0.00     0.058 C 
HETATM    6  C   UNL     1      39.450 -14.414   2.318  1.00  0.00     0.040 C 
HETATM    7  C   UNL     1      40.790 -15.021   1.921  1.00  0.00     0.236 C 
ENDROOT
BRANCH   1   8
HETATM    8  C   UNL     1      43.241 -15.005   2.328  1.00  0.00     0.273 C 
BRANCH   8   9
HETATM    9  C   UNL     1      43.430 -16.354   2.968  1.00  0.00    -0.032 A 
HETATM   10  C   UNL     1      43.462 -17.511   2.174  1.00  0.00     0.017 A 
HETATM   11  C   UNL     1      43.699 -18.729   2.791  1.00  0.00    -0.035 A 
HETATM   12  C   UNL     1      43.916 -18.839   4.168  1.00  0.00     0.016 A 
HETATM   13  C   UNL     1      43.818 -20.079   2.164  1.00  0.00     0.055 C 
HETATM   14  N   UNL     1      44.205 -20.156   4.555  1.00  0.00    -0.287 NA
HETATM   15  C   UNL     1      43.881 -17.704   4.959  1.00  0.00     0.025 A 
HETATM   16  C   UNL     1      43.835 -20.589   5.891  1.00  0.00     0.116 C 
HETATM   17  C   UNL     1      43.750 -20.974   3.415  1.00  0.00     0.100 C 
HETATM   18  C   UNL     1      43.628 -16.463   4.362  1.00  0.00     0.011 A 
ENDBRANCH   8   9
ENDBRANCH   1   8
BRANCH   5  19
HETATM   19  C   UNL     1      39.375 -12.501   0.711  1.00  0.00     0.108 A 
HETATM   20  N   UNL     1      39.679 -13.284  -0.302  1.00  0.00    -0.229 NA
HETATM   21  C   UNL     1      39.540 -12.513  -1.453  1.00  0.00     0.157 A 
HETATM   22  C   UNL     1      39.133 -11.241  -1.092  1.00  0.00     0.126 A 
HETATM   23  N   UNL     1      39.030 -11.246   0.272  1.00  0.00    -0.352 N 
HETATM   24  H   UNL     1      38.758 -10.460   0.851  1.00  0.00     0.166 HD
BRANCH  21  25
HETATM   25  C   UNL     1      39.814 -13.051  -2.832  1.00  0.00     0.436 C 
HETATM   26  F   UNL     1      40.489 -12.159  -3.605  1.00  0.00    -0.165 F 
HETATM   27  F   UNL     1      40.563 -14.183  -2.790  1.00  0.00    -0.165 F 
HETATM   28  F   UNL     1      38.667 -13.356  -3.491  1.00  0.00    -0.165 F 
ENDBRANCH  21  25
ENDBRANCH   5  19
TORSDOF 4
ENDMDL
MODEL 3
REMARK VINA RESULT:      -8.4      6.431      7.981
REMARK  4 active torsions:
REMARK  status: ('A' for Active; 'I' for Inactive)
REMARK    1  A    between atoms: C_6  and  C_7 
REMARK    2  A    between atoms: C_7  and  N_8 
REMARK    3  A    between atoms: C_12  and  C_13 
REMARK    4  A    between atoms: C_15  and  C_16 
ROOT
HETATM    1  N   UNL     1      41.723 -14.541   2.246  1.00  0.00    -0.067 N 
HETATM    2  H   UNL     1      41.102 -15.085   2.856  1.00  0.00     0.280 HD
HETATM    3  C   UNL     1      41.315 -13.089   2.369  1.00  0.00     0.236 C 
HETATM    4  C   UNL     1      39.882 -12.907   1.883  1.00  0.00     0.040 C 
HETATM    5  C   UNL     1      39.653 -13.431   0.462  1.00  0.00     0.058 C 
HETATM    6  C   UNL     1      40.152 -14.875   0.344  1.00  0.00     0.040 C 
HETATM    7  C   UNL     1      41.583 -15.058   0.836  1.00  0.00     0.236 C 
ENDROOT
BRANCH   1   8
HETATM    8  C   UNL     1      43.133 -14.782   2.758  1.00  0.00     0.273 C 
BRANCH   8   9
HETATM    9  C   UNL     1      43.356 -16.188   3.245  1.00  0.00    -0.032 A 
HETATM   10  C   UNL     1      43.330 -17.259   2.338  1.00  0.00     0.017 A 
HETATM   11  C   UNL     1      43.600 -18.533   2.813  1.00  0.00    -0.035 A 
HETATM   12  C   UNL     1      43.906 -18.781   4.154  1.00  0.00     0.016 A 
HETATM   13  C   UNL     1      43.672 -19.813   2.046  1.00  0.00     0.055 C 
HETATM   14  N   UNL     1      44.212 -20.130   4.386  1.00  0.00    -0.287 NA
HETATM   15  C   UNL     1      43.927 -17.732   5.056  1.00  0.00     0.025 A 
HETATM   16  C   UNL     1      43.927 -20.697   5.693  1.00  0.00     0.116 C 
HETATM   17  C   UNL     1      43.680 -20.829   3.201  1.00  0.00     0.100 C 
HETATM   18  C   UNL     1      43.643 -16.438   4.605  1.00  0.00     0.011 A 
ENDBRANCH   8   9
ENDBRANCH   1   8
BRANCH   5  19
HETATM   19  C   UNL     1      40.320 -12.545  -0.546  1.00  0.00     0.108 A 
HETATM   20  N   UNL     1      40.517 -11.250  -0.417  1.00  0.00    -0.229 NA
HETATM   21  C   UNL     1      41.140 -10.826  -1.587  1.00  0.00     0.157 A 
HETATM   22  C   UNL     1      41.315 -11.917  -2.420  1.00  0.00     0.126 A 
HETATM   23  N   UNL     1      40.797 -12.993  -1.753  1.00  0.00    -0.352 N 
HETATM   24  H   UNL     1      40.765 -13.946  -2.095  1.00  0.00     0.166 HD
BRANCH  21  25
HETATM   25  C   UNL     1      41.523  -9.391  -1.833  1.00  0.00     0.436 C 
HETATM   26  F   UNL     1      41.526  -9.082  -3.157  1.00  0.00    -0.165 F 
HETATM   27  F   UNL     1      40.664  -8.531  -1.228  1.00  0.00    -0.165 F 
HETATM   28  F   UNL     1      42.765  -9.113  -1.360  1.00  0.00    -0.165 F 
ENDBRANCH  21  25
ENDBRANCH   5  19
TORSDOF 4
ENDMDL
MODEL 4
REMARK VINA RESULT:      -8.3      5.766      8.328
REMARK  4 active torsions:
REMARK  status: ('A' for Active; 'I' for Inactive)
REMARK    1  A    between atoms: C_6  and  C_7 
REMARK    2  A    between atoms: C_7  and  N_8 
REMARK    3  A    between atoms: C_12  and  C_13 
REMARK    4  A    between atoms: C_15  and  C_16 
ROOT
HETATM    1  N   UNL     1      42.025 -14.889   6.603  1.00  0.00    -0.067 N 
HETATM    2  H   UNL     1      42.335 -14.586   7.533  1.00  0.00     0.280 HD
HETATM    3  C   UNL     1      41.702 -16.365   6.694  1.00  0.00     0.236 C 
HETATM    4  C   UNL     1      42.955 -17.151   7.064  1.00  0.00     0.040 C 
HETATM    5  C   UNL     1      44.131 -16.896   6.116  1.00  0.00     0.058 C 
HETATM    6  C   UNL     1      44.382 -15.391   5.977  1.00  0.00     0.040 C 
HETATM    7  C   UNL     1      43.128 -14.605   5.614  1.00  0.00     0.236 C 
ENDROOT
BRANCH   1   8
HETATM    8  C   UNL     1      40.797 -14.057   6.277  1.00  0.00     0.273 C 
BRANCH   8   9
HETATM    9  C   UNL     1      40.587 -13.862   4.799  1.00  0.00    -0.032 A 
HETATM   10  C   UNL     1      40.475 -14.975   3.953  1.00  0.00     0.017 A 
HETATM   11  C   UNL     1      40.220 -14.759   2.607  1.00  0.00    -0.035 A 
HETATM   12  C   UNL     1      40.062 -13.477   2.074  1.00  0.00     0.016 A 
HETATM   13  C   UNL     1      40.021 -15.771   1.527  1.00  0.00     0.055 C 
HETATM   14  N   UNL     1      39.742 -13.507   0.709  1.00  0.00    -0.287 NA
HETATM   15  C   UNL     1      40.177 -12.373   2.901  1.00  0.00     0.025 A 
HETATM   16  C   UNL     1      40.155 -12.396  -0.131  1.00  0.00     0.116 C 
HETATM   17  C   UNL     1      40.112 -14.870   0.282  1.00  0.00     0.100 C 
HETATM   18  C   UNL     1      40.448 -12.564   4.261  1.00  0.00     0.011 A 
ENDBRANCH   8   9
ENDBRANCH   1   8
BRANCH   5  19
HETATM   19  C   UNL     1      43.885 -17.529   4.781  1.00  0.00     0.108 A 
HETATM   20  N   UNL     1      43.877 -18.822   4.535  1.00  0.00    -0.229 NA
HETATM   21  C   UNL     1      43.636 -18.963   3.170  1.00  0.00     0.157 A 
HETATM   22  C   UNL     1      43.494 -17.706   2.610  1.00  0.00     0.126 A 
HETATM   23  N   UNL     1      43.650 -16.812   3.633  1.00  0.00    -0.352 N 
HETATM   24  H   UNL     1      43.608 -15.803   3.552  1.00  0.00     0.166 HD
BRANCH  21  25
HETATM   25  C   UNL     1      43.566 -20.304   2.491  1.00  0.00     0.436 C 
HETATM   26  F   UNL     1      44.542 -20.457   1.557  1.00  0.00    -0.165 F 
HETATM   27  F   UNL     1      43.702 -21.324   3.376  1.00  0.00    -0.165 F 
HETATM   28  F   UNL     1      42.380 -20.484   1.854  1.00  0.00    -0.165 F 
ENDBRANCH  21  25
ENDBRANCH   5  19
TORSDOF 4
ENDMDL
MODEL 5
REMARK VINA RESULT:      -8.1      6.954      9.829
REMARK  4 active torsions:
REMARK  status: ('A' for Active; 'I' for Inactive)
REMARK    1  A    between atoms: C_6  and  C_7 
REMARK    2  A    between atoms: C_7  and  N_8 
REMARK    3  A    between atoms: C_12  and  C_13 
REMARK    4  A    between atoms: C_15  and  C_16 
ROOT
HETATM    1  N   UNL     1      41.242 -14.803   1.837  1.00  0.00    -0.067 N 
HETATM    2  H   UNL     1      40.848 -13.922   2.187  1.00  0.00     0.280 HD
HETATM    3  C   UNL     1      40.635 -15.924   2.653  1.00  0.00     0.236 C 
HETATM    4  C   UNL     1      41.024 -15.771   4.120  1.00  0.00     0.040 C 
HETATM    5  C   UNL     1      42.538 -15.680   4.337  1.00  0.00     0.058 C 
HETATM    6  C   UNL     1      43.138 -14.596   3.437  1.00  0.00     0.040 C 
HETATM    7  C   UNL     1      42.743 -14.745   1.972  1.00  0.00     0.236 C 
ENDROOT
BRANCH   1   8
HETATM    8  C   UNL     1      40.848 -14.887   0.372  1.00  0.00     0.273 C 
BRANCH   8   9
HETATM    9  C   UNL     1      39.898 -13.800  -0.051  1.00  0.00    -0.032 A 
HETATM   10  C   UNL     1      39.159 -13.934  -1.236  1.00  0.00     0.017 A 
HETATM   11  C   UNL     1      38.248 -12.941  -1.563  1.00  0.00    -0.035 A 
HETATM   12  C   UNL     1      38.039 -11.823  -0.750  1.00  0.00     0.016 A 
HETATM   13  C   UNL     1      37.326 -12.878  -2.735  1.00  0.00     0.055 C 
HETATM   14  N   UNL     1      37.023 -10.992  -1.244  1.00  0.00    -0.287 NA
HETATM   15  C   UNL     1      38.768 -11.680   0.417  1.00  0.00     0.025 A 
HETATM   16  C   UNL     1      37.086  -9.568  -0.963  1.00  0.00     0.116 C 
HETATM   17  C   UNL     1      36.868 -11.411  -2.650  1.00  0.00     0.100 C 
HETATM   18  C   UNL     1      39.705 -12.662   0.762  1.00  0.00     0.011 A 
ENDBRANCH   8   9
ENDBRANCH   1   8
BRANCH   5  19
HETATM   19  C   UNL     1      43.191 -17.007   4.094  1.00  0.00     0.108 A 
HETATM   20  N   UNL     1      42.813 -17.895   3.201  1.00  0.00    -0.229 NA
HETATM   21  C   UNL     1      43.675 -18.981   3.334  1.00  0.00     0.157 A 
HETATM   22  C   UNL     1      44.587 -18.706   4.337  1.00  0.00     0.126 A 
HETATM   23  N   UNL     1      44.274 -17.460   4.806  1.00  0.00    -0.352 N 
HETATM   24  H   UNL     1      44.754 -16.968   5.551  1.00  0.00     0.166 HD
BRANCH  21  25
HETATM   25  C   UNL     1      43.559 -20.221   2.489  1.00  0.00     0.436 C 
HETATM   26  F   UNL     1      43.775 -21.354   3.209  1.00  0.00    -0.165 F 
HETATM   27  F   UNL     1      42.326 -20.337   1.932  1.00  0.00    -0.165 F 
HETATM   28  F   UNL     1      44.458 -20.223   1.472  1.00  0.00    -0.165 F 
ENDBRANCH  21  25
ENDBRANCH   5  19
TORSDOF 4
ENDMDL
MODEL 6
REMARK VINA RESULT:      -7.9      2.936      3.996
REMARK  4 active torsions:
REMARK  status: ('A' for Active; 'I' for Inactive)
REMARK    1  A    between atoms: C_6  and  C_7 
REMARK    2  A    between atoms: C_7  and  N_8 
REMARK    3  A    between atoms: C_12  and  C_13 
REMARK    4  A    between atoms: C_15  and  C_16 
ROOT
HETATM    1  N   UNL     1      40.174 -13.110   2.180  1.00  0.00    -0.067 N 
HETATM    2  H   UNL     1      39.798 -12.767   1.289  1.00  0.00     0.280 HD
HETATM    3  C   UNL     1      39.574 -12.259   3.279  1.00  0.00     0.236 C 
HETATM    4  C   UNL     1      40.001 -10.806   3.104  1.00  0.00     0.040 C 
HETATM    5  C   UNL     1      41.520 -10.627   3.027  1.00  0.00     0.058 C 
HETATM    6  C   UNL     1      42.110 -11.561   1.966  1.00  0.00     0.040 C 
HETATM    7  C   UNL     1      41.678 -13.012   2.137  1.00  0.00     0.236 C 
ENDROOT
BRANCH   1   8
HETATM    8  C   UNL     1      39.743 -14.563   2.287  1.00  0.00     0.273 C 
BRANCH   8   9
HETATM    9  C   UNL     1      40.713 -15.415   3.061  1.00  0.00    -0.032 A 
HETATM   10  C   UNL     1      41.580 -16.285   2.384  1.00  0.00     0.017 A 
HETATM   11  C   UNL     1      42.502 -17.008   3.125  1.00  0.00    -0.035 A 
HETATM   12  C   UNL     1      42.600 -16.891   4.514  1.00  0.00     0.016 A 
HETATM   13  C   UNL     1      43.546 -17.957   2.635  1.00  0.00     0.055 C 
HETATM   14  N   UNL     1      43.648 -17.662   5.038  1.00  0.00    -0.287 NA
HETATM   15  C   UNL     1      41.744 -16.040   5.191  1.00  0.00     0.025 A 
HETATM   16  C   UNL     1      43.527 -18.178   6.391  1.00  0.00     0.116 C 
HETATM   17  C   UNL     1      43.964 -18.618   3.961  1.00  0.00     0.100 C 
HETATM   18  C   UNL     1      40.794 -15.309   4.467  1.00  0.00     0.011 A 
ENDBRANCH   8   9
ENDBRANCH   1   8
BRANCH   5  19
HETATM   19  C   UNL     1      42.152 -10.861   4.365  1.00  0.00     0.108 A 
HETATM   20  N   UNL     1      43.366 -11.324   4.570  1.00  0.00    -0.229 NA
HETATM   21  C   UNL     1      43.531 -11.406   5.950  1.00  0.00     0.157 A 
HETATM   22  C   UNL     1      42.372 -10.969   6.564  1.00  0.00     0.126 A 
HETATM   23  N   UNL     1      41.512 -10.625   5.557  1.00  0.00    -0.352 N 
HETATM   24  H   UNL     1      40.570 -10.271   5.675  1.00  0.00     0.166 HD
BRANCH  21  25
HETATM   25  C   UNL     1      44.797 -11.910   6.591  1.00  0.00     0.436 C 
HETATM   26  F   UNL     1      45.908 -11.475   5.939  1.00  0.00    -0.165 F 
HETATM   27  F   UNL     1      44.907 -11.497   7.879  1.00  0.00    -0.165 F 
HETATM   28  F   UNL     1      44.851 -13.267   6.600  1.00  0.00    -0.165 F 
ENDBRANCH  21  25
ENDBRANCH   5  19
TORSDOF 4
ENDMDL
MODEL 7
REMARK VINA RESULT:      -7.6      4.482      5.387
REMARK  4 active torsions:
REMARK  status: ('A' for Active; 'I' for Inactive)
REMARK    1  A    between atoms: C_6  and  C_7 
REMARK    2  A    between atoms: C_7  and  N_8 
REMARK    3  A    between atoms: C_12  and  C_13 
REMARK    4  A    between atoms: C_15  and  C_16 
ROOT
HETATM    1  N   UNL     1      42.746 -13.858   3.945  1.00  0.00    -0.067 N 
HETATM    2  H   UNL     1      43.244 -14.301   4.725  1.00  0.00     0.280 HD
HETATM    3  C   UNL     1      43.468 -12.567   3.623  1.00  0.00     0.236 C 
HETATM    4  C   UNL     1      43.415 -11.628   4.822  1.00  0.00     0.040 C 
HETATM    5  C   UNL     1      41.991 -11.361   5.319  1.00  0.00     0.058 C 
HETATM    6  C   UNL     1      41.255 -12.684   5.555  1.00  0.00     0.040 C 
HETATM    7  C   UNL     1      41.315 -13.625   4.359  1.00  0.00     0.236 C 
ENDROOT
BRANCH   1   8
HETATM    8  C   UNL     1      42.807 -14.847   2.792  1.00  0.00     0.273 C 
BRANCH   8   9
HETATM    9  C   UNL     1      43.161 -16.243   3.226  1.00  0.00    -0.032 A 
HETATM   10  C   UNL     1      43.042 -17.311   2.324  1.00  0.00     0.017 A 
HETATM   11  C   UNL     1      43.436 -18.574   2.739  1.00  0.00    -0.035 A 
HETATM   12  C   UNL     1      43.953 -18.813   4.015  1.00  0.00     0.016 A 
HETATM   13  C   UNL     1      43.443 -19.847   1.957  1.00  0.00     0.055 C 
HETATM   14  N   UNL     1      44.348 -20.148   4.185  1.00  0.00    -0.287 NA
HETATM   15  C   UNL     1      44.068 -17.767   4.914  1.00  0.00     0.025 A 
HETATM   16  C   UNL     1      44.291 -20.730   5.514  1.00  0.00     0.116 C 
HETATM   17  C   UNL     1      43.672 -20.866   3.088  1.00  0.00     0.100 C 
HETATM   18  C   UNL     1      43.663 -16.484   4.524  1.00  0.00     0.011 A 
ENDBRANCH   8   9
ENDBRANCH   1   8
BRANCH   5  19
HETATM   19  C   UNL     1      41.244 -10.493   4.352  1.00  0.00     0.108 A 
HETATM   20  N   UNL     1      39.935 -10.386   4.269  1.00  0.00    -0.229 NA
HETATM   21  C   UNL     1      39.676  -9.499   3.228  1.00  0.00     0.157 A 
HETATM   22  C   UNL     1      40.879  -9.073   2.695  1.00  0.00     0.126 A 
HETATM   23  N   UNL     1      41.859  -9.703   3.412  1.00  0.00    -0.352 N 
HETATM   24  H   UNL     1      42.857  -9.607   3.266  1.00  0.00     0.166 HD
BRANCH  21  25
HETATM   25  C   UNL     1      38.280  -9.123   2.807  1.00  0.00     0.436 C 
HETATM   26  F   UNL     1      38.276  -8.134   1.874  1.00  0.00    -0.165 F 
HETATM   27  F   UNL     1      37.617 -10.178   2.267  1.00  0.00    -0.165 F 
HETATM   28  F   UNL     1      37.540  -8.680   3.855  1.00  0.00    -0.165 F 
ENDBRANCH  21  25
ENDBRANCH   5  19
TORSDOF 4
ENDMDL
MODEL 8
REMARK VINA RESULT:      -7.5      4.116      8.870
REMARK  4 active torsions:
REMARK  status: ('A' for Active; 'I' for Inactive)
REMARK    1  A    between atoms: C_6  and  C_7 
REMARK    2  A    between atoms: C_7  and  N_8 
REMARK    3  A    between atoms: C_12  and  C_13 
REMARK    4  A    between atoms: C_15  and  C_16 
ROOT
HETATM    1  N   UNL     1      42.560 -12.570   5.204  1.00  0.00    -0.067 N 
HETATM    2  H   UNL     1      41.786 -11.922   5.389  1.00  0.00     0.280 HD
HETATM    3  C   UNL     1      42.604 -12.805   3.709  1.00  0.00     0.236 C 
HETATM    4  C   UNL     1      41.307 -13.460   3.247  1.00  0.00     0.040 C 
HETATM    5  C   UNL     1      40.977 -14.750   4.005  1.00  0.00     0.058 C 
HETATM    6  C   UNL     1      41.023 -14.503   5.516  1.00  0.00     0.040 C 
HETATM    7  C   UNL     1      42.317 -13.842   5.977  1.00  0.00     0.236 C 
ENDROOT
BRANCH   1   8
HETATM    8  C   UNL     1      43.816 -11.880   5.709  1.00  0.00     0.273 C 
BRANCH   8   9
HETATM    9  C   UNL     1      43.577 -11.027   6.925  1.00  0.00    -0.032 A 
HETATM   10  C   UNL     1      44.486 -11.058   7.994  1.00  0.00     0.017 A 
HETATM   11  C   UNL     1      44.267 -10.214   9.072  1.00  0.00    -0.035 A 
HETATM   12  C   UNL     1      43.183  -9.333   9.122  1.00  0.00     0.016 A 
HETATM   13  C   UNL     1      45.104 -10.036  10.296  1.00  0.00     0.055 C 
HETATM   14  N   UNL     1      43.205  -8.531  10.272  1.00  0.00    -0.287 NA
HETATM   15  C   UNL     1      42.279  -9.300   8.075  1.00  0.00     0.025 A 
HETATM   16  C   UNL     1      41.945  -8.061  10.822  1.00  0.00     0.116 C 
HETATM   17  C   UNL     1      44.136  -9.228  11.179  1.00  0.00     0.100 C 
HETATM   18  C   UNL     1      42.469 -10.154   6.981  1.00  0.00     0.011 A 
ENDBRANCH   8   9
ENDBRANCH   1   8
BRANCH   5  19
HETATM   19  C   UNL     1      41.910 -15.853   3.608  1.00  0.00     0.108 A 
HETATM   20  N   UNL     1      42.385 -16.782   4.410  1.00  0.00    -0.229 NA
HETATM   21  C   UNL     1      43.225 -17.579   3.638  1.00  0.00     0.157 A 
HETATM   22  C   UNL     1      43.230 -17.097   2.341  1.00  0.00     0.126 A 
HETATM   23  N   UNL     1      42.397 -16.012   2.334  1.00  0.00    -0.352 N 
HETATM   24  H   UNL     1      42.188 -15.429   1.532  1.00  0.00     0.166 HD
BRANCH  21  25
HETATM   25  C   UNL     1      43.978 -18.755   4.202  1.00  0.00     0.436 C 
HETATM   26  F   UNL     1      45.318 -18.530   4.249  1.00  0.00    -0.165 F 
HETATM   27  F   UNL     1      43.581 -19.045   5.468  1.00  0.00    -0.165 F 
HETATM   28  F   UNL     1      43.792 -19.876   3.459  1.00  0.00    -0.165 F 
ENDBRANCH  21  25
ENDBRANCH   5  19
TORSDOF 4
ENDMDL
MODEL 9
REMARK VINA RESULT:      -7.5      3.940      7.814
REMARK  4 active torsions:
REMARK  status: ('A' for Active; 'I' for Inactive)
REMARK    1  A    between atoms: C_6  and  C_7 
REMARK    2  A    between atoms: C_7  and  N_8 
REMARK    3  A    between atoms: C_12  and  C_13 
REMARK    4  A    between atoms: C_15  and  C_16 
ROOT
HETATM    1  N   UNL     1      41.264 -12.580   1.831  1.00  0.00    -0.067 N 
HETATM    2  H   UNL     1      40.676 -12.385   1.014  1.00  0.00     0.280 HD
HETATM    3  C   UNL     1      42.103 -13.796   1.504  1.00  0.00     0.236 C 
HETATM    4  C   UNL     1      41.200 -15.002   1.263  1.00  0.00     0.040 C 
HETATM    5  C   UNL     1      40.241 -15.281   2.425  1.00  0.00     0.058 C 
HETATM    6  C   UNL     1      39.467 -14.010   2.790  1.00  0.00     0.040 C 
HETATM    7  C   UNL     1      40.369 -12.805   3.024  1.00  0.00     0.236 C 
ENDROOT
BRANCH   1   8
HETATM    8  C   UNL     1      42.117 -11.340   2.040  1.00  0.00     0.273 C 
BRANCH   8   9
HETATM    9  C   UNL     1      42.393 -11.045   3.490  1.00  0.00    -0.032 A 
HETATM   10  C   UNL     1      43.411 -11.736   4.166  1.00  0.00     0.017 A 
HETATM   11  C   UNL     1      43.678 -11.395   5.483  1.00  0.00    -0.035 A 
HETATM   12  C   UNL     1      42.977 -10.386   6.150  1.00  0.00     0.016 A 
HETATM   13  C   UNL     1      44.726 -11.951   6.390  1.00  0.00     0.055 C 
HETATM   14  N   UNL     1      43.467 -10.170   7.446  1.00  0.00    -0.287 NA
HETATM   15  C   UNL     1      41.968  -9.704   5.492  1.00  0.00     0.025 A 
HETATM   16  C   UNL     1      42.552  -9.689   8.468  1.00  0.00     0.116 C 
HETATM   17  C   UNL     1      44.254 -11.382   7.741  1.00  0.00     0.100 C 
HETATM   18  C   UNL     1      41.669 -10.040   4.166  1.00  0.00     0.011 A 
ENDBRANCH   8   9
ENDBRANCH   1   8
BRANCH   5  19
HETATM   19  C   UNL     1      40.983 -15.821   3.609  1.00  0.00     0.108 A 
HETATM   20  N   UNL     1      42.179 -16.369   3.580  1.00  0.00    -0.229 NA
HETATM   21  C   UNL     1      42.471 -16.751   4.887  1.00  0.00     0.157 A 
HETATM   22  C   UNL     1      41.407 -16.404   5.701  1.00  0.00     0.126 A 
HETATM   23  N   UNL     1      40.478 -15.818   4.886  1.00  0.00    -0.352 N 
HETATM   24  H   UNL     1      39.577 -15.456   5.176  1.00  0.00     0.166 HD
BRANCH  21  25
HETATM   25  C   UNL     1      43.758 -17.433   5.268  1.00  0.00     0.436 C 
HETATM   26  F   UNL     1      44.386 -17.978   4.192  1.00  0.00    -0.165 F 
HETATM   27  F   UNL     1      44.634 -16.570   5.842  1.00  0.00    -0.165 F 
HETATM   28  F   UNL     1      43.550 -18.440   6.155  1.00  0.00    -0.165 F 
ENDBRANCH  21  25
ENDBRANCH   5  19
TORSDOF 4
ENDMDL
MODEL 10
REMARK VINA RESULT:      -7.4      1.275      2.153
REMARK  4 active torsions:
REMARK  status: ('A' for Active; 'I' for Inactive)
REMARK    1  A    between atoms: C_6  and  C_7 
REMARK    2  A    between atoms: C_7  and  N_8 
REMARK    3  A    between atoms: C_12  and  C_13 
REMARK    4  A    between atoms: C_15  and  C_16 
ROOT
HETATM    1  N   UNL     1      41.012 -12.417   5.775  1.00  0.00    -0.067 N 
HETATM    2  H   UNL     1      40.954 -12.327   4.755  1.00  0.00     0.280 HD
HETATM    3  C   UNL     1      40.182 -11.301   6.373  1.00  0.00     0.236 C 
HETATM    4  C   UNL     1      40.763  -9.949   5.975  1.00  0.00     0.040 C 
HETATM    5  C   UNL     1      42.244  -9.797   6.335  1.00  0.00     0.058 C 
HETATM    6  C   UNL     1      43.046 -10.982   5.790  1.00  0.00     0.040 C 
HETATM    7  C   UNL     1      42.462 -12.334   6.183  1.00  0.00     0.236 C 
ENDROOT
BRANCH   1   8
HETATM    8  C   UNL     1      40.449 -13.788   6.109  1.00  0.00     0.273 C 
BRANCH   8   9
HETATM    9  C   UNL     1      41.238 -14.918   5.505  1.00  0.00    -0.032 A 
HETATM   10  C   UNL     1      41.939 -15.807   6.334  1.00  0.00     0.017 A 
HETATM   11  C   UNL     1      42.604 -16.872   5.746  1.00  0.00    -0.035 A 
HETATM   12  C   UNL     1      42.590 -17.092   4.366  1.00  0.00     0.016 A 
HETATM   13  C   UNL     1      43.377 -17.964   6.411  1.00  0.00     0.055 C 
HETATM   14  N   UNL     1      43.269 -18.266   4.009  1.00  0.00    -0.287 NA
HETATM   15  C   UNL     1      41.906 -16.216   3.541  1.00  0.00     0.025 A 
HETATM   16  C   UNL     1      43.905 -18.337   2.705  1.00  0.00     0.116 C 
HETATM   17  C   UNL     1      44.089 -18.581   5.194  1.00  0.00     0.100 C 
HETATM   18  C   UNL     1      41.238 -15.124   4.108  1.00  0.00     0.011 A 
ENDBRANCH   8   9
ENDBRANCH   1   8
BRANCH   5  19
HETATM   19  C   UNL     1      42.419  -9.661   7.817  1.00  0.00     0.108 A 
HETATM   20  N   UNL     1      43.558  -9.766   8.468  1.00  0.00    -0.229 NA
HETATM   21  C   UNL     1      43.260  -9.597   9.818  1.00  0.00     0.157 A 
HETATM   22  C   UNL     1      41.900  -9.379   9.950  1.00  0.00     0.126 A 
HETATM   23  N   UNL     1      41.382  -9.419   8.685  1.00  0.00    -0.352 N 
HETATM   24  H   UNL     1      40.407  -9.299   8.438  1.00  0.00     0.166 HD
BRANCH  21  25
HETATM   25  C   UNL     1      44.306  -9.664  10.898  1.00  0.00     0.436 C 
HETATM   26  F   UNL     1      44.090  -8.747  11.878  1.00  0.00    -0.165 F 
HETATM   27  F   UNL     1      44.335 -10.882  11.496  1.00  0.00    -0.165 F 
HETATM   28  F   UNL     1      45.551  -9.431  10.407  1.00  0.00    -0.165 F 
ENDBRANCH  21  25
ENDBRANCH   5  19
TORSDOF 4
ENDMDL
