MODEL 1
REMARK VINA RESULT:      -7.7      0.000      0.000
REMARK  5 active torsions:
REMARK  status: ('A' for Active; 'I' for Inactive)
REMARK    1  A    between atoms: C_6  and  N_7 
REMARK       I    between atoms: N_7  and  C_8 
REMARK    2  A    between atoms: C_8  and  C_9 
REMARK    3  A    between atoms: C_9  and  O_10 
REMARK    4  A    between atoms: O_10  and  C_11 
REMARK    5  A    between atoms: C_18  and  C_19 
ROOT
HETATM    1  C   UNL     1      45.062 -11.390   5.443  1.00  0.00     0.073 C 
HETATM    2  C   UNL     1      44.110 -12.370   6.024  1.00  0.00     0.065 A 
HETATM    3  N   UNL     1      44.114 -12.605   7.342  1.00  0.00    -0.177 NA
HETATM    4  N   UNL     1      43.116 -13.487   7.520  1.00  0.00    -0.262 N 
HETATM    5  H   UNL     1      42.937 -13.829   8.461  1.00  0.00     0.191 HD
HETATM    6  C   UNL     1      42.474 -13.839   6.361  1.00  0.00     0.137 A 
HETATM    7  C   UNL     1      43.107 -13.127   5.360  1.00  0.00     0.046 A 
ENDROOT
BRANCH   6   8
HETATM    8  N   UNL     1      41.460 -14.769   6.259  1.00  0.00    -0.309 N 
HETATM    9  C   UNL     1      41.555 -16.087   5.899  1.00  0.00     0.247 C 
HETATM   10  O   UNL     1      40.524 -16.711   5.634  1.00  0.00    -0.271 OA
HETATM   11  H   UNL     1      40.521 -14.476   6.507  1.00  0.00     0.170 HD
BRANCH   9  12
HETATM   12  C   UNL     1      42.899 -16.797   6.018  1.00  0.00     0.278 C 
BRANCH  12  13
HETATM   13  O   UNL     1      43.680 -16.718   4.831  1.00  0.00    -0.342 OA
BRANCH  13  14
HETATM   14  C   UNL     1      43.656 -17.919   4.166  1.00  0.00     0.069 A 
HETATM   15  C   UNL     1      44.030 -19.055   4.880  1.00  0.00     0.037 A 
HETATM   16  C   UNL     1      44.057 -20.295   4.239  1.00  0.00     0.003 A 
HETATM   17  C   UNL     1      43.697 -20.396   2.895  1.00  0.00     0.000 A 
HETATM   18  C   UNL     1      43.287 -19.262   2.195  1.00  0.00     0.003 A 
HETATM   19  C   UNL     1      43.253 -18.023   2.833  1.00  0.00     0.037 A 
ENDBRANCH  13  14
ENDBRANCH  12  13
ENDBRANCH   9  12
ENDBRANCH   6   8
BRANCH   7  20
HETATM   20  C   UNL     1      42.607 -13.040   4.003  1.00  0.00    -0.020 A 
HETATM   21  C   UNL     1      41.652 -12.059   3.697  1.00  0.00     0.014 A 
HETATM   22  C   UNL     1      41.071 -12.011   2.429  1.00  0.00     0.020 A 
HETATM   23  C   UNL     1      41.450 -12.944   1.465  1.00  0.00     0.011 A 
HETATM   24 BR   UNL     1      40.635 -12.905  -0.240  1.00  0.00    -0.051 Br
HETATM   25  C   UNL     1      42.413 -13.912   1.753  1.00  0.00     0.020 A 
HETATM   26  C   UNL     1      42.995 -13.959   3.023  1.00  0.00     0.014 A 
ENDBRANCH   7  20
TORSDOF 5
ENDMDL
MODEL 2
REMARK VINA RESULT:      -7.6      3.435      5.790
REMARK  5 active torsions:
REMARK  status: ('A' for Active; 'I' for Inactive)
REMARK    1  A    between atoms: C_6  and  N_7 
REMARK       I    between atoms: N_7  and  C_8 
REMARK    2  A    between atoms: C_8  and  C_9 
REMARK    3  A    between atoms: C_9  and  O_10 
REMARK    4  A    between atoms: O_10  and  C_11 
REMARK    5  A    between atoms: C_18  and  C_19 
ROOT
HETATM    1  C   UNL     1      39.482 -14.621  -0.948  1.00  0.00     0.073 C 
HETATM    2  C   UNL     1      40.085 -13.499  -0.186  1.00  0.00     0.065 A 
HETATM    3  N   UNL     1      39.656 -12.247  -0.390  1.00  0.00    -0.177 NA
HETATM    4  N   UNL     1      40.368 -11.512   0.481  1.00  0.00    -0.262 N 
HETATM    5  H   UNL     1      40.219 -10.506   0.497  1.00  0.00     0.191 HD
HETATM    6  C   UNL     1      41.250 -12.243   1.232  1.00  0.00     0.137 A 
HETATM    7  C   UNL     1      41.093 -13.551   0.813  1.00  0.00     0.046 A 
ENDROOT
BRANCH   6   8
HETATM    8  N   UNL     1      42.139 -11.726   2.151  1.00  0.00    -0.309 N 
HETATM    9  C   UNL     1      41.930 -11.476   3.482  1.00  0.00     0.247 C 
HETATM   10  O   UNL     1      42.754 -10.798   4.101  1.00  0.00    -0.271 OA
HETATM   11  H   UNL     1      43.083 -11.528   1.839  1.00  0.00     0.170 HD
BRANCH   9  12
HETATM   12  C   UNL     1      40.795 -12.193   4.205  1.00  0.00     0.278 C 
BRANCH  12  13
HETATM   13  O   UNL     1      41.054 -12.394   5.590  1.00  0.00    -0.342 OA
BRANCH  13  14
HETATM   14  C   UNL     1      41.381 -13.706   5.826  1.00  0.00     0.069 A 
HETATM   15  C   UNL     1      40.356 -14.565   6.215  1.00  0.00     0.037 A 
HETATM   16  C   UNL     1      40.644 -15.899   6.502  1.00  0.00     0.003 A 
HETATM   17  C   UNL     1      41.950 -16.374   6.384  1.00  0.00     0.000 A 
HETATM   18  C   UNL     1      42.967 -15.521   5.956  1.00  0.00     0.003 A 
HETATM   19  C   UNL     1      42.682 -14.188   5.665  1.00  0.00     0.037 A 
ENDBRANCH  13  14
ENDBRANCH  12  13
ENDBRANCH   9  12
ENDBRANCH   6   8
BRANCH   7  20
HETATM   20  C   UNL     1      41.683 -14.684   1.496  1.00  0.00    -0.020 A 
HETATM   21  C   UNL     1      43.056 -14.928   1.339  1.00  0.00     0.014 A 
HETATM   22  C   UNL     1      43.639 -16.066   1.897  1.00  0.00     0.020 A 
HETATM   23  C   UNL     1      42.848 -16.959   2.617  1.00  0.00     0.011 A 
HETATM   24 BR   UNL     1      43.629 -18.522   3.340  1.00  0.00    -0.051 Br
HETATM   25  C   UNL     1      41.485 -16.717   2.796  1.00  0.00     0.020 A 
HETATM   26  C   UNL     1      40.902 -15.575   2.238  1.00  0.00     0.014 A 
ENDBRANCH   7  20
TORSDOF 5
ENDMDL
MODEL 3
REMARK VINA RESULT:      -7.5      2.718      3.986
REMARK  5 active torsions:
REMARK  status: ('A' for Active; 'I' for Inactive)
REMARK    1  A    between atoms: C_6  and  N_7 
REMARK       I    between atoms: N_7  and  C_8 
REMARK    2  A    between atoms: C_8  and  C_9 
REMARK    3  A    between atoms: C_9  and  O_10 
REMARK    4  A    between atoms: O_10  and  C_11 
REMARK    5  A    between atoms: C_18  and  C_19 
ROOT
HETATM    1  C   UNL     1      42.294 -11.033   2.714  1.00  0.00     0.073 C 
HETATM    2  C   UNL     1      42.020 -12.326   3.389  1.00  0.00     0.065 A 
HETATM    3  N   UNL     1      41.478 -13.338   2.699  1.00  0.00    -0.177 NA
HETATM    4  N   UNL     1      41.416 -14.343   3.589  1.00  0.00    -0.262 N 
HETATM    5  H   UNL     1      41.017 -15.228   3.287  1.00  0.00     0.191 HD
HETATM    6  C   UNL     1      41.887 -14.013   4.832  1.00  0.00     0.137 A 
HETATM    7  C   UNL     1      42.286 -12.692   4.735  1.00  0.00     0.046 A 
ENDROOT
BRANCH   6   8
HETATM    8  N   UNL     1      41.878 -14.839   5.937  1.00  0.00    -0.309 N 
HETATM    9  C   UNL     1      42.550 -16.020   6.114  1.00  0.00     0.247 C 
HETATM   10  O   UNL     1      42.247 -16.744   7.066  1.00  0.00    -0.271 OA
HETATM   11  H   UNL     1      41.344 -14.544   6.746  1.00  0.00     0.170 HD
BRANCH   9  12
HETATM   12  C   UNL     1      43.771 -16.320   5.251  1.00  0.00     0.278 C 
BRANCH  12  13
HETATM   13  O   UNL     1      43.441 -16.617   3.899  1.00  0.00    -0.342 OA
BRANCH  13  14
HETATM   14  C   UNL     1      43.567 -17.964   3.664  1.00  0.00     0.069 A 
HETATM   15  C   UNL     1      43.152 -18.442   2.424  1.00  0.00     0.037 A 
HETATM   16  C   UNL     1      43.225 -19.808   2.151  1.00  0.00     0.003 A 
HETATM   17  C   UNL     1      43.727 -20.688   3.111  1.00  0.00     0.000 A 
HETATM   18  C   UNL     1      44.178 -20.200   4.337  1.00  0.00     0.003 A 
HETATM   19  C   UNL     1      44.110 -18.835   4.612  1.00  0.00     0.037 A 
ENDBRANCH  13  14
ENDBRANCH  12  13
ENDBRANCH   9  12
ENDBRANCH   6   8
BRANCH   7  20
HETATM   20  C   UNL     1      43.041 -12.010   5.765  1.00  0.00    -0.020 A 
HETATM   21  C   UNL     1      42.447 -10.931   6.437  1.00  0.00     0.014 A 
HETATM   22  C   UNL     1      43.179 -10.185   7.361  1.00  0.00     0.020 A 
HETATM   23  C   UNL     1      44.507 -10.522   7.617  1.00  0.00     0.011 A 
HETATM   24 BR   UNL     1      45.512  -9.488   8.839  1.00  0.00    -0.051 Br
HETATM   25  C   UNL     1      45.103 -11.605   6.969  1.00  0.00     0.020 A 
HETATM   26  C   UNL     1      44.368 -12.352   6.044  1.00  0.00     0.014 A 
ENDBRANCH   7  20
TORSDOF 5
ENDMDL
MODEL 4
REMARK VINA RESULT:      -7.5      3.003      4.878
REMARK  5 active torsions:
REMARK  status: ('A' for Active; 'I' for Inactive)
REMARK    1  A    between atoms: C_6  and  N_7 
REMARK       I    between atoms: N_7  and  C_8 
REMARK    2  A    between atoms: C_8  and  C_9 
REMARK    3  A    between atoms: C_9  and  O_10 
REMARK    4  A    between atoms: O_10  and  C_11 
REMARK    5  A    between atoms: C_18  and  C_19 
ROOT
HETATM    1  C   UNL     1      39.534 -12.444   1.237  1.00  0.00     0.073 C 
HETATM    2  C   UNL     1      40.680 -11.812   1.937  1.00  0.00     0.065 A 
HETATM    3  N   UNL     1      40.656 -10.501   2.208  1.00  0.00    -0.177 NA
HETATM    4  N   UNL     1      41.804 -10.285   2.874  1.00  0.00    -0.262 N 
HETATM    5  H   UNL     1      42.013  -9.337   3.176  1.00  0.00     0.191 HD
HETATM    6  C   UNL     1      42.573 -11.408   3.033  1.00  0.00     0.137 A 
HETATM    7  C   UNL     1      41.865 -12.427   2.423  1.00  0.00     0.046 A 
ENDROOT
BRANCH   6   8
HETATM    8  N   UNL     1      43.819 -11.448   3.623  1.00  0.00    -0.309 N 
HETATM    9  C   UNL     1      44.122 -11.623   4.947  1.00  0.00     0.247 C 
HETATM   10  O   UNL     1      45.272 -11.400   5.333  1.00  0.00    -0.271 OA
HETATM   11  H   UNL     1      44.632 -11.373   3.021  1.00  0.00     0.170 HD
BRANCH   9  12
HETATM   12  C   UNL     1      43.091 -12.268   5.868  1.00  0.00     0.278 C 
BRANCH  12  13
HETATM   13  O   UNL     1      43.678 -12.992   6.944  1.00  0.00    -0.342 OA
BRANCH  13  14
HETATM   14  C   UNL     1      43.494 -14.341   6.762  1.00  0.00     0.069 A 
HETATM   15  C   UNL     1      42.266 -14.878   7.140  1.00  0.00     0.037 A 
HETATM   16  C   UNL     1      42.042 -16.249   7.010  1.00  0.00     0.003 A 
HETATM   17  C   UNL     1      43.040 -17.075   6.490  1.00  0.00     0.000 A 
HETATM   18  C   UNL     1      44.254 -16.527   6.077  1.00  0.00     0.003 A 
HETATM   19  C   UNL     1      44.479 -15.157   6.201  1.00  0.00     0.037 A 
ENDBRANCH  13  14
ENDBRANCH  12  13
ENDBRANCH   9  12
ENDBRANCH   6   8
BRANCH   7  20
HETATM   20  C   UNL     1      42.218 -13.827   2.543  1.00  0.00    -0.020 A 
HETATM   21  C   UNL     1      43.259 -14.331   1.749  1.00  0.00     0.014 A 
HETATM   22  C   UNL     1      43.559 -15.694   1.762  1.00  0.00     0.020 A 
HETATM   23  C   UNL     1      42.820 -16.552   2.574  1.00  0.00     0.011 A 
HETATM   24 BR   UNL     1      43.199 -18.404   2.562  1.00  0.00    -0.051 Br
HETATM   25  C   UNL     1      41.795 -16.058   3.382  1.00  0.00     0.020 A 
HETATM   26  C   UNL     1      41.496 -14.692   3.369  1.00  0.00     0.014 A 
ENDBRANCH   7  20
TORSDOF 5
ENDMDL
MODEL 5
REMARK VINA RESULT:      -7.5      2.446      5.673
REMARK  5 active torsions:
REMARK  status: ('A' for Active; 'I' for Inactive)
REMARK    1  A    between atoms: C_6  and  N_7 
REMARK       I    between atoms: N_7  and  C_8 
REMARK    2  A    between atoms: C_8  and  C_9 
REMARK    3  A    between atoms: C_9  and  O_10 
REMARK    4  A    between atoms: O_10  and  C_11 
REMARK    5  A    between atoms: C_18  and  C_19 
ROOT
HETATM    1  C   UNL     1      43.325 -17.703   2.692  1.00  0.00     0.073 C 
HETATM    2  C   UNL     1      42.578 -16.984   3.753  1.00  0.00     0.065 A 
HETATM    3  N   UNL     1      42.831 -17.245   5.042  1.00  0.00    -0.177 NA
HETATM    4  N   UNL     1      42.028 -16.399   5.710  1.00  0.00    -0.262 N 
HETATM    5  H   UNL     1      42.039 -16.428   6.727  1.00  0.00     0.191 HD
HETATM    6  C   UNL     1      41.258 -15.609   4.899  1.00  0.00     0.137 A 
HETATM    7  C   UNL     1      41.591 -15.972   3.608  1.00  0.00     0.046 A 
ENDROOT
BRANCH   6   8
HETATM    8  N   UNL     1      40.310 -14.704   5.330  1.00  0.00    -0.309 N 
HETATM    9  C   UNL     1      40.512 -13.467   5.883  1.00  0.00     0.247 C 
HETATM   10  O   UNL     1      39.565 -12.890   6.424  1.00  0.00    -0.271 OA
HETATM   11  H   UNL     1      39.333 -14.943   5.204  1.00  0.00     0.170 HD
BRANCH   9  12
HETATM   12  C   UNL     1      41.841 -12.755   5.652  1.00  0.00     0.278 C 
BRANCH  12  13
HETATM   13  O   UNL     1      41.958 -11.539   6.382  1.00  0.00    -0.342 OA
BRANCH  13  14
HETATM   14  C   UNL     1      43.272 -11.306   6.707  1.00  0.00     0.069 A 
HETATM   15  C   UNL     1      43.528 -10.589   7.873  1.00  0.00     0.037 A 
HETATM   16  C   UNL     1      44.845 -10.294   8.228  1.00  0.00     0.003 A 
HETATM   17  C   UNL     1      45.900 -10.731   7.426  1.00  0.00     0.000 A 
HETATM   18  C   UNL     1      45.641 -11.482   6.280  1.00  0.00     0.003 A 
HETATM   19  C   UNL     1      44.327 -11.782   5.925  1.00  0.00     0.037 A 
ENDBRANCH  13  14
ENDBRANCH  12  13
ENDBRANCH   9  12
ENDBRANCH   6   8
BRANCH   7  20
HETATM   20  C   UNL     1      41.164 -15.235   2.436  1.00  0.00    -0.020 A 
HETATM   21  C   UNL     1      40.221 -15.819   1.578  1.00  0.00     0.014 A 
HETATM   22  C   UNL     1      39.862 -15.185   0.387  1.00  0.00     0.020 A 
HETATM   23  C   UNL     1      40.447 -13.964   0.058  1.00  0.00     0.011 A 
HETATM   24 BR   UNL     1      39.992 -13.123  -1.573  1.00  0.00    -0.051 Br
HETATM   25  C   UNL     1      41.372 -13.365   0.914  1.00  0.00     0.020 A 
HETATM   26  C   UNL     1      41.729 -14.000   2.107  1.00  0.00     0.014 A 
ENDBRANCH   7  20
TORSDOF 5
ENDMDL
MODEL 6
REMARK VINA RESULT:      -7.3      2.847      4.606
REMARK  5 active torsions:
REMARK  status: ('A' for Active; 'I' for Inactive)
REMARK    1  A    between atoms: C_6  and  N_7 
REMARK       I    between atoms: N_7  and  C_8 
REMARK    2  A    between atoms: C_8  and  C_9 
REMARK    3  A    between atoms: C_9  and  O_10 
REMARK    4  A    between atoms: O_10  and  C_11 
REMARK    5  A    between atoms: C_18  and  C_19 
ROOT
HETATM    1  C   UNL     1      40.080 -14.499  -0.758  1.00  0.00     0.073 C 
HETATM    2  C   UNL     1      39.888 -14.551   0.713  1.00  0.00     0.065 A 
HETATM    3  N   UNL     1      39.800 -15.735   1.334  1.00  0.00    -0.177 NA
HETATM    4  N   UNL     1      39.682 -15.413   2.633  1.00  0.00    -0.262 N 
HETATM    5  H   UNL     1      39.584 -16.168   3.308  1.00  0.00     0.191 HD
HETATM    6  C   UNL     1      39.679 -14.064   2.873  1.00  0.00     0.137 A 
HETATM    7  C   UNL     1      39.806 -13.470   1.631  1.00  0.00     0.046 A 
ENDROOT
BRANCH   6   8
HETATM    8  N   UNL     1      39.509 -13.471   4.107  1.00  0.00    -0.309 N 
HETATM    9  C   UNL     1      40.465 -13.185   5.046  1.00  0.00     0.247 C 
HETATM   10  O   UNL     1      40.110 -12.869   6.184  1.00  0.00    -0.271 OA
HETATM   11  H   UNL     1      38.576 -13.169   4.364  1.00  0.00     0.170 HD
BRANCH   9  12
HETATM   12  C   UNL     1      41.924 -13.078   4.615  1.00  0.00     0.278 C 
BRANCH  12  13
HETATM   13  O   UNL     1      42.708 -14.197   5.016  1.00  0.00    -0.342 OA
BRANCH  13  14
HETATM   14  C   UNL     1      42.890 -15.051   3.957  1.00  0.00     0.069 A 
HETATM   15  C   UNL     1      42.716 -16.413   4.193  1.00  0.00     0.037 A 
HETATM   16  C   UNL     1      42.926 -17.326   3.159  1.00  0.00     0.003 A 
HETATM   17  C   UNL     1      43.292 -16.874   1.891  1.00  0.00     0.000 A 
HETATM   18  C   UNL     1      43.427 -15.507   1.648  1.00  0.00     0.003 A 
HETATM   19  C   UNL     1      43.214 -14.592   2.679  1.00  0.00     0.037 A 
ENDBRANCH  13  14
ENDBRANCH  12  13
ENDBRANCH   9  12
ENDBRANCH   6   8
BRANCH   7  20
HETATM   20  C   UNL     1      40.060 -12.056   1.446  1.00  0.00    -0.020 A 
HETATM   21  C   UNL     1      38.967 -11.184   1.328  1.00  0.00     0.014 A 
HETATM   22  C   UNL     1      39.171  -9.832   1.046  1.00  0.00     0.020 A 
HETATM   23  C   UNL     1      40.469  -9.353   0.886  1.00  0.00     0.011 A 
HETATM   24 BR   UNL     1      40.745  -7.531   0.465  1.00  0.00    -0.051 Br
HETATM   25  C   UNL     1      41.564 -10.208   1.020  1.00  0.00     0.020 A 
HETATM   26  C   UNL     1      41.359 -11.561   1.304  1.00  0.00     0.014 A 
ENDBRANCH   7  20
TORSDOF 5
ENDMDL
MODEL 7
REMARK VINA RESULT:      -7.3      2.353      5.422
REMARK  5 active torsions:
REMARK  status: ('A' for Active; 'I' for Inactive)
REMARK    1  A    between atoms: C_6  and  N_7 
REMARK       I    between atoms: N_7  and  C_8 
REMARK    2  A    between atoms: C_8  and  C_9 
REMARK    3  A    between atoms: C_9  and  O_10 
REMARK    4  A    between atoms: O_10  and  C_11 
REMARK    5  A    between atoms: C_18  and  C_19 
ROOT
HETATM    1  C   UNL     1      43.984 -18.154   2.858  1.00  0.00     0.073 C 
HETATM    2  C   UNL     1      43.167 -17.581   3.956  1.00  0.00     0.065 A 
HETATM    3  N   UNL     1      43.450 -17.886   5.229  1.00  0.00    -0.177 NA
HETATM    4  N   UNL     1      42.564 -17.170   5.942  1.00  0.00    -0.262 N 
HETATM    5  H   UNL     1      42.580 -17.256   6.955  1.00  0.00     0.191 HD
HETATM    6  C   UNL     1      41.710 -16.422   5.174  1.00  0.00     0.137 A 
HETATM    7  C   UNL     1      42.077 -16.674   3.865  1.00  0.00     0.046 A 
ENDROOT
BRANCH   6   8
HETATM    8  N   UNL     1      40.673 -15.650   5.652  1.00  0.00    -0.309 N 
HETATM    9  C   UNL     1      40.707 -14.338   6.046  1.00  0.00     0.247 C 
HETATM   10  O   UNL     1      39.746 -13.873   6.664  1.00  0.00    -0.271 OA
HETATM   11  H   UNL     1      39.751 -16.069   5.698  1.00  0.00     0.170 HD
BRANCH   9  12
HETATM   12  C   UNL     1      41.835 -13.440   5.550  1.00  0.00     0.278 C 
BRANCH  12  13
HETATM   13  O   UNL     1      41.463 -12.069   5.466  1.00  0.00    -0.342 OA
BRANCH  13  14
HETATM   14  C   UNL     1      41.184 -11.732   4.165  1.00  0.00     0.069 A 
HETATM   15  C   UNL     1      42.220 -11.196   3.404  1.00  0.00     0.037 A 
HETATM   16  C   UNL     1      41.978 -10.803   2.087  1.00  0.00     0.003 A 
HETATM   17  C   UNL     1      40.708 -10.963   1.531  1.00  0.00     0.000 A 
HETATM   18  C   UNL     1      39.683 -11.536   2.284  1.00  0.00     0.003 A 
HETATM   19  C   UNL     1      39.923 -11.933   3.599  1.00  0.00     0.037 A 
ENDBRANCH  13  14
ENDBRANCH  12  13
ENDBRANCH   9  12
ENDBRANCH   6   8
BRANCH   7  20
HETATM   20  C   UNL     1      41.571 -15.922   2.736  1.00  0.00    -0.020 A 
HETATM   21  C   UNL     1      40.326 -16.274   2.193  1.00  0.00     0.014 A 
HETATM   22  C   UNL     1      39.852 -15.641   1.043  1.00  0.00     0.020 A 
HETATM   23  C   UNL     1      40.624 -14.651   0.438  1.00  0.00     0.011 A 
HETATM   24 BR   UNL     1      40.003 -13.821  -1.143  1.00  0.00    -0.051 Br
HETATM   25  C   UNL     1      41.855 -14.279   0.980  1.00  0.00     0.020 A 
HETATM   26  C   UNL     1      42.328 -14.913   2.133  1.00  0.00     0.014 A 
ENDBRANCH   7  20
TORSDOF 5
ENDMDL
MODEL 8
REMARK VINA RESULT:      -7.2      3.077      5.985
REMARK  5 active torsions:
REMARK  status: ('A' for Active; 'I' for Inactive)
REMARK    1  A    between atoms: C_6  and  N_7 
REMARK       I    between atoms: N_7  and  C_8 
REMARK    2  A    between atoms: C_8  and  C_9 
REMARK    3  A    between atoms: C_9  and  O_10 
REMARK    4  A    between atoms: O_10  and  C_11 
REMARK    5  A    between atoms: C_18  and  C_19 
ROOT
HETATM    1  C   UNL     1      43.629 -15.106   1.243  1.00  0.00     0.073 C 
HETATM    2  C   UNL     1      42.436 -15.103   2.126  1.00  0.00     0.065 A 
HETATM    3  N   UNL     1      41.436 -14.242   1.895  1.00  0.00    -0.177 NA
HETATM    4  N   UNL     1      40.523 -14.544   2.833  1.00  0.00    -0.262 N 
HETATM    5  H   UNL     1      39.665 -13.998   2.863  1.00  0.00     0.191 HD
HETATM    6  C   UNL     1      40.902 -15.561   3.669  1.00  0.00     0.137 A 
HETATM    7  C   UNL     1      42.156 -15.946   3.234  1.00  0.00     0.046 A 
ENDROOT
BRANCH   6   8
HETATM    8  N   UNL     1      40.177 -16.021   4.749  1.00  0.00    -0.309 N 
HETATM    9  C   UNL     1      40.280 -15.639   6.061  1.00  0.00     0.247 C 
HETATM   10  O   UNL     1      39.720 -16.317   6.927  1.00  0.00    -0.271 OA
HETATM   11  H   UNL     1      39.447 -16.703   4.575  1.00  0.00     0.170 HD
BRANCH   9  12
HETATM   12  C   UNL     1      40.915 -14.295   6.398  1.00  0.00     0.278 C 
BRANCH  12  13
HETATM   13  O   UNL     1      42.247 -14.413   6.887  1.00  0.00    -0.342 OA
BRANCH  13  14
HETATM   14  C   UNL     1      43.030 -13.407   6.377  1.00  0.00     0.069 A 
HETATM   15  C   UNL     1      44.004 -12.865   7.212  1.00  0.00     0.037 A 
HETATM   16  C   UNL     1      44.801 -11.815   6.753  1.00  0.00     0.003 A 
HETATM   17  C   UNL     1      44.632 -11.323   5.458  1.00  0.00     0.000 A 
HETATM   18  C   UNL     1      43.681 -11.894   4.612  1.00  0.00     0.003 A 
HETATM   19  C   UNL     1      42.887 -12.946   5.066  1.00  0.00     0.037 A 
ENDBRANCH  13  14
ENDBRANCH  12  13
ENDBRANCH   9  12
ENDBRANCH   6   8
BRANCH   7  20
HETATM   20  C   UNL     1      42.834 -17.135   3.707  1.00  0.00    -0.020 A 
HETATM   21  C   UNL     1      43.032 -18.200   2.815  1.00  0.00     0.014 A 
HETATM   22  C   UNL     1      43.588 -19.400   3.260  1.00  0.00     0.020 A 
HETATM   23  C   UNL     1      43.951 -19.533   4.599  1.00  0.00     0.011 A 
HETATM   24 BR   UNL     1      44.668 -21.171   5.212  1.00  0.00    -0.051 Br
HETATM   25  C   UNL     1      43.777 -18.473   5.491  1.00  0.00     0.020 A 
HETATM   26  C   UNL     1      43.221 -17.271   5.043  1.00  0.00     0.014 A 
ENDBRANCH   7  20
TORSDOF 5
ENDMDL
MODEL 9
REMARK VINA RESULT:      -7.2      2.703      4.149
REMARK  5 active torsions:
REMARK  status: ('A' for Active; 'I' for Inactive)
REMARK    1  A    between atoms: C_6  and  N_7 
REMARK       I    between atoms: N_7  and  C_8 
REMARK    2  A    between atoms: C_8  and  C_9 
REMARK    3  A    between atoms: C_9  and  O_10 
REMARK    4  A    between atoms: O_10  and  C_11 
REMARK    5  A    between atoms: C_18  and  C_19 
ROOT
HETATM    1  C   UNL     1      40.240 -12.893   0.005  1.00  0.00     0.073 C 
HETATM    2  C   UNL     1      40.230 -13.984   1.011  1.00  0.00     0.065 A 
HETATM    3  N   UNL     1      40.186 -15.261   0.611  1.00  0.00    -0.177 NA
HETATM    4  N   UNL     1      40.238 -15.964   1.756  1.00  0.00    -0.262 N 
HETATM    5  H   UNL     1      40.203 -16.978   1.699  1.00  0.00     0.191 HD
HETATM    6  C   UNL     1      40.303 -15.185   2.881  1.00  0.00     0.137 A 
HETATM    7  C   UNL     1      40.293 -13.880   2.427  1.00  0.00     0.046 A 
ENDROOT
BRANCH   6   8
HETATM    8  N   UNL     1      40.305 -15.654   4.179  1.00  0.00    -0.309 N 
HETATM    9  C   UNL     1      41.367 -16.120   4.908  1.00  0.00     0.247 C 
HETATM   10  O   UNL     1      41.151 -16.715   5.967  1.00  0.00    -0.271 OA
HETATM   11  H   UNL     1      39.431 -15.631   4.693  1.00  0.00     0.170 HD
BRANCH   9  12
HETATM   12  C   UNL     1      42.782 -15.730   4.496  1.00  0.00     0.278 C 
BRANCH  12  13
HETATM   13  O   UNL     1      43.145 -16.220   3.210  1.00  0.00    -0.342 OA
BRANCH  13  14
HETATM   14  C   UNL     1      43.398 -17.568   3.271  1.00  0.00     0.069 A 
HETATM   15  C   UNL     1      42.938 -18.356   2.219  1.00  0.00     0.037 A 
HETATM   16  C   UNL     1      43.137 -19.737   2.251  1.00  0.00     0.003 A 
HETATM   17  C   UNL     1      43.808 -20.322   3.326  1.00  0.00     0.000 A 
HETATM   18  C   UNL     1      44.301 -19.525   4.359  1.00  0.00     0.003 A 
HETATM   19  C   UNL     1      44.108 -18.144   4.327  1.00  0.00     0.037 A 
ENDBRANCH  13  14
ENDBRANCH  12  13
ENDBRANCH   9  12
ENDBRANCH   6   8
BRANCH   7  20
HETATM   20  C   UNL     1      40.562 -12.738   3.275  1.00  0.00    -0.020 A 
HETATM   21  C   UNL     1      41.891 -12.323   3.449  1.00  0.00     0.014 A 
HETATM   22  C   UNL     1      42.199 -11.293   4.339  1.00  0.00     0.020 A 
HETATM   23  C   UNL     1      41.174 -10.674   5.052  1.00  0.00     0.011 A 
HETATM   24 BR   UNL     1      41.593  -9.305   6.287  1.00  0.00    -0.051 Br
HETATM   25  C   UNL     1      39.846 -11.065   4.872  1.00  0.00     0.020 A 
HETATM   26  C   UNL     1      39.539 -12.096   3.980  1.00  0.00     0.014 A 
ENDBRANCH   7  20
TORSDOF 5
ENDMDL
MODEL 10
REMARK VINA RESULT:      -7.1      1.665      2.023
REMARK  5 active torsions:
REMARK  status: ('A' for Active; 'I' for Inactive)
REMARK    1  A    between atoms: C_6  and  N_7 
REMARK       I    between atoms: N_7  and  C_8 
REMARK    2  A    between atoms: C_8  and  C_9 
REMARK    3  A    between atoms: C_9  and  O_10 
REMARK    4  A    between atoms: O_10  and  C_11 
REMARK    5  A    between atoms: C_18  and  C_19 
ROOT
HETATM    1  C   UNL     1      44.558 -11.353   6.258  1.00  0.00     0.073 C 
HETATM    2  C   UNL     1      43.819 -12.625   6.058  1.00  0.00     0.065 A 
HETATM    3  N   UNL     1      44.055 -13.668   6.864  1.00  0.00    -0.177 NA
HETATM    4  N   UNL     1      43.197 -14.610   6.437  1.00  0.00    -0.262 N 
HETATM    5  H   UNL     1      43.205 -15.515   6.902  1.00  0.00     0.191 HD
HETATM    6  C   UNL     1      42.424 -14.217   5.376  1.00  0.00     0.137 A 
HETATM    7  C   UNL     1      42.813 -12.920   5.099  1.00  0.00     0.046 A 
ENDROOT
BRANCH   6   8
HETATM    8  N   UNL     1      41.512 -15.011   4.712  1.00  0.00    -0.309 N 
HETATM    9  C   UNL     1      41.709 -15.761   3.583  1.00  0.00     0.247 C 
HETATM   10  O   UNL     1      40.729 -16.224   2.993  1.00  0.00    -0.271 OA
HETATM   11  H   UNL     1      40.582 -15.097   5.106  1.00  0.00     0.170 HD
BRANCH   9  12
HETATM   12  C   UNL     1      43.127 -16.162   3.192  1.00  0.00     0.278 C 
BRANCH  12  13
HETATM   13  O   UNL     1      43.815 -16.861   4.223  1.00  0.00    -0.342 OA
BRANCH  13  14
HETATM   14  C   UNL     1      43.808 -18.210   3.968  1.00  0.00     0.069 A 
HETATM   15  C   UNL     1      44.045 -19.068   5.039  1.00  0.00     0.037 A 
HETATM   16  C   UNL     1      44.085 -20.446   4.825  1.00  0.00     0.003 A 
HETATM   17  C   UNL     1      43.872 -20.961   3.545  1.00  0.00     0.000 A 
HETATM   18  C   UNL     1      43.597 -20.101   2.483  1.00  0.00     0.003 A 
HETATM   19  C   UNL     1      43.552 -18.724   2.694  1.00  0.00     0.037 A 
ENDBRANCH  13  14
ENDBRANCH  12  13
ENDBRANCH   9  12
ENDBRANCH   6   8
BRANCH   7  20
HETATM   20  C   UNL     1      42.101 -12.051   4.185  1.00  0.00    -0.020 A 
HETATM   21  C   UNL     1      42.656 -11.799   2.922  1.00  0.00     0.014 A 
HETATM   22  C   UNL     1      42.052 -10.888   2.054  1.00  0.00     0.020 A 
HETATM   23  C   UNL     1      40.888 -10.232   2.450  1.00  0.00     0.011 A 
HETATM   24 BR   UNL     1      40.091  -8.968   1.293  1.00  0.00    -0.051 Br
HETATM   25  C   UNL     1      40.316 -10.490   3.697  1.00  0.00     0.020 A 
HETATM   26  C   UNL     1      40.922 -11.404   4.565  1.00  0.00     0.014 A 
ENDBRANCH   7  20
TORSDOF 5
ENDMDL
