MODEL 1
REMARK VINA RESULT:      -9.5      0.000      0.000
REMARK  6 active torsions:
REMARK  status: ('A' for Active; 'I' for Inactive)
REMARK    1  A    between atoms: C_7  and  C_8 
REMARK    2  A    between atoms: C_12  and  S_13 
REMARK    3  A    between atoms: S_13  and  C_14 
REMARK    4  A    between atoms: C_14  and  C_15 
REMARK       I    between atoms: C_15  and  N_16 
REMARK    5  A    between atoms: N_16  and  C_17 
REMARK    6  A    between atoms: C_25  and  C_26 
REMARK       I    between atoms: C_26  and  N_27 
ROOT
HETATM    1  C   UNL     1      41.946 -14.013   5.126  1.00  0.00     0.232 C 
HETATM    2  N   UNL     1      43.154 -14.671   5.001  1.00  0.00    -0.320 N 
HETATM    3  O   UNL     1      40.831 -14.532   5.085  1.00  0.00    -0.272 OA
HETATM    4  H   UNL     1      43.987 -14.099   5.095  1.00  0.00     0.169 HD
ENDROOT
BRANCH   1   5
HETATM    5  C   UNL     1      42.036 -12.514   5.414  1.00  0.00     0.185 C 
BRANCH   5   6
HETATM    6  S   UNL     1      43.646 -11.722   5.110  1.00  0.00    -0.081 SA
BRANCH   6   7
HETATM    7  C   UNL     1      44.125 -11.336   6.715  1.00  0.00     0.185 A 
HETATM    8  N   UNL     1      45.407 -11.454   7.139  1.00  0.00    -0.253 N 
HETATM    9  N   UNL     1      45.538 -10.991   8.391  1.00  0.00    -0.152 NA
HETATM   10  H   UNL     1      46.216 -11.804   6.641  1.00  0.00     0.191 HD
HETATM   11  C   UNL     1      44.282 -10.628   8.698  1.00  0.00     0.183 A 
HETATM   12  N   UNL     1      43.386 -10.826   7.662  1.00  0.00    -0.201 NA
BRANCH  11  13
HETATM   13  C   UNL     1      43.864  -9.989   9.946  1.00  0.00     0.035 A 
HETATM   14  C   UNL     1      43.700  -8.604  10.115  1.00  0.00     0.049 A 
HETATM   15  C   UNL     1      43.269  -8.083  11.345  1.00  0.00     0.048 A 
HETATM   16 CL   UNL     1      44.052  -7.434   8.887  1.00  0.00    -0.083 Cl
HETATM   17  C   UNL     1      43.010  -8.935  12.414  1.00  0.00     0.035 A 
HETATM   18  C   UNL     1      43.181 -10.306  12.277  1.00  0.00     0.025 A 
HETATM   19 CL   UNL     1      42.484  -8.286  13.918  1.00  0.00    -0.084 Cl
HETATM   20  C   UNL     1      43.605 -10.828  11.052  1.00  0.00     0.019 A 
ENDBRANCH  11  13
ENDBRANCH   6   7
ENDBRANCH   5   6
ENDBRANCH   1   5
BRANCH   2  21
HETATM   21  C   UNL     1      43.376 -15.975   4.579  1.00  0.00     0.093 A 
HETATM   22  S   UNL     1      43.947 -17.161   5.653  1.00  0.00    -0.075 SA
HETATM   23  C   UNL     1      43.805 -18.386   4.493  1.00  0.00    -0.008 A 
HETATM   24  C   UNL     1      43.328 -17.918   3.285  1.00  0.00    -0.026 A 
HETATM   25  C   UNL     1      44.138 -19.812   4.805  1.00  0.00     0.047 C 
HETATM   26  C   UNL     1      43.126 -18.838   2.111  1.00  0.00     0.041 C 
HETATM   27  C   UNL     1      43.132 -16.485   3.308  1.00  0.00     0.072 A 
HETATM   28  C   UNL     1      43.142 -20.319   2.527  1.00  0.00     0.005 C 
HETATM   29  C   UNL     1      44.281 -20.623   3.509  1.00  0.00     0.005 C 
BRANCH  27  30
HETATM   30  C   UNL     1      42.703 -15.686   2.160  1.00  0.00     0.252 C 
HETATM   31  N   UNL     1      43.706 -15.048   1.476  1.00  0.00    -0.366 N 
HETATM   32  H   UNL     1      44.642 -15.432   1.532  1.00  0.00     0.159 HD
HETATM   33  H   UNL     1      43.421 -14.686   0.574  1.00  0.00     0.159 HD
HETATM   34  O   UNL     1      41.547 -15.613   1.762  1.00  0.00    -0.268 OA
ENDBRANCH  27  30
ENDBRANCH   2  21
TORSDOF 6
ENDMDL
MODEL 2
REMARK VINA RESULT:      -9.5      1.287      2.230
REMARK  6 active torsions:
REMARK  status: ('A' for Active; 'I' for Inactive)
REMARK    1  A    between atoms: C_7  and  C_8 
REMARK    2  A    between atoms: C_12  and  S_13 
REMARK    3  A    between atoms: S_13  and  C_14 
REMARK    4  A    between atoms: C_14  and  C_15 
REMARK       I    between atoms: C_15  and  N_16 
REMARK    5  A    between atoms: N_16  and  C_17 
REMARK    6  A    between atoms: C_25  and  C_26 
REMARK       I    between atoms: C_26  and  N_27 
ROOT
HETATM    1  C   UNL     1      41.717 -13.621   5.077  1.00  0.00     0.232 C 
HETATM    2  N   UNL     1      42.899 -14.334   5.023  1.00  0.00    -0.320 N 
HETATM    3  O   UNL     1      40.584 -14.100   5.104  1.00  0.00    -0.272 OA
HETATM    4  H   UNL     1      43.754 -13.786   5.043  1.00  0.00     0.169 HD
ENDROOT
BRANCH   1   5
HETATM    5  C   UNL     1      41.865 -12.104   5.184  1.00  0.00     0.185 C 
BRANCH   5   6
HETATM    6  S   UNL     1      43.540 -11.430   4.959  1.00  0.00    -0.081 SA
BRANCH   6   7
HETATM    7  C   UNL     1      44.010 -11.181   6.594  1.00  0.00     0.185 A 
HETATM    8  N   UNL     1      45.253 -11.477   7.046  1.00  0.00    -0.253 N 
HETATM    9  N   UNL     1      45.400 -11.092   8.322  1.00  0.00    -0.152 NA
HETATM   10  H   UNL     1      46.030 -11.901   6.552  1.00  0.00     0.191 HD
HETATM   11  C   UNL     1      44.188 -10.591   8.614  1.00  0.00     0.183 A 
HETATM   12  N   UNL     1      43.309 -10.628   7.546  1.00  0.00    -0.201 NA
BRANCH  11  13
HETATM   13  C   UNL     1      43.811  -9.964   9.881  1.00  0.00     0.035 A 
HETATM   14  C   UNL     1      43.676  -8.579  10.074  1.00  0.00     0.049 A 
HETATM   15  C   UNL     1      43.284  -8.069  11.321  1.00  0.00     0.048 A 
HETATM   16 CL   UNL     1      44.019  -7.396   8.855  1.00  0.00    -0.083 Cl
HETATM   17  C   UNL     1      43.035  -8.932  12.384  1.00  0.00     0.035 A 
HETATM   18  C   UNL     1      43.177 -10.304  12.222  1.00  0.00     0.025 A 
HETATM   19 CL   UNL     1      42.556  -8.297  13.909  1.00  0.00    -0.084 Cl
HETATM   20  C   UNL     1      43.564 -10.815  10.979  1.00  0.00     0.019 A 
ENDBRANCH  11  13
ENDBRANCH   6   7
ENDBRANCH   5   6
ENDBRANCH   1   5
BRANCH   2  21
HETATM   21  C   UNL     1      43.070 -15.686   4.757  1.00  0.00     0.093 A 
HETATM   22  S   UNL     1      43.351 -16.242   3.176  1.00  0.00    -0.075 SA
HETATM   23  C   UNL     1      43.586 -17.835   3.698  1.00  0.00    -0.008 A 
HETATM   24  C   UNL     1      43.455 -17.969   5.066  1.00  0.00    -0.026 A 
HETATM   25  C   UNL     1      43.932 -18.937   2.744  1.00  0.00     0.047 C 
HETATM   26  C   UNL     1      43.622 -19.302   5.744  1.00  0.00     0.041 C 
HETATM   27  C   UNL     1      43.089 -16.716   5.691  1.00  0.00     0.072 A 
HETATM   28  C   UNL     1      44.297 -20.336   4.828  1.00  0.00     0.005 C 
HETATM   29  C   UNL     1      43.719 -20.305   3.408  1.00  0.00     0.005 C 
BRANCH  27  30
HETATM   30  C   UNL     1      42.808 -16.550   7.117  1.00  0.00     0.252 C 
HETATM   31  N   UNL     1      43.842 -16.859   7.963  1.00  0.00    -0.366 N 
HETATM   32  H   UNL     1      44.787 -16.808   7.602  1.00  0.00     0.159 HD
HETATM   33  H   UNL     1      43.705 -16.535   8.913  1.00  0.00     0.159 HD
HETATM   34  O   UNL     1      41.758 -16.109   7.567  1.00  0.00    -0.268 OA
ENDBRANCH  27  30
ENDBRANCH   2  21
TORSDOF 6
ENDMDL
MODEL 3
REMARK VINA RESULT:      -9.5      4.293     10.768
REMARK  6 active torsions:
REMARK  status: ('A' for Active; 'I' for Inactive)
REMARK    1  A    between atoms: C_7  and  C_8 
REMARK    2  A    between atoms: C_12  and  S_13 
REMARK    3  A    between atoms: S_13  and  C_14 
REMARK    4  A    between atoms: C_14  and  C_15 
REMARK       I    between atoms: C_15  and  N_16 
REMARK    5  A    between atoms: N_16  and  C_17 
REMARK    6  A    between atoms: C_25  and  C_26 
REMARK       I    between atoms: C_26  and  N_27 
ROOT
HETATM    1  C   UNL     1      44.399 -10.599   7.705  1.00  0.00     0.232 C 
HETATM    2  N   UNL     1      43.292 -10.398   8.506  1.00  0.00    -0.320 N 
HETATM    3  O   UNL     1      45.515 -10.109   7.875  1.00  0.00    -0.272 OA
HETATM    4  H   UNL     1      42.453 -10.907   8.245  1.00  0.00     0.169 HD
ENDROOT
BRANCH   1   5
HETATM    5  C   UNL     1      44.209 -11.581   6.549  1.00  0.00     0.185 C 
BRANCH   5   6
HETATM    6  S   UNL     1      42.497 -11.893   6.018  1.00  0.00    -0.081 SA
BRANCH   6   7
HETATM    7  C   UNL     1      42.504 -13.608   5.897  1.00  0.00     0.185 A 
HETATM    8  N   UNL     1      41.924 -14.405   6.827  1.00  0.00    -0.253 N 
HETATM    9  N   UNL     1      41.972 -15.690   6.449  1.00  0.00    -0.152 NA
HETATM   10  H   UNL     1      41.471 -14.149   7.696  1.00  0.00     0.191 HD
HETATM   11  C   UNL     1      42.631 -15.624   5.280  1.00  0.00     0.183 A 
HETATM   12  N   UNL     1      42.963 -14.332   4.913  1.00  0.00    -0.201 NA
BRANCH  11  13
HETATM   13  C   UNL     1      42.906 -16.756   4.395  1.00  0.00     0.035 A 
HETATM   14  C   UNL     1      42.264 -16.978   3.164  1.00  0.00     0.049 A 
HETATM   15  C   UNL     1      42.614 -18.080   2.369  1.00  0.00     0.048 A 
HETATM   16 CL   UNL     1      40.985 -15.984   2.550  1.00  0.00    -0.083 Cl
HETATM   17  C   UNL     1      43.593 -18.971   2.796  1.00  0.00     0.035 A 
HETATM   18  C   UNL     1      44.230 -18.781   4.016  1.00  0.00     0.025 A 
HETATM   19 CL   UNL     1      44.012 -20.319   1.814  1.00  0.00    -0.084 Cl
HETATM   20  C   UNL     1      43.887 -17.682   4.809  1.00  0.00     0.019 A 
ENDBRANCH  11  13
ENDBRANCH   6   7
ENDBRANCH   5   6
ENDBRANCH   1   5
BRANCH   2  21
HETATM   21  C   UNL     1      43.122  -9.451   9.507  1.00  0.00     0.093 A 
HETATM   22  S   UNL     1      42.391  -7.952   9.184  1.00  0.00    -0.075 SA
HETATM   23  C   UNL     1      42.422  -7.502  10.816  1.00  0.00    -0.008 A 
HETATM   24  C   UNL     1      42.983  -8.471  11.623  1.00  0.00    -0.026 A 
HETATM   25  C   UNL     1      41.857  -6.197  11.287  1.00  0.00     0.047 C 
HETATM   26  C   UNL     1      43.113  -8.278  13.109  1.00  0.00     0.041 C 
HETATM   27  C   UNL     1      43.456  -9.600  10.850  1.00  0.00     0.072 A 
HETATM   28  C   UNL     1      42.244  -7.116  13.620  1.00  0.00     0.005 C 
HETATM   29  C   UNL     1      42.344  -5.886  12.709  1.00  0.00     0.005 C 
BRANCH  27  30
HETATM   30  C   UNL     1      44.160 -10.754  11.408  1.00  0.00     0.252 C 
HETATM   31  N   UNL     1      43.421 -11.549  12.245  1.00  0.00    -0.366 N 
HETATM   32  H   UNL     1      42.413 -11.546  12.141  1.00  0.00     0.159 HD
HETATM   33  H   UNL     1      43.850 -12.445  12.444  1.00  0.00     0.159 HD
HETATM   34  O   UNL     1      45.312 -11.062  11.127  1.00  0.00    -0.268 OA
ENDBRANCH  27  30
ENDBRANCH   2  21
TORSDOF 6
ENDMDL
MODEL 4
REMARK VINA RESULT:      -9.3      2.798      3.768
REMARK  6 active torsions:
REMARK  status: ('A' for Active; 'I' for Inactive)
REMARK    1  A    between atoms: C_7  and  C_8 
REMARK    2  A    between atoms: C_12  and  S_13 
REMARK    3  A    between atoms: S_13  and  C_14 
REMARK    4  A    between atoms: C_14  and  C_15 
REMARK       I    between atoms: C_15  and  N_16 
REMARK    5  A    between atoms: N_16  and  C_17 
REMARK    6  A    between atoms: C_25  and  C_26 
REMARK       I    between atoms: C_26  and  N_27 
ROOT
HETATM    1  C   UNL     1      41.374 -11.103   6.097  1.00  0.00     0.232 C 
HETATM    2  N   UNL     1      42.265 -12.147   6.252  1.00  0.00    -0.320 N 
HETATM    3  O   UNL     1      40.490 -11.026   5.243  1.00  0.00    -0.272 OA
HETATM    4  H   UNL     1      42.912 -12.071   7.032  1.00  0.00     0.169 HD
ENDROOT
BRANCH   1   5
HETATM    5  C   UNL     1      41.473  -9.989   7.138  1.00  0.00     0.185 C 
BRANCH   5   6
HETATM    6  S   UNL     1      43.148  -9.496   7.649  1.00  0.00    -0.081 SA
BRANCH   6   7
HETATM    7  C   UNL     1      43.046  -9.718   9.351  1.00  0.00     0.185 A 
HETATM    8  N   UNL     1      43.532 -10.821   9.970  1.00  0.00    -0.253 N 
HETATM    9  N   UNL     1      43.427 -10.703  11.302  1.00  0.00    -0.152 NA
HETATM   10  H   UNL     1      43.957 -11.647   9.567  1.00  0.00     0.191 HD
HETATM   11  C   UNL     1      42.830  -9.508  11.441  1.00  0.00     0.183 A 
HETATM   12  N   UNL     1      42.593  -8.872  10.235  1.00  0.00    -0.201 NA
BRANCH  11  13
HETATM   13  C   UNL     1      42.532  -8.850  12.713  1.00  0.00     0.035 A 
HETATM   14  C   UNL     1      41.451  -9.184  13.548  1.00  0.00     0.049 A 
HETATM   15  C   UNL     1      41.260  -8.514  14.766  1.00  0.00     0.048 A 
HETATM   16 CL   UNL     1      40.257 -10.375  13.151  1.00  0.00    -0.083 Cl
HETATM   17  C   UNL     1      42.134  -7.503  15.154  1.00  0.00     0.035 A 
HETATM   18  C   UNL     1      43.199  -7.144  14.338  1.00  0.00     0.025 A 
HETATM   19 CL   UNL     1      41.889  -6.686  16.648  1.00  0.00    -0.084 Cl
HETATM   20  C   UNL     1      43.395  -7.813  13.127  1.00  0.00     0.019 A 
ENDBRANCH  11  13
ENDBRANCH   6   7
ENDBRANCH   5   6
ENDBRANCH   1   5
BRANCH   2  21
HETATM   21  C   UNL     1      42.517 -13.193   5.375  1.00  0.00     0.093 A 
HETATM   22  S   UNL     1      42.159 -14.799   5.799  1.00  0.00    -0.075 SA
HETATM   23  C   UNL     1      42.577 -15.376   4.262  1.00  0.00    -0.008 A 
HETATM   24  C   UNL     1      42.990 -14.369   3.413  1.00  0.00    -0.026 A 
HETATM   25  C   UNL     1      42.458 -16.825   3.903  1.00  0.00     0.047 C 
HETATM   26  C   UNL     1      43.411 -14.658   1.998  1.00  0.00     0.041 C 
HETATM   27  C   UNL     1      43.018 -13.086   4.082  1.00  0.00     0.072 A 
HETATM   28  C   UNL     1      42.972 -16.059   1.539  1.00  0.00     0.005 C 
HETATM   29  C   UNL     1      43.238 -17.121   2.613  1.00  0.00     0.005 C 
BRANCH  27  30
HETATM   30  C   UNL     1      43.479 -11.839   3.470  1.00  0.00     0.252 C 
HETATM   31  N   UNL     1      42.565 -11.198   2.675  1.00  0.00    -0.366 N 
HETATM   32  H   UNL     1      41.581 -11.372   2.840  1.00  0.00     0.159 HD
HETATM   33  H   UNL     1      42.821 -10.246   2.441  1.00  0.00     0.159 HD
HETATM   34  O   UNL     1      44.575 -11.333   3.676  1.00  0.00    -0.268 OA
ENDBRANCH  27  30
ENDBRANCH   2  21
TORSDOF 6
ENDMDL
MODEL 5
REMARK VINA RESULT:      -9.1      5.188      8.137
REMARK  6 active torsions:
REMARK  status: ('A' for Active; 'I' for Inactive)
REMARK    1  A    between atoms: C_7  and  C_8 
REMARK    2  A    between atoms: C_12  and  S_13 
REMARK    3  A    between atoms: S_13  and  C_14 
REMARK    4  A    between atoms: C_14  and  C_15 
REMARK       I    between atoms: C_15  and  N_16 
REMARK    5  A    between atoms: N_16  and  C_17 
REMARK    6  A    between atoms: C_25  and  C_26 
REMARK       I    between atoms: C_26  and  N_27 
ROOT
HETATM    1  C   UNL     1      41.684 -13.914   4.669  1.00  0.00     0.232 C 
HETATM    2  N   UNL     1      42.915 -14.532   4.766  1.00  0.00    -0.320 N 
HETATM    3  O   UNL     1      40.595 -14.479   4.571  1.00  0.00    -0.272 OA
HETATM    4  H   UNL     1      43.716 -13.919   4.878  1.00  0.00     0.169 HD
ENDROOT
BRANCH   1   5
HETATM    5  C   UNL     1      41.700 -12.388   4.768  1.00  0.00     0.185 C 
BRANCH   5   6
HETATM    6  S   UNL     1      42.871 -11.514   3.684  1.00  0.00    -0.081 SA
BRANCH   6   7
HETATM    7  C   UNL     1      41.931 -11.358   2.253  1.00  0.00     0.185 A 
HETATM    8  N   UNL     1      41.836 -10.192   1.569  1.00  0.00    -0.253 N 
HETATM    9  N   UNL     1      41.137 -10.360   0.437  1.00  0.00    -0.152 NA
HETATM   10  H   UNL     1      42.230  -9.285   1.792  1.00  0.00     0.191 HD
HETATM   11  C   UNL     1      40.794 -11.657   0.498  1.00  0.00     0.183 A 
HETATM   12  N   UNL     1      41.289 -12.301   1.618  1.00  0.00    -0.201 NA
BRANCH  11  13
HETATM   13  C   UNL     1      40.064 -12.392  -0.535  1.00  0.00     0.035 A 
HETATM   14  C   UNL     1      38.671 -12.339  -0.716  1.00  0.00     0.049 A 
HETATM   15  C   UNL     1      38.061 -13.060  -1.754  1.00  0.00     0.048 A 
HETATM   16 CL   UNL     1      37.597 -11.454   0.316  1.00  0.00    -0.083 Cl
HETATM   17  C   UNL     1      38.829 -13.845  -2.607  1.00  0.00     0.035 A 
HETATM   18  C   UNL     1      40.205 -13.927  -2.438  1.00  0.00     0.025 A 
HETATM   19 CL   UNL     1      38.070 -14.727  -3.875  1.00  0.00    -0.084 Cl
HETATM   20  C   UNL     1      40.817 -13.206  -1.408  1.00  0.00     0.019 A 
ENDBRANCH  11  13
ENDBRANCH   6   7
ENDBRANCH   5   6
ENDBRANCH   1   5
BRANCH   2  21
HETATM   21  C   UNL     1      43.220 -15.868   4.545  1.00  0.00     0.093 A 
HETATM   22  S   UNL     1      43.574 -16.915   5.835  1.00  0.00    -0.075 SA
HETATM   23  C   UNL     1      43.664 -18.263   4.815  1.00  0.00    -0.008 A 
HETATM   24  C   UNL     1      43.430 -17.943   3.493  1.00  0.00    -0.026 A 
HETATM   25  C   UNL     1      43.935 -19.637   5.344  1.00  0.00     0.047 C 
HETATM   26  C   UNL     1      43.464 -18.991   2.413  1.00  0.00     0.041 C 
HETATM   27  C   UNL     1      43.229 -16.521   3.316  1.00  0.00     0.072 A 
HETATM   28  C   UNL     1      43.404 -20.416   2.988  1.00  0.00     0.005 C 
HETATM   29  C   UNL     1      44.330 -20.582   4.199  1.00  0.00     0.005 C 
BRANCH  27  30
HETATM   30  C   UNL     1      43.030 -15.863   2.024  1.00  0.00     0.252 C 
HETATM   31  N   UNL     1      41.724 -15.654   1.663  1.00  0.00    -0.366 N 
HETATM   32  H   UNL     1      41.028 -15.598   2.396  1.00  0.00     0.159 HD
HETATM   33  H   UNL     1      41.611 -15.015   0.885  1.00  0.00     0.159 HD
HETATM   34  O   UNL     1      43.937 -15.454   1.310  1.00  0.00    -0.268 OA
ENDBRANCH  27  30
ENDBRANCH   2  21
TORSDOF 6
ENDMDL
MODEL 6
REMARK VINA RESULT:      -9.1      5.067      8.355
REMARK  6 active torsions:
REMARK  status: ('A' for Active; 'I' for Inactive)
REMARK    1  A    between atoms: C_7  and  C_8 
REMARK    2  A    between atoms: C_12  and  S_13 
REMARK    3  A    between atoms: S_13  and  C_14 
REMARK    4  A    between atoms: C_14  and  C_15 
REMARK       I    between atoms: C_15  and  N_16 
REMARK    5  A    between atoms: N_16  and  C_17 
REMARK    6  A    between atoms: C_25  and  C_26 
REMARK       I    between atoms: C_26  and  N_27 
ROOT
HETATM    1  C   UNL     1      41.662 -11.019   2.019  1.00  0.00     0.232 C 
HETATM    2  N   UNL     1      40.543 -11.828   1.986  1.00  0.00    -0.320 N 
HETATM    3  O   UNL     1      42.090 -10.337   1.089  1.00  0.00    -0.272 OA
HETATM    4  H   UNL     1      40.304 -12.298   2.854  1.00  0.00     0.169 HD
ENDROOT
BRANCH   1   5
HETATM    5  C   UNL     1      42.372 -10.927   3.370  1.00  0.00     0.185 C 
BRANCH   5   6
HETATM    6  S   UNL     1      41.364 -11.274   4.845  1.00  0.00    -0.081 SA
BRANCH   6   7
HETATM    7  C   UNL     1      41.830 -12.894   5.181  1.00  0.00     0.185 A 
HETATM    8  N   UNL     1      41.606 -13.481   6.382  1.00  0.00    -0.253 N 
HETATM    9  N   UNL     1      41.962 -14.773   6.354  1.00  0.00    -0.152 NA
HETATM   10  H   UNL     1      41.204 -13.084   7.223  1.00  0.00     0.191 HD
HETATM   11  C   UNL     1      42.436 -14.916   5.105  1.00  0.00     0.183 A 
HETATM   12  N   UNL     1      42.353 -13.757   4.353  1.00  0.00    -0.201 NA
BRANCH  11  13
HETATM   13  C   UNL     1      42.907 -16.168   4.513  1.00  0.00     0.035 A 
HETATM   14  C   UNL     1      43.957 -16.947   5.029  1.00  0.00     0.049 A 
HETATM   15  C   UNL     1      44.322 -18.151   4.407  1.00  0.00     0.048 A 
HETATM   16 CL   UNL     1      44.910 -16.494   6.404  1.00  0.00    -0.083 Cl
HETATM   17  C   UNL     1      43.654 -18.579   3.264  1.00  0.00     0.035 A 
HETATM   18  C   UNL     1      42.624 -17.818   2.726  1.00  0.00     0.025 A 
HETATM   19 CL   UNL     1      44.111 -20.055   2.508  1.00  0.00    -0.084 Cl
HETATM   20  C   UNL     1      42.255 -16.622   3.346  1.00  0.00     0.019 A 
ENDBRANCH  11  13
ENDBRANCH   6   7
ENDBRANCH   5   6
ENDBRANCH   1   5
BRANCH   2  21
HETATM   21  C   UNL     1      39.811 -12.229   0.876  1.00  0.00     0.093 A 
HETATM   22  S   UNL     1      38.788 -11.145   0.060  1.00  0.00    -0.075 SA
HETATM   23  C   UNL     1      38.432 -12.276  -1.149  1.00  0.00    -0.008 A 
HETATM   24  C   UNL     1      39.076 -13.481  -0.953  1.00  0.00    -0.026 A 
HETATM   25  C   UNL     1      37.538 -11.943  -2.304  1.00  0.00     0.047 C 
HETATM   26  C   UNL     1      38.900 -14.630  -1.909  1.00  0.00     0.041 C 
HETATM   27  C   UNL     1      39.843 -13.483   0.274  1.00  0.00     0.072 A 
HETATM   28  C   UNL     1      38.271 -14.185  -3.240  1.00  0.00     0.005 C 
HETATM   29  C   UNL     1      37.094 -13.226  -3.022  1.00  0.00     0.005 C 
BRANCH  27  30
HETATM   30  C   UNL     1      40.578 -14.636   0.794  1.00  0.00     0.252 C 
HETATM   31  N   UNL     1      39.811 -15.716   1.145  1.00  0.00    -0.366 N 
HETATM   32  H   UNL     1      38.905 -15.823   0.706  1.00  0.00     0.159 HD
HETATM   33  H   UNL     1      40.343 -16.566   1.293  1.00  0.00     0.159 HD
HETATM   34  O   UNL     1      41.799 -14.700   0.868  1.00  0.00    -0.268 OA
ENDBRANCH  27  30
ENDBRANCH   2  21
TORSDOF 6
ENDMDL
MODEL 7
REMARK VINA RESULT:      -9.1      4.105     10.747
REMARK  6 active torsions:
REMARK  status: ('A' for Active; 'I' for Inactive)
REMARK    1  A    between atoms: C_7  and  C_8 
REMARK    2  A    between atoms: C_12  and  S_13 
REMARK    3  A    between atoms: S_13  and  C_14 
REMARK    4  A    between atoms: C_14  and  C_15 
REMARK       I    between atoms: C_15  and  N_16 
REMARK    5  A    between atoms: N_16  and  C_17 
REMARK    6  A    between atoms: C_25  and  C_26 
REMARK       I    between atoms: C_26  and  N_27 
ROOT
HETATM    1  C   UNL     1      42.749  -9.930   7.324  1.00  0.00     0.232 C 
HETATM    2  N   UNL     1      43.658  -9.210   8.074  1.00  0.00    -0.320 N 
HETATM    3  O   UNL     1      41.525  -9.915   7.460  1.00  0.00    -0.272 OA
HETATM    4  H   UNL     1      44.634  -9.308   7.809  1.00  0.00     0.169 HD
ENDROOT
BRANCH   1   5
HETATM    5  C   UNL     1      43.340 -10.757   6.183  1.00  0.00     0.185 C 
BRANCH   5   6
HETATM    6  S   UNL     1      42.201 -11.227   4.843  1.00  0.00    -0.081 SA
BRANCH   6   7
HETATM    7  C   UNL     1      42.197 -12.939   5.008  1.00  0.00     0.185 A 
HETATM    8  N   UNL     1      41.417 -13.580   5.912  1.00  0.00    -0.253 N 
HETATM    9  N   UNL     1      41.517 -14.909   5.768  1.00  0.00    -0.152 NA
HETATM   10  H   UNL     1      40.796 -13.191   6.612  1.00  0.00     0.191 HD
HETATM   11  C   UNL     1      42.409 -15.026   4.770  1.00  0.00     0.183 A 
HETATM   12  N   UNL     1      42.838 -13.808   4.275  1.00  0.00    -0.201 NA
BRANCH  11  13
HETATM   13  C   UNL     1      42.840 -16.284   4.160  1.00  0.00     0.035 A 
HETATM   14  C   UNL     1      43.846 -17.117   4.679  1.00  0.00     0.049 A 
HETATM   15  C   UNL     1      44.174 -18.321   4.037  1.00  0.00     0.048 A 
HETATM   16 CL   UNL     1      44.788 -16.733   6.082  1.00  0.00    -0.083 Cl
HETATM   17  C   UNL     1      43.514 -18.696   2.872  1.00  0.00     0.035 A 
HETATM   18  C   UNL     1      42.527 -17.881   2.331  1.00  0.00     0.025 A 
HETATM   19 CL   UNL     1      43.925 -20.173   2.092  1.00  0.00    -0.084 Cl
HETATM   20  C   UNL     1      42.195 -16.684   2.970  1.00  0.00     0.019 A 
ENDBRANCH  11  13
ENDBRANCH   6   7
ENDBRANCH   5   6
ENDBRANCH   1   5
BRANCH   2  21
HETATM   21  C   UNL     1      43.433  -8.518   9.256  1.00  0.00     0.093 A 
HETATM   22  S   UNL     1      42.811  -6.937   9.244  1.00  0.00    -0.075 SA
HETATM   23  C   UNL     1      42.698  -6.889  10.933  1.00  0.00    -0.008 A 
HETATM   24  C   UNL     1      43.128  -8.059  11.526  1.00  0.00    -0.026 A 
HETATM   25  C   UNL     1      42.152  -5.696  11.655  1.00  0.00     0.047 C 
HETATM   26  C   UNL     1      43.117  -8.232  13.020  1.00  0.00     0.041 C 
HETATM   27  C   UNL     1      43.623  -9.003  10.546  1.00  0.00     0.072 A 
HETATM   28  C   UNL     1      42.257  -7.166  13.720  1.00  0.00     0.005 C 
HETATM   29  C   UNL     1      42.507  -5.765  13.147  1.00  0.00     0.005 C 
BRANCH  27  30
HETATM   30  C   UNL     1      44.211 -10.303  10.867  1.00  0.00     0.252 C 
HETATM   31  N   UNL     1      43.370 -11.197  11.478  1.00  0.00    -0.366 N 
HETATM   32  H   UNL     1      42.373 -11.090  11.336  1.00  0.00     0.159 HD
HETATM   33  H   UNL     1      43.724 -12.147  11.494  1.00  0.00     0.159 HD
HETATM   34  O   UNL     1      45.353 -10.636  10.574  1.00  0.00    -0.268 OA
ENDBRANCH  27  30
ENDBRANCH   2  21
TORSDOF 6
ENDMDL
MODEL 8
REMARK VINA RESULT:      -9.0      5.018      7.652
REMARK  6 active torsions:
REMARK  status: ('A' for Active; 'I' for Inactive)
REMARK    1  A    between atoms: C_7  and  C_8 
REMARK    2  A    between atoms: C_12  and  S_13 
REMARK    3  A    between atoms: S_13  and  C_14 
REMARK    4  A    between atoms: C_14  and  C_15 
REMARK       I    between atoms: C_15  and  N_16 
REMARK    5  A    between atoms: N_16  and  C_17 
REMARK    6  A    between atoms: C_25  and  C_26 
REMARK       I    between atoms: C_26  and  N_27 
ROOT
HETATM    1  C   UNL     1      42.207 -14.106   5.180  1.00  0.00     0.232 C 
HETATM    2  N   UNL     1      43.377 -14.836   5.115  1.00  0.00    -0.320 N 
HETATM    3  O   UNL     1      41.066 -14.555   5.074  1.00  0.00    -0.272 OA
HETATM    4  H   UNL     1      44.238 -14.316   5.259  1.00  0.00     0.169 HD
ENDROOT
BRANCH   1   5
HETATM    5  C   UNL     1      42.372 -12.617   5.484  1.00  0.00     0.185 C 
BRANCH   5   6
HETATM    6  S   UNL     1      43.483 -11.680   4.388  1.00  0.00    -0.081 SA
BRANCH   6   7
HETATM    7  C   UNL     1      42.466 -11.443   3.023  1.00  0.00     0.185 A 
HETATM    8  N   UNL     1      42.076 -10.212   2.612  1.00  0.00    -0.253 N 
HETATM    9  N   UNL     1      41.381 -10.290   1.468  1.00  0.00    -0.152 NA
HETATM   10  H   UNL     1      42.262  -9.308   3.031  1.00  0.00     0.191 HD
HETATM   11  C   UNL     1      41.347 -11.614   1.240  1.00  0.00     0.183 A 
HETATM   12  N   UNL     1      42.027 -12.350   2.193  1.00  0.00    -0.201 NA
BRANCH  11  13
HETATM   13  C   UNL     1      40.756 -12.258   0.067  1.00  0.00     0.035 A 
HETATM   14  C   UNL     1      40.884 -11.786  -1.250  1.00  0.00     0.049 A 
HETATM   15  C   UNL     1      40.303 -12.488  -2.317  1.00  0.00     0.048 A 
HETATM   16 CL   UNL     1      41.696 -10.315  -1.673  1.00  0.00    -0.083 Cl
HETATM   17  C   UNL     1      39.583 -13.654  -2.080  1.00  0.00     0.035 A 
HETATM   18  C   UNL     1      39.429 -14.132  -0.784  1.00  0.00     0.025 A 
HETATM   19 CL   UNL     1      38.873 -14.506  -3.395  1.00  0.00    -0.084 Cl
HETATM   20  C   UNL     1      40.011 -13.438   0.280  1.00  0.00     0.019 A 
ENDBRANCH  11  13
ENDBRANCH   6   7
ENDBRANCH   5   6
ENDBRANCH   1   5
BRANCH   2  21
HETATM   21  C   UNL     1      43.543 -16.149   4.696  1.00  0.00     0.093 A 
HETATM   22  S   UNL     1      43.980 -17.372   5.790  1.00  0.00    -0.075 SA
HETATM   23  C   UNL     1      43.828 -18.581   4.615  1.00  0.00    -0.008 A 
HETATM   24  C   UNL     1      43.448 -18.080   3.386  1.00  0.00    -0.026 A 
HETATM   25  C   UNL     1      44.057 -20.027   4.933  1.00  0.00     0.047 C 
HETATM   26  C   UNL     1      43.256 -18.980   2.195  1.00  0.00     0.041 C 
HETATM   27  C   UNL     1      43.339 -16.637   3.409  1.00  0.00     0.072 A 
HETATM   28  C   UNL     1      43.159 -20.461   2.600  1.00  0.00     0.005 C 
HETATM   29  C   UNL     1      44.221 -20.839   3.640  1.00  0.00     0.005 C 
BRANCH  27  30
HETATM   30  C   UNL     1      43.024 -15.808   2.246  1.00  0.00     0.252 C 
HETATM   31  N   UNL     1      41.692 -15.548   2.048  1.00  0.00    -0.366 N 
HETATM   32  H   UNL     1      41.073 -15.592   2.848  1.00  0.00     0.159 HD
HETATM   33  H   UNL     1      41.514 -14.808   1.380  1.00  0.00     0.159 HD
HETATM   34  O   UNL     1      43.863 -15.307   1.507  1.00  0.00    -0.268 OA
ENDBRANCH  27  30
ENDBRANCH   2  21
TORSDOF 6
ENDMDL
MODEL 9
REMARK VINA RESULT:      -8.8      3.807      8.906
REMARK  6 active torsions:
REMARK  status: ('A' for Active; 'I' for Inactive)
REMARK    1  A    between atoms: C_7  and  C_8 
REMARK    2  A    between atoms: C_12  and  S_13 
REMARK    3  A    between atoms: S_13  and  C_14 
REMARK    4  A    between atoms: C_14  and  C_15 
REMARK       I    between atoms: C_15  and  N_16 
REMARK    5  A    between atoms: N_16  and  C_17 
REMARK    6  A    between atoms: C_25  and  C_26 
REMARK       I    between atoms: C_26  and  N_27 
ROOT
HETATM    1  C   UNL     1      40.070 -12.492   5.130  1.00  0.00     0.232 C 
HETATM    2  N   UNL     1      41.042 -11.534   4.922  1.00  0.00    -0.320 N 
HETATM    3  O   UNL     1      39.789 -13.016   6.208  1.00  0.00    -0.272 OA
HETATM    4  H   UNL     1      41.123 -11.177   3.975  1.00  0.00     0.169 HD
ENDROOT
BRANCH   1   5
HETATM    5  C   UNL     1      39.235 -12.865   3.906  1.00  0.00     0.185 C 
BRANCH   5   6
HETATM    6  S   UNL     1      40.034 -12.664   2.283  1.00  0.00    -0.081 SA
BRANCH   6   7
HETATM    7  C   UNL     1      41.392 -13.703   2.462  1.00  0.00     0.185 A 
HETATM    8  N   UNL     1      42.659 -13.294   2.205  1.00  0.00    -0.253 N 
HETATM    9  N   UNL     1      43.541 -14.252   2.523  1.00  0.00    -0.152 NA
HETATM   10  H   UNL     1      42.984 -12.402   1.851  1.00  0.00     0.191 HD
HETATM   11  C   UNL     1      42.747 -15.250   2.943  1.00  0.00     0.183 A 
HETATM   12  N   UNL     1      41.402 -14.924   2.922  1.00  0.00    -0.201 NA
BRANCH  11  13
HETATM   13  C   UNL     1      43.205 -16.532   3.476  1.00  0.00     0.035 A 
HETATM   14  C   UNL     1      43.614 -16.742   4.805  1.00  0.00     0.049 A 
HETATM   15  C   UNL     1      44.013 -18.018   5.233  1.00  0.00     0.048 A 
HETATM   16 CL   UNL     1      43.715 -15.485   5.993  1.00  0.00    -0.083 Cl
HETATM   17  C   UNL     1      44.019 -19.086   4.343  1.00  0.00     0.035 A 
HETATM   18  C   UNL     1      43.635 -18.900   3.021  1.00  0.00     0.025 A 
HETATM   19 CL   UNL     1      44.512 -20.645   4.878  1.00  0.00    -0.084 Cl
HETATM   20  C   UNL     1      43.232 -17.632   2.592  1.00  0.00     0.019 A 
ENDBRANCH  11  13
ENDBRANCH   6   7
ENDBRANCH   5   6
ENDBRANCH   1   5
BRANCH   2  21
HETATM   21  C   UNL     1      42.045 -11.130   5.793  1.00  0.00     0.093 A 
HETATM   22  S   UNL     1      43.630 -11.724   5.645  1.00  0.00    -0.075 SA
HETATM   23  C   UNL     1      44.205 -10.708   6.870  1.00  0.00    -0.008 A 
HETATM   24  C   UNL     1      43.214  -9.911   7.406  1.00  0.00    -0.026 A 
HETATM   25  C   UNL     1      45.649 -10.688   7.268  1.00  0.00     0.047 C 
HETATM   26  C   UNL     1      43.504  -8.932   8.512  1.00  0.00     0.041 C 
HETATM   27  C   UNL     1      41.923 -10.198   6.819  1.00  0.00     0.072 A 
HETATM   28  C   UNL     1      45.012  -8.676   8.676  1.00  0.00     0.005 C 
HETATM   29  C   UNL     1      45.822  -9.977   8.618  1.00  0.00     0.005 C 
BRANCH  27  30
HETATM   30  C   UNL     1      40.666  -9.571   7.227  1.00  0.00     0.252 C 
HETATM   31  N   UNL     1      39.845 -10.344   8.007  1.00  0.00    -0.366 N 
HETATM   32  H   UNL     1      40.265 -11.088   8.553  1.00  0.00     0.159 HD
HETATM   33  H   UNL     1      39.096  -9.827   8.452  1.00  0.00     0.159 HD
HETATM   34  O   UNL     1      40.354  -8.416   6.965  1.00  0.00    -0.268 OA
ENDBRANCH  27  30
ENDBRANCH   2  21
TORSDOF 6
ENDMDL
MODEL 10
REMARK VINA RESULT:      -8.7      1.831      2.088
REMARK  6 active torsions:
REMARK  status: ('A' for Active; 'I' for Inactive)
REMARK    1  A    between atoms: C_7  and  C_8 
REMARK    2  A    between atoms: C_12  and  S_13 
REMARK    3  A    between atoms: S_13  and  C_14 
REMARK    4  A    between atoms: C_14  and  C_15 
REMARK       I    between atoms: C_15  and  N_16 
REMARK    5  A    between atoms: N_16  and  C_17 
REMARK    6  A    between atoms: C_25  and  C_26 
REMARK       I    between atoms: C_26  and  N_27 
ROOT
HETATM    1  C   UNL     1      40.217 -13.340   5.834  1.00  0.00     0.232 C 
HETATM    2  N   UNL     1      41.265 -13.438   4.940  1.00  0.00    -0.320 N 
HETATM    3  O   UNL     1      39.782 -14.247   6.543  1.00  0.00    -0.272 OA
HETATM    4  H   UNL     1      41.524 -12.583   4.458  1.00  0.00     0.169 HD
ENDROOT
BRANCH   1   5
HETATM    5  C   UNL     1      39.609 -11.946   5.990  1.00  0.00     0.185 C 
BRANCH   5   6
HETATM    6  S   UNL     1      40.567 -10.558   5.306  1.00  0.00    -0.081 SA
BRANCH   6   7
HETATM    7  C   UNL     1      41.668 -10.261   6.593  1.00  0.00     0.185 A 
HETATM    8  N   UNL     1      43.001 -10.472   6.471  1.00  0.00    -0.253 N 
HETATM    9  N   UNL     1      43.649 -10.064   7.572  1.00  0.00    -0.152 NA
HETATM   10  H   UNL     1      43.521 -10.851   5.688  1.00  0.00     0.191 HD
HETATM   11  C   UNL     1      42.646  -9.638   8.357  1.00  0.00     0.183 A 
HETATM   12  N   UNL     1      41.402  -9.743   7.761  1.00  0.00    -0.201 NA
BRANCH  11  13
HETATM   13  C   UNL     1      42.802  -9.021   9.674  1.00  0.00     0.035 A 
HETATM   14  C   UNL     1      42.648  -7.648   9.934  1.00  0.00     0.049 A 
HETATM   15  C   UNL     1      42.791  -7.151  11.239  1.00  0.00     0.048 A 
HETATM   16 CL   UNL     1      42.330  -6.464   8.710  1.00  0.00    -0.083 Cl
HETATM   17  C   UNL     1      43.100  -8.011  12.287  1.00  0.00     0.035 A 
HETATM   18  C   UNL     1      43.274  -9.370  12.052  1.00  0.00     0.025 A 
HETATM   19 CL   UNL     1      43.275  -7.391  13.881  1.00  0.00    -0.084 Cl
HETATM   20  C   UNL     1      43.127  -9.869  10.755  1.00  0.00     0.019 A 
ENDBRANCH  11  13
ENDBRANCH   6   7
ENDBRANCH   5   6
ENDBRANCH   1   5
BRANCH   2  21
HETATM   21  C   UNL     1      41.887 -14.589   4.476  1.00  0.00     0.093 A 
HETATM   22  S   UNL     1      43.085 -15.371   5.393  1.00  0.00    -0.075 SA
HETATM   23  C   UNL     1      43.197 -16.652   4.293  1.00  0.00    -0.008 A 
HETATM   24  C   UNL     1      42.337 -16.508   3.222  1.00  0.00    -0.026 A 
HETATM   25  C   UNL     1      44.118 -17.811   4.519  1.00  0.00     0.047 C 
HETATM   26  C   UNL     1      42.273 -17.532   2.121  1.00  0.00     0.041 C 
HETATM   27  C   UNL     1      41.605 -15.261   3.291  1.00  0.00     0.072 A 
HETATM   28  C   UNL     1      42.953 -18.853   2.521  1.00  0.00     0.005 C 
HETATM   29  C   UNL     1      44.296 -18.614   3.222  1.00  0.00     0.005 C 
BRANCH  27  30
HETATM   30  C   UNL     1      40.672 -14.787   2.269  1.00  0.00     0.252 C 
HETATM   31  N   UNL     1      39.358 -15.126   2.466  1.00  0.00    -0.366 N 
HETATM   32  H   UNL     1      39.051 -15.321   3.412  1.00  0.00     0.159 HD
HETATM   33  H   UNL     1      38.710 -14.615   1.879  1.00  0.00     0.159 HD
HETATM   34  O   UNL     1      40.987 -14.081   1.320  1.00  0.00    -0.268 OA
ENDBRANCH  27  30
ENDBRANCH   2  21
TORSDOF 6
ENDMDL
