MODEL 1
REMARK VINA RESULT:      -8.7      0.000      0.000
REMARK  10 active torsions:
REMARK  status: ('A' for Active; 'I' for Inactive)
REMARK    1  A    between atoms: C_2  and  N_3 
REMARK    2  A    between atoms: N_3  and  C_4 
REMARK    3  A    between atoms: N_3  and  C_37 
REMARK    4  A    between atoms: C_7  and  C_8 
REMARK    5  A    between atoms: N_9  and  C_11 
REMARK    6  A    between atoms: C_11  and  C_12 
REMARK       I    between atoms: C_12  and  N_13 
REMARK    7  A    between atoms: N_13  and  C_14 
REMARK    8  A    between atoms: C_20  and  C_21 
REMARK    9  A    between atoms: C_21  and  O_22 
REMARK   10  A    between atoms: C_28  and  O_29 
ROOT
HETATM    1  C   UNL     1      40.306 -13.462   0.213  1.00  0.00     0.228 C 
HETATM    2  N   UNL     1      39.784 -12.403   1.176  1.00  0.00    -0.054 N 
HETATM    3  H   UNL     1      40.625 -12.032   1.651  1.00  0.00     0.281 HD
HETATM    4  C   UNL     1      39.223 -11.196   0.466  1.00  0.00     0.239 C 
HETATM    5  C   UNL     1      38.097 -11.603  -0.472  1.00  0.00     0.066 C 
HETATM    6  C   UNL     1      38.590 -12.630  -1.490  1.00  0.00     0.065 C 
HETATM    7  C   UNL     1      39.183 -13.874  -0.780  1.00  0.00     0.055 C 
HETATM    8  C   UNL     1      37.456 -13.042  -2.445  1.00  0.00     0.038 C 
HETATM    9  C   UNL     1      37.923 -14.064  -3.480  1.00  0.00     0.003 C 
HETATM   10  C   UNL     1      38.578 -15.270  -2.821  1.00  0.00     0.001 C 
HETATM   11  C   UNL     1      39.692 -14.866  -1.856  1.00  0.00     0.010 C 
ENDROOT
BRANCH   2  12
HETATM   12  C   UNL     1      38.940 -12.864   2.374  1.00  0.00     0.338 C 
BRANCH  12  13
HETATM   13  C   UNL     1      39.714 -12.582   3.670  1.00  0.00     0.248 C 
HETATM   14  N   UNL     1      41.014 -13.033   3.673  1.00  0.00    -0.319 N 
HETATM   15  H   UNL     1      41.525 -13.105   2.791  1.00  0.00     0.169 HD
HETATM   16  O   UNL     1      39.103 -12.038   4.591  1.00  0.00    -0.271 OA
BRANCH  14  17
HETATM   17  C   UNL     1      41.800 -13.228   4.805  1.00  0.00     0.094 A 
HETATM   18  S   UNL     1      41.504 -14.539   5.835  1.00  0.00    -0.076 SA
HETATM   19  C   UNL     1      42.842 -14.176   6.821  1.00  0.00    -0.012 A 
HETATM   20  C   UNL     1      43.142 -15.050   7.998  1.00  0.00     0.057 C 
HETATM   21  C   UNL     1      43.525 -13.048   6.384  1.00  0.00    -0.030 A 
HETATM   22  C   UNL     1      44.739 -12.493   7.070  1.00  0.00     0.050 C 
HETATM   23  C   UNL     1      42.920 -12.496   5.176  1.00  0.00     0.080 A 
BRANCH  23  24
HETATM   24  C   UNL     1      43.350 -11.330   4.394  1.00  0.00     0.296 C 
HETATM   25  O   UNL     1      44.443 -11.294   3.831  1.00  0.00    -0.259 OA
BRANCH  24  26
HETATM   26  O   UNL     1      42.434 -10.326   4.354  1.00  0.00    -0.322 OA
HETATM   27  C   UNL     1      42.105  -9.760   5.624  1.00  0.00     0.213 C 
ENDBRANCH  24  26
ENDBRANCH  23  24
ENDBRANCH  14  17
ENDBRANCH  12  13
ENDBRANCH   2  12
BRANCH   1  28
HETATM   28  C   UNL     1      41.030 -14.577   0.954  1.00  0.00    -0.027 A 
HETATM   29  C   UNL     1      42.422 -14.610   1.129  1.00  0.00     0.011 A 
HETATM   30  C   UNL     1      43.028 -15.616   1.894  1.00  0.00     0.030 A 
HETATM   31  C   UNL     1      42.277 -16.642   2.472  1.00  0.00     0.030 A 
HETATM   32  C   UNL     1      40.899 -16.650   2.227  1.00  0.00     0.030 A 
HETATM   33  C   UNL     1      40.280 -15.635   1.491  1.00  0.00     0.011 A 
BRANCH  31  34
HETATM   34  N   UNL     1      42.826 -17.619   3.299  1.00  0.00    -0.382 N 
BRANCH  34  35
HETATM   35  C   UNL     1      42.950 -17.363   4.742  1.00  0.00     0.118 C 
HETATM   36  C   UNL     1      44.405 -17.144   5.137  1.00  0.00     0.026 C 
ENDBRANCH  34  35
BRANCH  34  37
HETATM   37  C   UNL     1      43.861 -18.466   2.686  1.00  0.00     0.118 C 
HETATM   38  C   UNL     1      43.294 -19.776   2.156  1.00  0.00     0.026 C 
ENDBRANCH  34  37
ENDBRANCH  31  34
ENDBRANCH   1  28
BRANCH   6  39
HETATM   39  O   UNL     1      39.635 -11.998  -2.238  1.00  0.00    -0.389 OA
HETATM   40  H   UNL     1      40.385 -12.617  -2.337  1.00  0.00     0.210 HD
ENDBRANCH   6  39
TORSDOF 10
ENDMDL
MODEL 2
REMARK VINA RESULT:      -8.6      1.487      2.021
REMARK  10 active torsions:
REMARK  status: ('A' for Active; 'I' for Inactive)
REMARK    1  A    between atoms: C_2  and  N_3 
REMARK    2  A    between atoms: N_3  and  C_4 
REMARK    3  A    between atoms: N_3  and  C_37 
REMARK    4  A    between atoms: C_7  and  C_8 
REMARK    5  A    between atoms: N_9  and  C_11 
REMARK    6  A    between atoms: C_11  and  C_12 
REMARK       I    between atoms: C_12  and  N_13 
REMARK    7  A    between atoms: N_13  and  C_14 
REMARK    8  A    between atoms: C_20  and  C_21 
REMARK    9  A    between atoms: C_21  and  O_22 
REMARK   10  A    between atoms: C_28  and  O_29 
ROOT
HETATM    1  C   UNL     1      40.725 -13.347   1.031  1.00  0.00     0.228 C 
HETATM    2  N   UNL     1      40.222 -12.394   2.108  1.00  0.00    -0.054 N 
HETATM    3  H   UNL     1      41.069 -12.099   2.623  1.00  0.00     0.281 HD
HETATM    4  C   UNL     1      39.689 -11.101   1.541  1.00  0.00     0.239 C 
HETATM    5  C   UNL     1      38.558 -11.373   0.561  1.00  0.00     0.066 C 
HETATM    6  C   UNL     1      39.032 -12.288  -0.567  1.00  0.00     0.065 C 
HETATM    7  C   UNL     1      39.596 -13.617  -0.005  1.00  0.00     0.055 C 
HETATM    8  C   UNL     1      37.893 -12.562  -1.565  1.00  0.00     0.038 C 
HETATM    9  C   UNL     1      38.342 -13.468  -2.710  1.00  0.00     0.003 C 
HETATM   10  C   UNL     1      38.968 -14.756  -2.193  1.00  0.00     0.001 C 
HETATM   11  C   UNL     1      40.087 -14.490  -1.187  1.00  0.00     0.010 C 
ENDROOT
BRANCH   2  12
HETATM   12  C   UNL     1      39.364 -12.971   3.244  1.00  0.00     0.338 C 
BRANCH  12  13
HETATM   13  C   UNL     1      39.942 -12.512   4.591  1.00  0.00     0.248 C 
HETATM   14  N   UNL     1      40.639 -11.328   4.544  1.00  0.00    -0.319 N 
HETATM   15  H   UNL     1      40.399 -10.628   3.838  1.00  0.00     0.169 HD
HETATM   16  O   UNL     1      39.779 -13.253   5.562  1.00  0.00    -0.271 OA
BRANCH  14  17
HETATM   17  C   UNL     1      41.542 -10.882   5.505  1.00  0.00     0.094 A 
HETATM   18  S   UNL     1      41.004  -9.969   6.826  1.00  0.00    -0.076 SA
HETATM   19  C   UNL     1      42.551  -9.923   7.532  1.00  0.00    -0.012 A 
HETATM   20  C   UNL     1      42.740  -9.208   8.833  1.00  0.00     0.057 C 
HETATM   21  C   UNL     1      43.497 -10.594   6.768  1.00  0.00    -0.030 A 
HETATM   22  C   UNL     1      44.945 -10.705   7.147  1.00  0.00     0.050 C 
HETATM   23  C   UNL     1      42.897 -11.180   5.574  1.00  0.00     0.080 A 
BRANCH  23  24
HETATM   24  C   UNL     1      43.546 -11.981   4.528  1.00  0.00     0.296 C 
HETATM   25  O   UNL     1      44.399 -11.502   3.781  1.00  0.00    -0.259 OA
BRANCH  24  26
HETATM   26  O   UNL     1      43.122 -13.271   4.480  1.00  0.00    -0.322 OA
HETATM   27  C   UNL     1      43.254 -13.994   5.705  1.00  0.00     0.213 C 
ENDBRANCH  24  26
ENDBRANCH  23  24
ENDBRANCH  14  17
ENDBRANCH  12  13
ENDBRANCH   2  12
BRANCH   1  28
HETATM   28  C   UNL     1      41.422 -14.555   1.638  1.00  0.00    -0.027 A 
HETATM   29  C   UNL     1      42.790 -14.817   1.478  1.00  0.00     0.011 A 
HETATM   30  C   UNL     1      43.398 -15.898   2.132  1.00  0.00     0.030 A 
HETATM   31  C   UNL     1      42.659 -16.775   2.930  1.00  0.00     0.030 A 
HETATM   32  C   UNL     1      41.280 -16.557   3.021  1.00  0.00     0.030 A 
HETATM   33  C   UNL     1      40.668 -15.464   2.397  1.00  0.00     0.011 A 
BRANCH  31  34
HETATM   34  N   UNL     1      43.232 -17.816   3.655  1.00  0.00    -0.382 N 
BRANCH  34  35
HETATM   35  C   UNL     1      43.598 -17.605   5.064  1.00  0.00     0.118 C 
HETATM   36  C   UNL     1      43.653 -18.926   5.821  1.00  0.00     0.026 C 
ENDBRANCH  34  35
BRANCH  34  37
HETATM   37  C   UNL     1      44.076 -18.742   2.884  1.00  0.00     0.118 C 
HETATM   38  C   UNL     1      43.254 -19.773   2.123  1.00  0.00     0.026 C 
ENDBRANCH  34  37
ENDBRANCH  31  34
ENDBRANCH   1  28
BRANCH   6  39
HETATM   39  O   UNL     1      40.093 -11.596  -1.237  1.00  0.00    -0.389 OA
HETATM   40  H   UNL     1      40.063 -10.648  -1.002  1.00  0.00     0.210 HD
ENDBRANCH   6  39
TORSDOF 10
ENDMDL
MODEL 3
REMARK VINA RESULT:      -8.4      1.639      2.090
REMARK  10 active torsions:
REMARK  status: ('A' for Active; 'I' for Inactive)
REMARK    1  A    between atoms: C_2  and  N_3 
REMARK    2  A    between atoms: N_3  and  C_4 
REMARK    3  A    between atoms: N_3  and  C_37 
REMARK    4  A    between atoms: C_7  and  C_8 
REMARK    5  A    between atoms: N_9  and  C_11 
REMARK    6  A    between atoms: C_11  and  C_12 
REMARK       I    between atoms: C_12  and  N_13 
REMARK    7  A    between atoms: N_13  and  C_14 
REMARK    8  A    between atoms: C_20  and  C_21 
REMARK    9  A    between atoms: C_21  and  O_22 
REMARK   10  A    between atoms: C_28  and  O_29 
ROOT
HETATM    1  C   UNL     1      40.580 -13.272   0.655  1.00  0.00     0.228 C 
HETATM    2  N   UNL     1      40.046 -12.265   1.666  1.00  0.00    -0.054 N 
HETATM    3  H   UNL     1      40.885 -11.897   2.148  1.00  0.00     0.281 HD
HETATM    4  C   UNL     1      39.454 -11.041   1.013  1.00  0.00     0.239 C 
HETATM    5  C   UNL     1      38.327 -11.432   0.070  1.00  0.00     0.066 C 
HETATM    6  C   UNL     1      38.830 -12.406  -0.995  1.00  0.00     0.065 C 
HETATM    7  C   UNL     1      39.455 -13.665  -0.344  1.00  0.00     0.055 C 
HETATM    8  C   UNL     1      37.694 -12.800  -1.956  1.00  0.00     0.038 C 
HETATM    9  C   UNL     1      38.171 -13.768  -3.037  1.00  0.00     0.003 C 
HETATM   10  C   UNL     1      38.857 -14.988  -2.435  1.00  0.00     0.001 C 
HETATM   11  C   UNL     1      39.973 -14.601  -1.465  1.00  0.00     0.010 C 
ENDROOT
BRANCH   2  12
HETATM   12  C   UNL     1      39.224 -12.793   2.852  1.00  0.00     0.338 C 
BRANCH  12  13
HETATM   13  C   UNL     1      40.092 -12.756   4.119  1.00  0.00     0.248 C 
HETATM   14  N   UNL     1      40.695 -11.546   4.368  1.00  0.00    -0.319 N 
HETATM   15  H   UNL     1      40.254 -10.684   4.040  1.00  0.00     0.169 HD
HETATM   16  O   UNL     1      40.211 -13.804   4.757  1.00  0.00    -0.271 OA
BRANCH  14  17
HETATM   17  C   UNL     1      41.783 -11.343   5.212  1.00  0.00     0.094 A 
HETATM   18  S   UNL     1      43.321 -11.901   4.774  1.00  0.00    -0.076 SA
HETATM   19  C   UNL     1      44.054 -11.218   6.150  1.00  0.00    -0.012 A 
HETATM   20  C   UNL     1      45.529 -11.375   6.346  1.00  0.00     0.057 C 
HETATM   21  C   UNL     1      43.136 -10.566   6.963  1.00  0.00    -0.030 A 
HETATM   22  C   UNL     1      43.504  -9.881   8.248  1.00  0.00     0.050 C 
HETATM   23  C   UNL     1      41.792 -10.622   6.399  1.00  0.00     0.080 A 
BRANCH  23  24
HETATM   24  C   UNL     1      40.555 -10.040   6.935  1.00  0.00     0.296 C 
HETATM   25  O   UNL     1      39.594 -10.739   7.255  1.00  0.00    -0.259 OA
BRANCH  24  26
HETATM   26  O   UNL     1      40.586  -8.685   7.044  1.00  0.00    -0.322 OA
HETATM   27  C   UNL     1      40.002  -7.980   5.947  1.00  0.00     0.213 C 
ENDBRANCH  24  26
ENDBRANCH  23  24
ENDBRANCH  14  17
ENDBRANCH  12  13
ENDBRANCH   2  12
BRANCH   1  28
HETATM   28  C   UNL     1      41.334 -14.402   1.341  1.00  0.00    -0.027 A 
HETATM   29  C   UNL     1      42.678 -14.307   1.731  1.00  0.00     0.011 A 
HETATM   30  C   UNL     1      43.298 -15.348   2.437  1.00  0.00     0.030 A 
HETATM   31  C   UNL     1      42.617 -16.528   2.741  1.00  0.00     0.030 A 
HETATM   32  C   UNL     1      41.301 -16.651   2.280  1.00  0.00     0.030 A 
HETATM   33  C   UNL     1      40.663 -15.608   1.601  1.00  0.00     0.011 A 
BRANCH  31  34
HETATM   34  N   UNL     1      43.168 -17.556   3.503  1.00  0.00    -0.382 N 
BRANCH  34  35
HETATM   35  C   UNL     1      43.512 -17.311   4.912  1.00  0.00     0.118 C 
HETATM   36  C   UNL     1      42.293 -16.851   5.702  1.00  0.00     0.026 C 
ENDBRANCH  34  35
BRANCH  34  37
HETATM   37  C   UNL     1      44.018 -18.507   2.770  1.00  0.00     0.118 C 
HETATM   38  C   UNL     1      43.224 -19.687   2.226  1.00  0.00     0.026 C 
ENDBRANCH  34  37
ENDBRANCH  31  34
ENDBRANCH   1  28
BRANCH   6  39
HETATM   39  O   UNL     1      39.854 -11.721  -1.726  1.00  0.00    -0.389 OA
HETATM   40  H   UNL     1      40.449 -12.376  -2.142  1.00  0.00     0.210 HD
ENDBRANCH   6  39
TORSDOF 10
ENDMDL
MODEL 4
REMARK VINA RESULT:      -7.9      2.709      6.648
REMARK  10 active torsions:
REMARK  status: ('A' for Active; 'I' for Inactive)
REMARK    1  A    between atoms: C_2  and  N_3 
REMARK    2  A    between atoms: N_3  and  C_4 
REMARK    3  A    between atoms: N_3  and  C_37 
REMARK    4  A    between atoms: C_7  and  C_8 
REMARK    5  A    between atoms: N_9  and  C_11 
REMARK    6  A    between atoms: C_11  and  C_12 
REMARK       I    between atoms: C_12  and  N_13 
REMARK    7  A    between atoms: N_13  and  C_14 
REMARK    8  A    between atoms: C_20  and  C_21 
REMARK    9  A    between atoms: C_21  and  O_22 
REMARK   10  A    between atoms: C_28  and  O_29 
ROOT
HETATM    1  C   UNL     1      41.855 -14.584   4.275  1.00  0.00     0.228 C 
HETATM    2  N   UNL     1      42.418 -13.587   5.280  1.00  0.00    -0.054 N 
HETATM    3  H   UNL     1      41.609 -13.010   5.569  1.00  0.00     0.281 HD
HETATM    4  C   UNL     1      42.859 -14.241   6.566  1.00  0.00     0.239 C 
HETATM    5  C   UNL     1      43.910 -15.306   6.291  1.00  0.00     0.066 C 
HETATM    6  C   UNL     1      43.369 -16.358   5.324  1.00  0.00     0.065 C 
HETATM    7  C   UNL     1      42.898 -15.704   4.000  1.00  0.00     0.055 C 
HETATM    8  C   UNL     1      44.427 -17.441   5.047  1.00  0.00     0.038 C 
HETATM    9  C   UNL     1      43.910 -18.512   4.087  1.00  0.00     0.003 C 
HETATM   10  C   UNL     1      43.371 -17.900   2.801  1.00  0.00     0.001 C 
HETATM   11  C   UNL     1      42.335 -16.809   3.071  1.00  0.00     0.010 C 
ENDROOT
BRANCH   2  12
HETATM   12  C   UNL     1      43.389 -12.511   4.769  1.00  0.00     0.338 C 
BRANCH  12  13
HETATM   13  C   UNL     1      42.898 -11.132   5.235  1.00  0.00     0.248 C 
HETATM   14  N   UNL     1      43.191 -10.831   6.545  1.00  0.00    -0.319 N 
HETATM   15  H   UNL     1      44.016 -11.243   6.986  1.00  0.00     0.169 HD
HETATM   16  O   UNL     1      42.256 -10.455   4.431  1.00  0.00    -0.271 OA
BRANCH  14  17
HETATM   17  C   UNL     1      42.572  -9.842   7.304  1.00  0.00     0.094 A 
HETATM   18  S   UNL     1      40.885  -9.691   7.302  1.00  0.00    -0.076 SA
HETATM   19  C   UNL     1      40.910  -8.447   8.462  1.00  0.00    -0.012 A 
HETATM   20  C   UNL     1      39.616  -7.850   8.920  1.00  0.00     0.057 C 
HETATM   21  C   UNL     1      42.201  -8.125   8.859  1.00  0.00    -0.030 A 
HETATM   22  C   UNL     1      42.519  -7.057   9.865  1.00  0.00     0.050 C 
HETATM   23  C   UNL     1      43.188  -8.965   8.188  1.00  0.00     0.080 A 
BRANCH  23  24
HETATM   24  C   UNL     1      44.648  -8.957   8.346  1.00  0.00     0.296 C 
HETATM   25  O   UNL     1      45.298  -7.913   8.315  1.00  0.00    -0.259 OA
BRANCH  24  26
HETATM   26  O   UNL     1      45.187 -10.190   8.533  1.00  0.00    -0.322 OA
HETATM   27  C   UNL     1      46.376 -10.447   7.783  1.00  0.00     0.213 C 
ENDBRANCH  24  26
ENDBRANCH  23  24
ENDBRANCH  14  17
ENDBRANCH  12  13
ENDBRANCH   2  12
BRANCH   1  28
HETATM   28  C   UNL     1      41.251 -13.878   3.070  1.00  0.00    -0.027 A 
HETATM   29  C   UNL     1      41.966 -13.617   1.892  1.00  0.00     0.011 A 
HETATM   30  C   UNL     1      41.335 -13.041   0.780  1.00  0.00     0.030 A 
HETATM   31  C   UNL     1      39.990 -12.669   0.818  1.00  0.00     0.030 A 
HETATM   32  C   UNL     1      39.302 -12.857   2.023  1.00  0.00     0.030 A 
HETATM   33  C   UNL     1      39.913 -13.458   3.128  1.00  0.00     0.011 A 
BRANCH  31  34
HETATM   34  N   UNL     1      39.304 -12.162  -0.283  1.00  0.00    -0.382 N 
BRANCH  34  35
HETATM   35  C   UNL     1      37.956 -11.603  -0.105  1.00  0.00     0.118 C 
HETATM   36  C   UNL     1      37.488 -10.889  -1.367  1.00  0.00     0.026 C 
ENDBRANCH  34  35
BRANCH  34  37
HETATM   37  C   UNL     1      39.581 -12.826  -1.567  1.00  0.00     0.118 C 
HETATM   38  C   UNL     1      39.048 -14.252  -1.605  1.00  0.00     0.026 C 
ENDBRANCH  34  37
ENDBRANCH  31  34
ENDBRANCH   1  28
BRANCH   6  39
HETATM   39  O   UNL     1      42.234 -16.955   5.960  1.00  0.00    -0.389 OA
HETATM   40  H   UNL     1      41.848 -17.631   5.369  1.00  0.00     0.210 HD
ENDBRANCH   6  39
TORSDOF 10
ENDMDL
MODEL 5
REMARK VINA RESULT:      -7.8      2.567      7.499
REMARK  10 active torsions:
REMARK  status: ('A' for Active; 'I' for Inactive)
REMARK    1  A    between atoms: C_2  and  N_3 
REMARK    2  A    between atoms: N_3  and  C_4 
REMARK    3  A    between atoms: N_3  and  C_37 
REMARK    4  A    between atoms: C_7  and  C_8 
REMARK    5  A    between atoms: N_9  and  C_11 
REMARK    6  A    between atoms: C_11  and  C_12 
REMARK       I    between atoms: C_12  and  N_13 
REMARK    7  A    between atoms: N_13  and  C_14 
REMARK    8  A    between atoms: C_20  and  C_21 
REMARK    9  A    between atoms: C_21  and  O_22 
REMARK   10  A    between atoms: C_28  and  O_29 
ROOT
HETATM    1  C   UNL     1      42.942 -13.905   3.307  1.00  0.00     0.228 C 
HETATM    2  N   UNL     1      41.825 -13.226   2.524  1.00  0.00    -0.054 N 
HETATM    3  H   UNL     1      42.182 -12.277   2.315  1.00  0.00     0.281 HD
HETATM    4  C   UNL     1      41.621 -13.831   1.157  1.00  0.00     0.239 C 
HETATM    5  C   UNL     1      41.306 -15.314   1.271  1.00  0.00     0.066 C 
HETATM    6  C   UNL     1      42.426 -16.046   2.009  1.00  0.00     0.065 C 
HETATM    7  C   UNL     1      42.662 -15.431   3.412  1.00  0.00     0.055 C 
HETATM    8  C   UNL     1      42.115 -17.549   2.123  1.00  0.00     0.038 C 
HETATM    9  C   UNL     1      43.224 -18.309   2.850  1.00  0.00     0.003 C 
HETATM   10  C   UNL     1      43.534 -17.687   4.205  1.00  0.00     0.001 C 
HETATM   11  C   UNL     1      43.823 -16.190   4.101  1.00  0.00     0.010 C 
ENDROOT
BRANCH   2  12
HETATM   12  C   UNL     1      40.516 -12.901   3.259  1.00  0.00     0.338 C 
BRANCH  12  13
HETATM   13  C   UNL     1      39.758 -11.817   2.478  1.00  0.00     0.248 C 
HETATM   14  N   UNL     1      38.682 -12.275   1.755  1.00  0.00    -0.319 N 
HETATM   15  H   UNL     1      38.179 -13.107   2.070  1.00  0.00     0.169 HD
HETATM   16  O   UNL     1      40.201 -10.668   2.525  1.00  0.00    -0.271 OA
BRANCH  14  17
HETATM   17  C   UNL     1      38.064 -11.597   0.708  1.00  0.00     0.094 A 
HETATM   18  S   UNL     1      36.947 -10.365   1.029  1.00  0.00    -0.076 SA
HETATM   19  C   UNL     1      36.755  -9.993  -0.621  1.00  0.00    -0.012 A 
HETATM   20  C   UNL     1      35.825  -8.891  -1.018  1.00  0.00     0.057 C 
HETATM   21  C   UNL     1      37.532 -10.808  -1.435  1.00  0.00    -0.030 A 
HETATM   22  C   UNL     1      37.552 -10.707  -2.933  1.00  0.00     0.050 C 
HETATM   23  C   UNL     1      38.323 -11.747  -0.648  1.00  0.00     0.080 A 
BRANCH  23  24
HETATM   24  C   UNL     1      39.280 -12.754  -1.125  1.00  0.00     0.296 C 
HETATM   25  O   UNL     1      39.025 -13.957  -1.092  1.00  0.00    -0.259 OA
BRANCH  24  26
HETATM   26  O   UNL     1      40.440 -12.229  -1.600  1.00  0.00    -0.322 OA
HETATM   27  C   UNL     1      40.795 -12.648  -2.919  1.00  0.00     0.213 C 
ENDBRANCH  24  26
ENDBRANCH  23  24
ENDBRANCH  14  17
ENDBRANCH  12  13
ENDBRANCH   2  12
BRANCH   1  28
HETATM   28  C   UNL     1      43.248 -13.159   4.598  1.00  0.00    -0.027 A 
HETATM   29  C   UNL     1      43.041 -13.707   5.872  1.00  0.00     0.011 A 
HETATM   30  C   UNL     1      43.422 -13.008   7.027  1.00  0.00     0.030 A 
HETATM   31  C   UNL     1      43.981 -11.730   6.953  1.00  0.00     0.030 A 
HETATM   32  C   UNL     1      44.111 -11.155   5.683  1.00  0.00     0.030 A 
HETATM   33  C   UNL     1      43.762 -11.855   4.523  1.00  0.00     0.011 A 
BRANCH  31  34
HETATM   34  N   UNL     1      44.441 -11.031   8.066  1.00  0.00    -0.382 N 
BRANCH  34  35
HETATM   35  C   UNL     1      43.540 -10.101   8.763  1.00  0.00     0.118 C 
HETATM   36  C   UNL     1      43.516 -10.381  10.261  1.00  0.00     0.026 C 
ENDBRANCH  34  35
BRANCH  34  37
HETATM   37  C   UNL     1      45.871 -10.684   8.054  1.00  0.00     0.118 C 
HETATM   38  C   UNL     1      46.098  -9.179   8.126  1.00  0.00     0.026 C 
ENDBRANCH  34  37
ENDBRANCH  31  34
ENDBRANCH   1  28
BRANCH   6  39
HETATM   39  O   UNL     1      43.615 -15.865   1.232  1.00  0.00    -0.389 OA
HETATM   40  H   UNL     1      43.529 -16.349   0.386  1.00  0.00     0.210 HD
ENDBRANCH   6  39
TORSDOF 10
ENDMDL
MODEL 6
REMARK VINA RESULT:      -7.7      2.356      7.271
REMARK  10 active torsions:
REMARK  status: ('A' for Active; 'I' for Inactive)
REMARK    1  A    between atoms: C_2  and  N_3 
REMARK    2  A    between atoms: N_3  and  C_4 
REMARK    3  A    between atoms: N_3  and  C_37 
REMARK    4  A    between atoms: C_7  and  C_8 
REMARK    5  A    between atoms: N_9  and  C_11 
REMARK    6  A    between atoms: C_11  and  C_12 
REMARK       I    between atoms: C_12  and  N_13 
REMARK    7  A    between atoms: N_13  and  C_14 
REMARK    8  A    between atoms: C_20  and  C_21 
REMARK    9  A    between atoms: C_21  and  O_22 
REMARK   10  A    between atoms: C_28  and  O_29 
ROOT
HETATM    1  C   UNL     1      41.672 -11.784   6.194  1.00  0.00     0.228 C 
HETATM    2  N   UNL     1      40.785 -10.951   5.277  1.00  0.00    -0.054 N 
HETATM    3  H   UNL     1      39.916 -11.503   5.170  1.00  0.00     0.281 HD
HETATM    4  C   UNL     1      40.310  -9.675   5.927  1.00  0.00     0.239 C 
HETATM    5  C   UNL     1      41.494  -8.827   6.365  1.00  0.00     0.066 C 
HETATM    6  C   UNL     1      42.387  -9.607   7.328  1.00  0.00     0.065 C 
HETATM    7  C   UNL     1      42.875 -10.930   6.685  1.00  0.00     0.055 C 
HETATM    8  C   UNL     1      43.584  -8.751   7.779  1.00  0.00     0.038 C 
HETATM    9  C   UNL     1      44.492  -9.504   8.751  1.00  0.00     0.003 C 
HETATM   10  C   UNL     1      44.934 -10.845   8.180  1.00  0.00     0.001 C 
HETATM   11  C   UNL     1      43.750 -11.691   7.712  1.00  0.00     0.010 C 
ENDROOT
BRANCH   2  12
HETATM   12  C   UNL     1      41.215 -10.778   3.812  1.00  0.00     0.338 C 
BRANCH  12  13
HETATM   13  C   UNL     1      40.302 -11.630   2.918  1.00  0.00     0.248 C 
HETATM   14  N   UNL     1      40.802 -11.885   1.663  1.00  0.00    -0.319 N 
HETATM   15  H   UNL     1      41.813 -11.918   1.519  1.00  0.00     0.169 HD
HETATM   16  O   UNL     1      39.205 -11.958   3.374  1.00  0.00    -0.271 OA
BRANCH  14  17
HETATM   17  C   UNL     1      40.056 -12.307   0.566  1.00  0.00     0.094 A 
HETATM   18  S   UNL     1      39.156 -11.192  -0.336  1.00  0.00    -0.076 SA
HETATM   19  C   UNL     1      38.674 -12.368  -1.468  1.00  0.00    -0.012 A 
HETATM   20  C   UNL     1      37.797 -11.965  -2.612  1.00  0.00     0.057 C 
HETATM   21  C   UNL     1      39.185 -13.624  -1.168  1.00  0.00    -0.030 A 
HETATM   22  C   UNL     1      38.914 -14.849  -1.992  1.00  0.00     0.050 C 
HETATM   23  C   UNL     1      40.021 -13.587   0.027  1.00  0.00     0.080 A 
BRANCH  23  24
HETATM   24  C   UNL     1      40.757 -14.690   0.658  1.00  0.00     0.296 C 
HETATM   25  O   UNL     1      41.982 -14.669   0.776  1.00  0.00    -0.259 OA
BRANCH  24  26
HETATM   26  O   UNL     1      39.962 -15.704   1.092  1.00  0.00    -0.322 OA
HETATM   27  C   UNL     1      39.547 -15.601   2.455  1.00  0.00     0.213 C 
ENDBRANCH  24  26
ENDBRANCH  23  24
ENDBRANCH  14  17
ENDBRANCH  12  13
ENDBRANCH   2  12
BRANCH   1  28
HETATM   28  C   UNL     1      41.981 -13.144   5.584  1.00  0.00    -0.027 A 
HETATM   29  C   UNL     1      42.962 -13.343   4.602  1.00  0.00     0.011 A 
HETATM   30  C   UNL     1      43.265 -14.631   4.138  1.00  0.00     0.030 A 
HETATM   31  C   UNL     1      42.576 -15.753   4.602  1.00  0.00     0.030 A 
HETATM   32  C   UNL     1      41.542 -15.540   5.522  1.00  0.00     0.030 A 
HETATM   33  C   UNL     1      41.251 -14.263   6.015  1.00  0.00     0.011 A 
BRANCH  31  34
HETATM   34  N   UNL     1      42.891 -17.056   4.225  1.00  0.00    -0.382 N 
BRANCH  34  35
HETATM   35  C   UNL     1      43.991 -17.761   4.900  1.00  0.00     0.118 C 
HETATM   36  C   UNL     1      43.491 -18.508   6.130  1.00  0.00     0.026 C 
ENDBRANCH  34  35
BRANCH  34  37
HETATM   37  C   UNL     1      42.668 -17.381   2.808  1.00  0.00     0.118 C 
HETATM   38  C   UNL     1      43.310 -18.704   2.413  1.00  0.00     0.026 C 
ENDBRANCH  34  37
ENDBRANCH  31  34
ENDBRANCH   1  28
BRANCH   6  39
HETATM   39  O   UNL     1      41.580  -9.931   8.466  1.00  0.00    -0.389 OA
HETATM   40  H   UNL     1      41.987 -10.674   8.953  1.00  0.00     0.210 HD
ENDBRANCH   6  39
TORSDOF 10
ENDMDL
MODEL 7
REMARK VINA RESULT:      -7.5      1.991      2.981
REMARK  10 active torsions:
REMARK  status: ('A' for Active; 'I' for Inactive)
REMARK    1  A    between atoms: C_2  and  N_3 
REMARK    2  A    between atoms: N_3  and  C_4 
REMARK    3  A    between atoms: N_3  and  C_37 
REMARK    4  A    between atoms: C_7  and  C_8 
REMARK    5  A    between atoms: N_9  and  C_11 
REMARK    6  A    between atoms: C_11  and  C_12 
REMARK       I    between atoms: C_12  and  N_13 
REMARK    7  A    between atoms: N_13  and  C_14 
REMARK    8  A    between atoms: C_20  and  C_21 
REMARK    9  A    between atoms: C_21  and  O_22 
REMARK   10  A    between atoms: C_28  and  O_29 
ROOT
HETATM    1  C   UNL     1      41.445 -12.668   0.763  1.00  0.00     0.228 C 
HETATM    2  N   UNL     1      41.770 -11.463   1.636  1.00  0.00    -0.054 N 
HETATM    3  H   UNL     1      42.778 -11.550   1.851  1.00  0.00     0.281 HD
HETATM    4  C   UNL     1      41.684 -10.158   0.884  1.00  0.00     0.239 C 
HETATM    5  C   UNL     1      40.296  -9.973   0.291  1.00  0.00     0.066 C 
HETATM    6  C   UNL     1      39.948 -11.138  -0.634  1.00  0.00     0.065 C 
HETATM    7  C   UNL     1      40.042 -12.491   0.116  1.00  0.00     0.055 C 
HETATM    8  C   UNL     1      38.546 -10.953  -1.242  1.00  0.00     0.038 C 
HETATM    9  C   UNL     1      38.173 -12.101  -2.179  1.00  0.00     0.003 C 
HETATM   10  C   UNL     1      38.324 -13.454  -1.496  1.00  0.00     0.001 C 
HETATM   11  C   UNL     1      39.708 -13.635  -0.874  1.00  0.00     0.010 C 
ENDROOT
BRANCH   2  12
HETATM   12  C   UNL     1      41.164 -11.405   3.047  1.00  0.00     0.338 C 
BRANCH  12  13
HETATM   13  C   UNL     1      42.291 -11.181   4.067  1.00  0.00     0.248 C 
HETATM   14  N   UNL     1      41.885 -11.175   5.381  1.00  0.00    -0.319 N 
HETATM   15  H   UNL     1      41.061 -11.713   5.657  1.00  0.00     0.169 HD
HETATM   16  O   UNL     1      43.424 -10.979   3.627  1.00  0.00    -0.271 OA
BRANCH  14  17
HETATM   17  C   UNL     1      42.609 -10.652   6.448  1.00  0.00     0.094 A 
HETATM   18  S   UNL     1      43.888 -11.530   7.127  1.00  0.00    -0.076 SA
HETATM   19  C   UNL     1      44.295 -10.272   8.198  1.00  0.00    -0.012 A 
HETATM   20  C   UNL     1      45.448 -10.454   9.135  1.00  0.00     0.057 C 
HETATM   21  C   UNL     1      43.458  -9.173   8.059  1.00  0.00    -0.030 A 
HETATM   22  C   UNL     1      43.581  -7.924   8.883  1.00  0.00     0.050 C 
HETATM   23  C   UNL     1      42.469  -9.388   7.008  1.00  0.00     0.080 A 
BRANCH  23  24
HETATM   24  C   UNL     1      41.425  -8.468   6.538  1.00  0.00     0.296 C 
HETATM   25  O   UNL     1      41.698  -7.385   6.024  1.00  0.00    -0.259 OA
BRANCH  24  26
HETATM   26  O   UNL     1      40.161  -8.933   6.721  1.00  0.00    -0.322 OA
HETATM   27  C   UNL     1      39.690  -8.882   8.070  1.00  0.00     0.213 C 
ENDBRANCH  24  26
ENDBRANCH  23  24
ENDBRANCH  14  17
ENDBRANCH  12  13
ENDBRANCH   2  12
BRANCH   1  28
HETATM   28  C   UNL     1      41.719 -13.974   1.494  1.00  0.00    -0.027 A 
HETATM   29  C   UNL     1      40.707 -14.849   1.915  1.00  0.00     0.011 A 
HETATM   30  C   UNL     1      41.019 -16.080   2.508  1.00  0.00     0.030 A 
HETATM   31  C   UNL     1      42.343 -16.463   2.738  1.00  0.00     0.030 A 
HETATM   32  C   UNL     1      43.347 -15.551   2.389  1.00  0.00     0.030 A 
HETATM   33  C   UNL     1      43.048 -14.333   1.770  1.00  0.00     0.011 A 
BRANCH  31  34
HETATM   34  N   UNL     1      42.702 -17.705   3.255  1.00  0.00    -0.382 N 
BRANCH  34  35
HETATM   35  C   UNL     1      43.576 -17.775   4.436  1.00  0.00     0.118 C 
HETATM   36  C   UNL     1      42.876 -17.218   5.669  1.00  0.00     0.026 C 
ENDBRANCH  34  35
BRANCH  34  37
HETATM   37  C   UNL     1      42.830 -18.791   2.271  1.00  0.00     0.118 C 
HETATM   38  C   UNL     1      43.816 -19.862   2.721  1.00  0.00     0.026 C 
ENDBRANCH  34  37
ENDBRANCH  31  34
ENDBRANCH   1  28
BRANCH   6  39
HETATM   39  O   UNL     1      40.923 -11.135  -1.683  1.00  0.00    -0.389 OA
HETATM   40  H   UNL     1      40.877 -11.980  -2.173  1.00  0.00     0.210 HD
ENDBRANCH   6  39
TORSDOF 10
ENDMDL
MODEL 8
REMARK VINA RESULT:      -7.5      2.683      6.922
REMARK  10 active torsions:
REMARK  status: ('A' for Active; 'I' for Inactive)
REMARK    1  A    between atoms: C_2  and  N_3 
REMARK    2  A    between atoms: N_3  and  C_4 
REMARK    3  A    between atoms: N_3  and  C_37 
REMARK    4  A    between atoms: C_7  and  C_8 
REMARK    5  A    between atoms: N_9  and  C_11 
REMARK    6  A    between atoms: C_11  and  C_12 
REMARK       I    between atoms: C_12  and  N_13 
REMARK    7  A    between atoms: N_13  and  C_14 
REMARK    8  A    between atoms: C_20  and  C_21 
REMARK    9  A    between atoms: C_21  and  O_22 
REMARK   10  A    between atoms: C_28  and  O_29 
ROOT
HETATM    1  C   UNL     1      41.716 -14.722   4.251  1.00  0.00     0.228 C 
HETATM    2  N   UNL     1      42.082 -13.691   5.311  1.00  0.00    -0.054 N 
HETATM    3  H   UNL     1      41.198 -13.195   5.521  1.00  0.00     0.281 HD
HETATM    4  C   UNL     1      42.453 -14.319   6.631  1.00  0.00     0.239 C 
HETATM    5  C   UNL     1      43.621 -15.278   6.458  1.00  0.00     0.066 C 
HETATM    6  C   UNL     1      43.279 -16.362   5.437  1.00  0.00     0.065 C 
HETATM    7  C   UNL     1      42.881 -15.737   4.076  1.00  0.00     0.055 C 
HETATM    8  C   UNL     1      44.455 -17.338   5.262  1.00  0.00     0.038 C 
HETATM    9  C   UNL     1      44.138 -18.440   4.251  1.00  0.00     0.003 C 
HETATM   10  C   UNL     1      43.673 -17.863   2.920  1.00  0.00     0.001 C 
HETATM   11  C   UNL     1      42.518 -16.877   3.091  1.00  0.00     0.010 C 
ENDROOT
BRANCH   2  12
HETATM   12  C   UNL     1      42.993 -12.523   4.903  1.00  0.00     0.338 C 
BRANCH  12  13
HETATM   13  C   UNL     1      42.452 -11.226   5.523  1.00  0.00     0.248 C 
HETATM   14  N   UNL     1      41.192 -10.869   5.102  1.00  0.00    -0.319 N 
HETATM   15  H   UNL     1      40.535 -11.593   4.806  1.00  0.00     0.169 HD
HETATM   16  O   UNL     1      43.197 -10.606   6.284  1.00  0.00    -0.271 OA
BRANCH  14  17
HETATM   17  C   UNL     1      40.630  -9.601   5.219  1.00  0.00     0.094 A 
HETATM   18  S   UNL     1      40.908  -8.429   4.029  1.00  0.00    -0.076 SA
HETATM   19  C   UNL     1      39.874  -7.303   4.776  1.00  0.00    -0.012 A 
HETATM   20  C   UNL     1      39.677  -5.961   4.145  1.00  0.00     0.057 C 
HETATM   21  C   UNL     1      39.312  -7.802   5.944  1.00  0.00    -0.030 A 
HETATM   22  C   UNL     1      38.368  -7.020   6.812  1.00  0.00     0.050 C 
HETATM   23  C   UNL     1      39.743  -9.172   6.198  1.00  0.00     0.080 A 
BRANCH  23  24
HETATM   24  C   UNL     1      39.362 -10.055   7.308  1.00  0.00     0.296 C 
HETATM   25  O   UNL     1      38.568 -10.983   7.155  1.00  0.00    -0.259 OA
BRANCH  24  26
HETATM   26  O   UNL     1      39.968  -9.752   8.486  1.00  0.00    -0.322 OA
HETATM   27  C   UNL     1      39.096  -9.702   9.616  1.00  0.00     0.213 C 
ENDBRANCH  24  26
ENDBRANCH  23  24
ENDBRANCH  14  17
ENDBRANCH  12  13
ENDBRANCH   2  12
BRANCH   1  28
HETATM   28  C   UNL     1      41.170 -14.059   2.995  1.00  0.00    -0.027 A 
HETATM   29  C   UNL     1      41.917 -13.905   1.817  1.00  0.00     0.011 A 
HETATM   30  C   UNL     1      41.336 -13.365   0.662  1.00  0.00     0.030 A 
HETATM   31  C   UNL     1      40.011 -12.923   0.651  1.00  0.00     0.030 A 
HETATM   32  C   UNL     1      39.295 -13.004   1.851  1.00  0.00     0.030 A 
HETATM   33  C   UNL     1      39.855 -13.569   3.002  1.00  0.00     0.011 A 
BRANCH  31  34
HETATM   34  N   UNL     1      39.372 -12.448  -0.491  1.00  0.00    -0.382 N 
BRANCH  34  35
HETATM   35  C   UNL     1      38.615 -11.188  -0.430  1.00  0.00     0.118 C 
HETATM   36  C   UNL     1      37.383 -11.245  -1.324  1.00  0.00     0.026 C 
ENDBRANCH  34  35
BRANCH  34  37
HETATM   37  C   UNL     1      38.869 -13.477  -1.414  1.00  0.00     0.118 C 
HETATM   38  C   UNL     1      39.822 -13.723  -2.577  1.00  0.00     0.026 C 
ENDBRANCH  34  37
ENDBRANCH  31  34
ENDBRANCH   1  28
BRANCH   6  39
HETATM   39  O   UNL     1      42.147 -17.070   5.955  1.00  0.00    -0.389 OA
HETATM   40  H   UNL     1      41.743 -16.553   6.680  1.00  0.00     0.210 HD
ENDBRANCH   6  39
TORSDOF 10
ENDMDL
MODEL 9
REMARK VINA RESULT:      -7.4      2.361      6.735
REMARK  10 active torsions:
REMARK  status: ('A' for Active; 'I' for Inactive)
REMARK    1  A    between atoms: C_2  and  N_3 
REMARK    2  A    between atoms: N_3  and  C_4 
REMARK    3  A    between atoms: N_3  and  C_37 
REMARK    4  A    between atoms: C_7  and  C_8 
REMARK    5  A    between atoms: N_9  and  C_11 
REMARK    6  A    between atoms: C_11  and  C_12 
REMARK       I    between atoms: C_12  and  N_13 
REMARK    7  A    between atoms: N_13  and  C_14 
REMARK    8  A    between atoms: C_20  and  C_21 
REMARK    9  A    between atoms: C_21  and  O_22 
REMARK   10  A    between atoms: C_28  and  O_29 
ROOT
HETATM    1  C   UNL     1      41.740 -15.197   4.013  1.00  0.00     0.228 C 
HETATM    2  N   UNL     1      42.144 -14.028   4.902  1.00  0.00    -0.054 N 
HETATM    3  H   UNL     1      41.257 -13.546   5.132  1.00  0.00     0.281 HD
HETATM    4  C   UNL     1      42.660 -14.470   6.249  1.00  0.00     0.239 C 
HETATM    5  C   UNL     1      43.855 -15.396   6.085  1.00  0.00     0.066 C 
HETATM    6  C   UNL     1      43.482 -16.612   5.240  1.00  0.00     0.065 C 
HETATM    7  C   UNL     1      42.936 -16.179   3.855  1.00  0.00     0.055 C 
HETATM    8  C   UNL     1      44.687 -17.555   5.076  1.00  0.00     0.038 C 
HETATM    9  C   UNL     1      44.340 -18.786   4.239  1.00  0.00     0.003 C 
HETATM   10  C   UNL     1      43.733 -18.399   2.897  1.00  0.00     0.001 C 
HETATM   11  C   UNL     1      42.548 -17.446   3.053  1.00  0.00     0.010 C 
ENDROOT
BRANCH   2  12
HETATM   12  C   UNL     1      42.955 -12.884   4.273  1.00  0.00     0.338 C 
BRANCH  12  13
HETATM   13  C   UNL     1      42.522 -11.555   4.909  1.00  0.00     0.248 C 
HETATM   14  N   UNL     1      41.206 -11.509   5.305  1.00  0.00    -0.319 N 
HETATM   15  H   UNL     1      40.730 -12.371   5.577  1.00  0.00     0.169 HD
HETATM   16  O   UNL     1      43.357 -10.650   4.959  1.00  0.00    -0.271 OA
BRANCH  14  17
HETATM   17  C   UNL     1      40.481 -10.350   5.566  1.00  0.00     0.094 A 
HETATM   18  S   UNL     1      40.561  -9.616   7.090  1.00  0.00    -0.076 SA
HETATM   19  C   UNL     1      39.580  -8.311   6.608  1.00  0.00    -0.012 A 
HETATM   20  C   UNL     1      39.266  -7.230   7.593  1.00  0.00     0.057 C 
HETATM   21  C   UNL     1      39.173  -8.423   5.285  1.00  0.00    -0.030 A 
HETATM   22  C   UNL     1      38.293  -7.419   4.599  1.00  0.00     0.050 C 
HETATM   23  C   UNL     1      39.722  -9.621   4.659  1.00  0.00     0.080 A 
BRANCH  23  24
HETATM   24  C   UNL     1      39.549 -10.087   3.277  1.00  0.00     0.296 C 
HETATM   25  O   UNL     1      40.493 -10.148   2.490  1.00  0.00    -0.259 OA
BRANCH  24  26
HETATM   26  O   UNL     1      38.273 -10.442   2.972  1.00  0.00    -0.322 OA
HETATM   27  C   UNL     1      37.733  -9.806   1.812  1.00  0.00     0.213 C 
ENDBRANCH  24  26
ENDBRANCH  23  24
ENDBRANCH  14  17
ENDBRANCH  12  13
ENDBRANCH   2  12
BRANCH   1  28
HETATM   28  C   UNL     1      41.055 -14.719   2.742  1.00  0.00    -0.027 A 
HETATM   29  C   UNL     1      39.921 -13.893   2.742  1.00  0.00     0.011 A 
HETATM   30  C   UNL     1      39.381 -13.411   1.541  1.00  0.00     0.030 A 
HETATM   31  C   UNL     1      39.924 -13.767   0.304  1.00  0.00     0.030 A 
HETATM   32  C   UNL     1      41.005 -14.656   0.306  1.00  0.00     0.030 A 
HETATM   33  C   UNL     1      41.571 -15.119   1.499  1.00  0.00     0.011 A 
BRANCH  31  34
HETATM   34  N   UNL     1      39.468 -13.255  -0.908  1.00  0.00    -0.382 N 
BRANCH  34  35
HETATM   35  C   UNL     1      39.907 -13.873  -2.169  1.00  0.00     0.118 C 
HETATM   36  C   UNL     1      38.873 -14.867  -2.682  1.00  0.00     0.026 C 
ENDBRANCH  34  35
BRANCH  34  37
HETATM   37  C   UNL     1      39.216 -11.806  -0.934  1.00  0.00     0.118 C 
HETATM   38  C   UNL     1      37.860 -11.468  -1.538  1.00  0.00     0.026 C 
ENDBRANCH  34  37
ENDBRANCH  31  34
ENDBRANCH   1  28
BRANCH   6  39
HETATM   39  O   UNL     1      42.437 -17.295   5.942  1.00  0.00    -0.389 OA
HETATM   40  H   UNL     1      42.613 -17.258   6.903  1.00  0.00     0.210 HD
ENDBRANCH   6  39
TORSDOF 10
ENDMDL
MODEL 10
REMARK VINA RESULT:      -7.2      2.371      7.345
REMARK  10 active torsions:
REMARK  status: ('A' for Active; 'I' for Inactive)
REMARK    1  A    between atoms: C_2  and  N_3 
REMARK    2  A    between atoms: N_3  and  C_4 
REMARK    3  A    between atoms: N_3  and  C_37 
REMARK    4  A    between atoms: C_7  and  C_8 
REMARK    5  A    between atoms: N_9  and  C_11 
REMARK    6  A    between atoms: C_11  and  C_12 
REMARK       I    between atoms: C_12  and  N_13 
REMARK    7  A    between atoms: N_13  and  C_14 
REMARK    8  A    between atoms: C_20  and  C_21 
REMARK    9  A    between atoms: C_21  and  O_22 
REMARK   10  A    between atoms: C_28  and  O_29 
ROOT
HETATM    1  C   UNL     1      41.910 -11.121   6.406  1.00  0.00     0.228 C 
HETATM    2  N   UNL     1      41.069 -10.165   5.569  1.00  0.00    -0.054 N 
HETATM    3  H   UNL     1      40.184 -10.671   5.391  1.00  0.00     0.281 HD
HETATM    4  C   UNL     1      40.627  -8.948   6.342  1.00  0.00     0.239 C 
HETATM    5  C   UNL     1      41.831  -8.193   6.885  1.00  0.00     0.066 C 
HETATM    6  C   UNL     1      42.679  -9.102   7.773  1.00  0.00     0.065 C 
HETATM    7  C   UNL     1      43.133 -10.366   7.001  1.00  0.00     0.055 C 
HETATM    8  C   UNL     1      43.895  -8.341   8.330  1.00  0.00     0.038 C 
HETATM    9  C   UNL     1      44.758  -9.224   9.230  1.00  0.00     0.003 C 
HETATM   10  C   UNL     1      45.165 -10.513   8.528  1.00  0.00     0.001 C 
HETATM   11  C   UNL     1      43.962 -11.262   7.956  1.00  0.00     0.010 C 
ENDROOT
BRANCH   2  12
HETATM   12  C   UNL     1      41.533  -9.854   4.137  1.00  0.00     0.338 C 
BRANCH  12  13
HETATM   13  C   UNL     1      40.779 -10.767   3.158  1.00  0.00     0.248 C 
HETATM   14  N   UNL     1      41.545 -11.266   2.131  1.00  0.00    -0.319 N 
HETATM   15  H   UNL     1      42.548 -11.403   2.269  1.00  0.00     0.169 HD
HETATM   16  O   UNL     1      39.571 -10.926   3.344  1.00  0.00    -0.271 OA
BRANCH  14  17
HETATM   17  C   UNL     1      41.055 -11.802   0.943  1.00  0.00     0.094 A 
HETATM   18  S   UNL     1      40.514 -13.406   0.888  1.00  0.00    -0.076 SA
HETATM   19  C   UNL     1      40.009 -13.270  -0.731  1.00  0.00    -0.012 A 
HETATM   20  C   UNL     1      39.386 -14.452  -1.404  1.00  0.00     0.057 C 
HETATM   21  C   UNL     1      40.254 -12.006  -1.252  1.00  0.00    -0.030 A 
HETATM   22  C   UNL     1      39.918 -11.608  -2.659  1.00  0.00     0.050 C 
HETATM   23  C   UNL     1      40.856 -11.127  -0.254  1.00  0.00     0.080 A 
BRANCH  23  24
HETATM   24  C   UNL     1      41.244  -9.719  -0.398  1.00  0.00     0.296 C 
HETATM   25  O   UNL     1      42.413  -9.353  -0.283  1.00  0.00    -0.259 OA
BRANCH  24  26
HETATM   26  O   UNL     1      40.204  -8.887  -0.670  1.00  0.00    -0.322 OA
HETATM   27  C   UNL     1      39.257  -8.741   0.390  1.00  0.00     0.213 C 
ENDBRANCH  24  26
ENDBRANCH  23  24
ENDBRANCH  14  17
ENDBRANCH  12  13
ENDBRANCH   2  12
BRANCH   1  28
HETATM   28  C   UNL     1      42.184 -12.419   5.661  1.00  0.00    -0.027 A 
HETATM   29  C   UNL     1      43.316 -12.624   4.859  1.00  0.00     0.011 A 
HETATM   30  C   UNL     1      43.562 -13.870   4.265  1.00  0.00     0.030 A 
HETATM   31  C   UNL     1      42.672 -14.936   4.414  1.00  0.00     0.030 A 
HETATM   32  C   UNL     1      41.503 -14.702   5.148  1.00  0.00     0.030 A 
HETATM   33  C   UNL     1      41.262 -13.472   5.770  1.00  0.00     0.011 A 
BRANCH  31  34
HETATM   34  N   UNL     1      42.911 -16.210   3.905  1.00  0.00    -0.382 N 
BRANCH  34  35
HETATM   35  C   UNL     1      42.291 -16.612   2.634  1.00  0.00     0.118 C 
HETATM   36  C   UNL     1      43.146 -16.186   1.447  1.00  0.00     0.026 C 
ENDBRANCH  34  35
BRANCH  34  37
HETATM   37  C   UNL     1      43.115 -17.268   4.906  1.00  0.00     0.118 C 
HETATM   38  C   UNL     1      44.032 -18.373   4.397  1.00  0.00     0.026 C 
ENDBRANCH  34  37
ENDBRANCH  31  34
ENDBRANCH   1  28
BRANCH   6  39
HETATM   39  O   UNL     1      41.839  -9.514   8.858  1.00  0.00    -0.389 OA
HETATM   40  H   UNL     1      42.228 -10.301   9.290  1.00  0.00     0.210 HD
ENDBRANCH   6  39
TORSDOF 10
ENDMDL
