MODEL 1
REMARK VINA RESULT:      -8.3      0.000      0.000
REMARK  3 active torsions:
REMARK  status: ('A' for Active; 'I' for Inactive)
REMARK    1  A    between atoms: C_5  and  N_6 
REMARK       I    between atoms: N_6  and  C_7 
REMARK    2  A    between atoms: C_7  and  C_8 
REMARK    3  A    between atoms: C_8  and  C_9 
ROOT
HETATM    1  C   UNL     1      41.818 -15.950   5.479  1.00  0.00     0.286 C 
HETATM    2  N   UNL     1      41.941 -16.666   4.133  1.00  0.00    -0.056 N 
HETATM    3  H   UNL     1      41.570 -17.616   4.251  1.00  0.00     0.278 HD
HETATM    4  H   UNL     1      41.274 -16.206   3.480  1.00  0.00     0.278 HD
HETATM    5  C   UNL     1      43.340 -16.699   3.579  1.00  0.00     0.209 C 
HETATM    6  C   UNL     1      44.251 -17.407   4.612  1.00  0.00     0.115 C 
HETATM    7  N   UNL     1      44.109 -16.823   5.946  1.00  0.00    -0.353 N 
HETATM    8  C   UNL     1      42.945 -16.310   6.462  1.00  0.00     0.249 C 
HETATM    9  O   UNL     1      42.860 -16.071   7.662  1.00  0.00    -0.271 OA
HETATM   10  C   UNL     1      43.335 -17.394   2.220  1.00  0.00     0.035 C 
HETATM   11  C   UNL     1      43.090 -18.898   2.310  1.00  0.00     0.002 C 
HETATM   12  C   UNL     1      44.048 -19.565   3.291  1.00  0.00     0.002 C 
HETATM   13  C   UNL     1      43.988 -18.920   4.673  1.00  0.00     0.027 C 
HETATM   14  H   UNL     1      44.811 -17.041   6.651  1.00  0.00     0.163 HD
ENDROOT
BRANCH   1  15
HETATM   15  C   UNL     1      41.765 -14.422   5.309  1.00  0.00     0.146 C 
BRANCH  15  16
HETATM   16  C   UNL     1      40.347 -13.927   5.390  1.00  0.00     0.224 C 
HETATM   17  N   UNL     1      39.604 -13.641   4.292  1.00  0.00    -0.327 N 
HETATM   18  H   UNL     1      38.716 -13.213   4.544  1.00  0.00     0.169 HD
HETATM   19  O   UNL     1      39.829 -13.800   6.508  1.00  0.00    -0.273 OA
BRANCH  17  20
HETATM   20  C   UNL     1      39.789 -13.831   2.909  1.00  0.00     0.034 A 
HETATM   21  C   UNL     1      39.852 -15.062   2.258  1.00  0.00     0.030 A 
HETATM   22  C   UNL     1      39.998 -15.125   0.865  1.00  0.00     0.009 A 
HETATM   23  C   UNL     1      40.090 -13.960   0.099  1.00  0.00    -0.062 A 
HETATM   24  C   UNL     1      40.196 -14.031  -1.395  1.00  0.00     0.048 C 
HETATM   25  C   UNL     1      40.008 -12.726   0.745  1.00  0.00     0.009 A 
HETATM   26  C   UNL     1      39.859 -12.665   2.134  1.00  0.00     0.030 A 
ENDBRANCH  17  20
ENDBRANCH  15  16
ENDBRANCH   1  15
TORSDOF 3
ENDMDL
MODEL 2
REMARK VINA RESULT:      -8.2      1.102      5.722
REMARK  3 active torsions:
REMARK  status: ('A' for Active; 'I' for Inactive)
REMARK    1  A    between atoms: C_5  and  N_6 
REMARK       I    between atoms: N_6  and  C_7 
REMARK    2  A    between atoms: C_7  and  C_8 
REMARK    3  A    between atoms: C_8  and  C_9 
ROOT
HETATM    1  C   UNL     1      41.655 -13.824   4.463  1.00  0.00     0.286 C 
HETATM    2  N   UNL     1      41.556 -14.291   3.011  1.00  0.00    -0.056 N 
HETATM    3  H   UNL     1      41.912 -13.535   2.415  1.00  0.00     0.278 HD
HETATM    4  H   UNL     1      42.245 -15.062   2.890  1.00  0.00     0.278 HD
HETATM    5  C   UNL     1      40.171 -14.702   2.588  1.00  0.00     0.209 C 
HETATM    6  C   UNL     1      39.225 -13.492   2.794  1.00  0.00     0.115 C 
HETATM    7  N   UNL     1      39.342 -12.941   4.144  1.00  0.00    -0.353 N 
HETATM    8  C   UNL     1      40.499 -12.899   4.881  1.00  0.00     0.249 C 
HETATM    9  O   UNL     1      40.557 -12.205   5.891  1.00  0.00    -0.271 OA
HETATM   10  C   UNL     1      40.201 -15.190   1.142  1.00  0.00     0.035 C 
HETATM   11  C   UNL     1      40.425 -14.069   0.130  1.00  0.00     0.002 C 
HETATM   12  C   UNL     1      39.435 -12.927   0.328  1.00  0.00     0.002 C 
HETATM   13  C   UNL     1      39.469 -12.387   1.755  1.00  0.00     0.027 C 
HETATM   14  H   UNL     1      38.620 -12.303   4.474  1.00  0.00     0.163 HD
ENDROOT
BRANCH   1  15
HETATM   15  C   UNL     1      41.730 -15.010   5.440  1.00  0.00     0.146 C 
BRANCH  15  16
HETATM   16  C   UNL     1      43.143 -15.221   5.912  1.00  0.00     0.224 C 
HETATM   17  N   UNL     1      43.910 -16.259   5.496  1.00  0.00    -0.327 N 
HETATM   18  H   UNL     1      44.790 -16.301   6.006  1.00  0.00     0.169 HD
HETATM   19  O   UNL     1      43.634 -14.395   6.694  1.00  0.00    -0.273 OA
BRANCH  17  20
HETATM   20  C   UNL     1      43.760 -17.254   4.511  1.00  0.00     0.034 A 
HETATM   21  C   UNL     1      43.334 -17.044   3.200  1.00  0.00     0.030 A 
HETATM   22  C   UNL     1      43.263 -18.112   2.294  1.00  0.00     0.009 A 
HETATM   23  C   UNL     1      43.608 -19.408   2.683  1.00  0.00    -0.062 A 
HETATM   24  C   UNL     1      43.577 -20.538   1.697  1.00  0.00     0.048 C 
HETATM   25  C   UNL     1      44.052 -19.619   3.989  1.00  0.00     0.009 A 
HETATM   26  C   UNL     1      44.127 -18.553   4.890  1.00  0.00     0.030 A 
ENDBRANCH  17  20
ENDBRANCH  15  16
ENDBRANCH   1  15
TORSDOF 3
ENDMDL
MODEL 3
REMARK VINA RESULT:      -8.1      1.444      5.685
REMARK  3 active torsions:
REMARK  status: ('A' for Active; 'I' for Inactive)
REMARK    1  A    between atoms: C_5  and  N_6 
REMARK       I    between atoms: N_6  and  C_7 
REMARK    2  A    between atoms: C_7  and  C_8 
REMARK    3  A    between atoms: C_8  and  C_9 
ROOT
HETATM    1  C   UNL     1      41.861 -14.578   5.709  1.00  0.00     0.286 C 
HETATM    2  N   UNL     1      42.385 -15.242   4.436  1.00  0.00    -0.056 N 
HETATM    3  H   UNL     1      42.883 -14.526   3.894  1.00  0.00     0.278 HD
HETATM    4  H   UNL     1      43.128 -15.912   4.723  1.00  0.00     0.278 HD
HETATM    5  C   UNL     1      41.321 -15.904   3.603  1.00  0.00     0.209 C 
HETATM    6  C   UNL     1      40.273 -14.830   3.217  1.00  0.00     0.115 C 
HETATM    7  N   UNL     1      39.799 -14.095   4.389  1.00  0.00    -0.353 N 
HETATM    8  C   UNL     1      40.561 -13.786   5.488  1.00  0.00     0.249 C 
HETATM    9  O   UNL     1      40.157 -12.964   6.303  1.00  0.00    -0.271 OA
HETATM   10  C   UNL     1      41.962 -16.568   2.387  1.00  0.00     0.035 C 
HETATM   11  C   UNL     1      42.474 -15.570   1.351  1.00  0.00     0.002 C 
HETATM   12  C   UNL     1      41.394 -14.570   0.954  1.00  0.00     0.002 C 
HETATM   13  C   UNL     1      40.814 -13.847   2.167  1.00  0.00     0.027 C 
HETATM   14  H   UNL     1      38.954 -13.532   4.303  1.00  0.00     0.163 HD
ENDROOT
BRANCH   1  15
HETATM   15  C   UNL     1      41.643 -15.601   6.837  1.00  0.00     0.146 C 
BRANCH  15  16
HETATM   16  C   UNL     1      42.916 -15.819   7.610  1.00  0.00     0.224 C 
HETATM   17  N   UNL     1      43.762 -16.848   7.359  1.00  0.00    -0.327 N 
HETATM   18  H   UNL     1      44.504 -16.899   8.053  1.00  0.00     0.169 HD
HETATM   19  O   UNL     1      43.214 -15.007   8.497  1.00  0.00    -0.273 OA
BRANCH  17  20
HETATM   20  C   UNL     1      43.841 -17.825   6.348  1.00  0.00     0.034 A 
HETATM   21  C   UNL     1      44.357 -17.632   5.068  1.00  0.00     0.030 A 
HETATM   22  C   UNL     1      44.422 -18.696   4.157  1.00  0.00     0.009 A 
HETATM   23  C   UNL     1      43.966 -19.969   4.505  1.00  0.00    -0.062 A 
HETATM   24  C   UNL     1      44.082 -21.115   3.545  1.00  0.00     0.048 C 
HETATM   25  C   UNL     1      43.465 -20.171   5.792  1.00  0.00     0.009 A 
HETATM   26  C   UNL     1      43.405 -19.111   6.701  1.00  0.00     0.030 A 
ENDBRANCH  17  20
ENDBRANCH  15  16
ENDBRANCH   1  15
TORSDOF 3
ENDMDL
MODEL 4
REMARK VINA RESULT:      -7.7      4.442      6.854
REMARK  3 active torsions:
REMARK  status: ('A' for Active; 'I' for Inactive)
REMARK    1  A    between atoms: C_5  and  N_6 
REMARK       I    between atoms: N_6  and  C_7 
REMARK    2  A    between atoms: C_7  and  C_8 
REMARK    3  A    between atoms: C_8  and  C_9 
ROOT
HETATM    1  C   UNL     1      43.599 -11.544   6.076  1.00  0.00     0.286 C 
HETATM    2  N   UNL     1      43.293 -11.013   7.477  1.00  0.00    -0.056 N 
HETATM    3  H   UNL     1      43.090 -10.010   7.392  1.00  0.00     0.278 HD
HETATM    4  H   UNL     1      42.389 -11.436   7.774  1.00  0.00     0.278 HD
HETATM    5  C   UNL     1      44.387 -11.258   8.482  1.00  0.00     0.209 C 
HETATM    6  C   UNL     1      45.681 -10.587   7.959  1.00  0.00     0.115 C 
HETATM    7  N   UNL     1      45.978 -10.987   6.584  1.00  0.00    -0.353 N 
HETATM    8  C   UNL     1      45.038 -11.253   5.619  1.00  0.00     0.249 C 
HETATM    9  O   UNL     1      45.375 -11.339   4.443  1.00  0.00    -0.271 OA
HETATM   10  C   UNL     1      43.955 -10.729   9.847  1.00  0.00     0.035 C 
HETATM   11  C   UNL     1      43.916  -9.204   9.920  1.00  0.00     0.002 C 
HETATM   12  C   UNL     1      45.230  -8.586   9.456  1.00  0.00     0.002 C 
HETATM   13  C   UNL     1      45.614  -9.054   8.055  1.00  0.00     0.027 C 
HETATM   14  H   UNL     1      46.909 -10.801   6.212  1.00  0.00     0.163 HD
ENDROOT
BRANCH   1  15
HETATM   15  C   UNL     1      43.331 -13.055   5.969  1.00  0.00     0.146 C 
BRANCH  15  16
HETATM   16  C   UNL     1      41.902 -13.316   5.576  1.00  0.00     0.224 C 
HETATM   17  N   UNL     1      41.525 -14.394   4.847  1.00  0.00    -0.327 N 
HETATM   18  H   UNL     1      40.543 -14.342   4.583  1.00  0.00     0.169 HD
HETATM   19  O   UNL     1      41.031 -12.521   5.958  1.00  0.00    -0.273 OA
BRANCH  17  20
HETATM   20  C   UNL     1      42.184 -15.559   4.409  1.00  0.00     0.034 A 
HETATM   21  C   UNL     1      42.836 -16.481   5.226  1.00  0.00     0.030 A 
HETATM   22  C   UNL     1      43.423 -17.630   4.677  1.00  0.00     0.009 A 
HETATM   23  C   UNL     1      43.377 -17.874   3.302  1.00  0.00    -0.062 A 
HETATM   24  C   UNL     1      43.963 -19.128   2.725  1.00  0.00     0.048 C 
HETATM   25  C   UNL     1      42.710 -16.962   2.484  1.00  0.00     0.009 A 
HETATM   26  C   UNL     1      42.121 -15.819   3.032  1.00  0.00     0.030 A 
ENDBRANCH  17  20
ENDBRANCH  15  16
ENDBRANCH   1  15
TORSDOF 3
ENDMDL
MODEL 5
REMARK VINA RESULT:      -7.6      2.381      6.471
REMARK  3 active torsions:
REMARK  status: ('A' for Active; 'I' for Inactive)
REMARK    1  A    between atoms: C_5  and  N_6 
REMARK       I    between atoms: N_6  and  C_7 
REMARK    2  A    between atoms: C_7  and  C_8 
REMARK    3  A    between atoms: C_8  and  C_9 
ROOT
HETATM    1  C   UNL     1      41.812 -13.022   1.533  1.00  0.00     0.286 C 
HETATM    2  N   UNL     1      41.300 -13.854   0.357  1.00  0.00    -0.056 N 
HETATM    3  H   UNL     1      41.958 -13.731  -0.421  1.00  0.00     0.278 HD
HETATM    4  H   UNL     1      41.398 -14.855   0.624  1.00  0.00     0.278 HD
HETATM    5  C   UNL     1      39.895 -13.519  -0.069  1.00  0.00     0.209 C 
HETATM    6  C   UNL     1      39.853 -12.020  -0.455  1.00  0.00     0.115 C 
HETATM    7  N   UNL     1      40.417 -11.176   0.598  1.00  0.00    -0.353 N 
HETATM    8  C   UNL     1      41.459 -11.529   1.419  1.00  0.00     0.249 C 
HETATM    9  O   UNL     1      42.019 -10.676   2.098  1.00  0.00    -0.271 OA
HETATM   10  C   UNL     1      39.477 -14.437  -1.215  1.00  0.00     0.035 C 
HETATM   11  C   UNL     1      40.192 -14.131  -2.528  1.00  0.00     0.002 C 
HETATM   12  C   UNL     1      40.073 -12.658  -2.903  1.00  0.00     0.002 C 
HETATM   13  C   UNL     1      40.573 -11.746  -1.785  1.00  0.00     0.027 C 
HETATM   14  H   UNL     1      40.238 -10.173   0.568  1.00  0.00     0.163 HD
ENDROOT
BRANCH   1  15
HETATM   15  C   UNL     1      41.296 -13.560   2.879  1.00  0.00     0.146 C 
BRANCH  15  16
HETATM   16  C   UNL     1      42.397 -13.567   3.906  1.00  0.00     0.224 C 
HETATM   17  N   UNL     1      43.109 -14.678   4.213  1.00  0.00    -0.327 N 
HETATM   18  H   UNL     1      43.727 -14.518   5.006  1.00  0.00     0.169 HD
HETATM   19  O   UNL     1      42.680 -12.503   4.474  1.00  0.00    -0.273 OA
BRANCH  17  20
HETATM   20  C   UNL     1      43.189 -15.972   3.664  1.00  0.00     0.034 A 
HETATM   21  C   UNL     1      43.040 -16.295   2.316  1.00  0.00     0.030 A 
HETATM   22  C   UNL     1      43.183 -17.620   1.880  1.00  0.00     0.009 A 
HETATM   23  C   UNL     1      43.470 -18.646   2.782  1.00  0.00    -0.062 A 
HETATM   24  C   UNL     1      43.671 -20.054   2.305  1.00  0.00     0.048 C 
HETATM   25  C   UNL     1      43.639 -18.325   4.130  1.00  0.00     0.009 A 
HETATM   26  C   UNL     1      43.500 -17.003   4.563  1.00  0.00     0.030 A 
ENDBRANCH  17  20
ENDBRANCH  15  16
ENDBRANCH   1  15
TORSDOF 3
ENDMDL
MODEL 6
REMARK VINA RESULT:      -7.5      2.525      6.893
REMARK  3 active torsions:
REMARK  status: ('A' for Active; 'I' for Inactive)
REMARK    1  A    between atoms: C_5  and  N_6 
REMARK       I    between atoms: N_6  and  C_7 
REMARK    2  A    between atoms: C_7  and  C_8 
REMARK    3  A    between atoms: C_8  and  C_9 
ROOT
HETATM    1  C   UNL     1      40.943 -13.558   1.655  1.00  0.00     0.286 C 
HETATM    2  N   UNL     1      40.916 -12.268   0.834  1.00  0.00    -0.056 N 
HETATM    3  H   UNL     1      40.087 -11.734   1.119  1.00  0.00     0.278 HD
HETATM    4  H   UNL     1      41.720 -11.686   1.152  1.00  0.00     0.278 HD
HETATM    5  C   UNL     1      40.932 -12.484  -0.655  1.00  0.00     0.209 C 
HETATM    6  C   UNL     1      39.700 -13.345  -1.030  1.00  0.00     0.115 C 
HETATM    7  N   UNL     1      39.619 -14.554  -0.212  1.00  0.00    -0.353 N 
HETATM    8  C   UNL     1      40.006 -14.646   1.102  1.00  0.00     0.249 C 
HETATM    9  O   UNL     1      39.677 -15.619   1.771  1.00  0.00    -0.271 OA
HETATM   10  C   UNL     1      40.948 -11.133  -1.367  1.00  0.00     0.035 C 
HETATM   11  C   UNL     1      39.627 -10.376  -1.260  1.00  0.00     0.002 C 
HETATM   12  C   UNL     1      38.449 -11.239  -1.697  1.00  0.00     0.002 C 
HETATM   13  C   UNL     1      38.388 -12.552  -0.922  1.00  0.00     0.027 C 
HETATM   14  H   UNL     1      38.999 -15.306  -0.512  1.00  0.00     0.163 HD
ENDROOT
BRANCH   1  15
HETATM   15  C   UNL     1      42.366 -14.129   1.772  1.00  0.00     0.146 C 
BRANCH  15  16
HETATM   16  C   UNL     1      42.837 -14.093   3.201  1.00  0.00     0.224 C 
HETATM   17  N   UNL     1      43.127 -15.212   3.908  1.00  0.00    -0.327 N 
HETATM   18  H   UNL     1      43.317 -14.998   4.885  1.00  0.00     0.169 HD
HETATM   19  O   UNL     1      42.991 -12.989   3.744  1.00  0.00    -0.273 OA
BRANCH  17  20
HETATM   20  C   UNL     1      43.242 -16.576   3.578  1.00  0.00     0.034 A 
HETATM   21  C   UNL     1      42.746 -17.178   2.423  1.00  0.00     0.030 A 
HETATM   22  C   UNL     1      42.959 -18.543   2.183  1.00  0.00     0.009 A 
HETATM   23  C   UNL     1      43.664 -19.332   3.095  1.00  0.00    -0.062 A 
HETATM   24  C   UNL     1      43.931 -20.780   2.811  1.00  0.00     0.048 C 
HETATM   25  C   UNL     1      44.177 -18.729   4.244  1.00  0.00     0.009 A 
HETATM   26  C   UNL     1      43.968 -17.367   4.480  1.00  0.00     0.030 A 
ENDBRANCH  17  20
ENDBRANCH  15  16
ENDBRANCH   1  15
TORSDOF 3
ENDMDL
MODEL 7
REMARK VINA RESULT:      -7.5     14.013     16.260
REMARK  3 active torsions:
REMARK  status: ('A' for Active; 'I' for Inactive)
REMARK    1  A    between atoms: C_5  and  N_6 
REMARK       I    between atoms: N_6  and  C_7 
REMARK    2  A    between atoms: C_7  and  C_8 
REMARK    3  A    between atoms: C_8  and  C_9 
ROOT
HETATM    1  C   UNL     1      48.282 -29.911   0.274  1.00  0.00     0.286 C 
HETATM    2  N   UNL     1      48.805 -30.625  -0.973  1.00  0.00    -0.056 N 
HETATM    3  H   UNL     1      48.651 -31.632  -0.842  1.00  0.00     0.278 HD
HETATM    4  H   UNL     1      48.174 -30.367  -1.760  1.00  0.00     0.278 HD
HETATM    5  C   UNL     1      50.248 -30.338  -1.289  1.00  0.00     0.209 C 
HETATM    6  C   UNL     1      51.102 -30.763  -0.068  1.00  0.00     0.115 C 
HETATM    7  N   UNL     1      50.594 -30.182   1.174  1.00  0.00    -0.353 N 
HETATM    8  C   UNL     1      49.271 -29.949   1.452  1.00  0.00     0.249 C 
HETATM    9  O   UNL     1      48.922 -29.692   2.599  1.00  0.00    -0.271 OA
HETATM   10  C   UNL     1      50.645 -31.064  -2.571  1.00  0.00     0.035 C 
HETATM   11  C   UNL     1      50.746 -32.578  -2.403  1.00  0.00     0.002 C 
HETATM   12  C   UNL     1      51.645 -32.954  -1.230  1.00  0.00     0.002 C 
HETATM   13  C   UNL     1      51.193 -32.291   0.068  1.00  0.00     0.027 C 
HETATM   14  H   UNL     1      51.192 -30.195   1.999  1.00  0.00     0.163 HD
ENDROOT
BRANCH   1  15
HETATM   15  C   UNL     1      47.905 -28.449  -0.022  1.00  0.00     0.146 C 
BRANCH  15  16
HETATM   16  C   UNL     1      46.560 -28.118   0.564  1.00  0.00     0.224 C 
HETATM   17  N   UNL     1      45.418 -28.125  -0.165  1.00  0.00    -0.327 N 
HETATM   18  H   UNL     1      44.630 -27.766   0.370  1.00  0.00     0.169 HD
HETATM   19  O   UNL     1      46.492 -27.852   1.773  1.00  0.00    -0.273 OA
BRANCH  17  20
HETATM   20  C   UNL     1      45.094 -28.539  -1.472  1.00  0.00     0.034 A 
HETATM   21  C   UNL     1      45.477 -27.896  -2.648  1.00  0.00     0.030 A 
HETATM   22  C   UNL     1      45.128 -28.428  -3.897  1.00  0.00     0.009 A 
HETATM   23  C   UNL     1      44.384 -29.607  -3.994  1.00  0.00    -0.062 A 
HETATM   24  C   UNL     1      44.056 -30.198  -5.333  1.00  0.00     0.048 C 
HETATM   25  C   UNL     1      44.015 -30.263  -2.820  1.00  0.00     0.009 A 
HETATM   26  C   UNL     1      44.367 -29.734  -1.575  1.00  0.00     0.030 A 
ENDBRANCH  17  20
ENDBRANCH  15  16
ENDBRANCH   1  15
TORSDOF 3
ENDMDL
MODEL 8
REMARK VINA RESULT:      -7.4      3.123      4.980
REMARK  3 active torsions:
REMARK  status: ('A' for Active; 'I' for Inactive)
REMARK    1  A    between atoms: C_5  and  N_6 
REMARK       I    between atoms: N_6  and  C_7 
REMARK    2  A    between atoms: C_7  and  C_8 
REMARK    3  A    between atoms: C_8  and  C_9 
ROOT
HETATM    1  C   UNL     1      40.446 -14.638   5.102  1.00  0.00     0.286 C 
HETATM    2  N   UNL     1      41.173 -14.555   3.759  1.00  0.00    -0.056 N 
HETATM    3  H   UNL     1      40.763 -15.264   3.140  1.00  0.00     0.278 HD
HETATM    4  H   UNL     1      40.908 -13.647   3.324  1.00  0.00     0.278 HD
HETATM    5  C   UNL     1      42.666 -14.720   3.854  1.00  0.00     0.209 C 
HETATM    6  C   UNL     1      42.958 -16.097   4.501  1.00  0.00     0.115 C 
HETATM    7  N   UNL     1      42.217 -16.274   5.749  1.00  0.00    -0.353 N 
HETATM    8  C   UNL     1      40.963 -15.776   6.000  1.00  0.00     0.249 C 
HETATM    9  O   UNL     1      40.326 -16.177   6.968  1.00  0.00    -0.271 OA
HETATM   10  C   UNL     1      43.285 -14.575   2.467  1.00  0.00     0.035 C 
HETATM   11  C   UNL     1      42.984 -15.752   1.543  1.00  0.00     0.002 C 
HETATM   12  C   UNL     1      43.344 -17.083   2.194  1.00  0.00     0.002 C 
HETATM   13  C   UNL     1      42.654 -17.260   3.544  1.00  0.00     0.027 C 
HETATM   14  H   UNL     1      42.495 -17.025   6.379  1.00  0.00     0.163 HD
ENDROOT
BRANCH   1  15
HETATM   15  C   UNL     1      40.525 -13.310   5.876  1.00  0.00     0.146 C 
BRANCH  15  16
HETATM   16  C   UNL     1      40.522 -12.142   4.927  1.00  0.00     0.224 C 
HETATM   17  N   UNL     1      41.444 -11.150   4.980  1.00  0.00    -0.327 N 
HETATM   18  H   UNL     1      41.215 -10.393   4.339  1.00  0.00     0.169 HD
HETATM   19  O   UNL     1      39.654 -12.101   4.044  1.00  0.00    -0.273 OA
BRANCH  17  20
HETATM   20  C   UNL     1      42.638 -10.961   5.702  1.00  0.00     0.034 A 
HETATM   21  C   UNL     1      42.742 -10.379   6.964  1.00  0.00     0.030 A 
HETATM   22  C   UNL     1      43.986 -10.283   7.604  1.00  0.00     0.009 A 
HETATM   23  C   UNL     1      45.148 -10.759   6.992  1.00  0.00    -0.062 A 
HETATM   24  C   UNL     1      46.468 -10.698   7.701  1.00  0.00     0.048 C 
HETATM   25  C   UNL     1      45.045 -11.358   5.737  1.00  0.00     0.009 A 
HETATM   26  C   UNL     1      43.804 -11.458   5.101  1.00  0.00     0.030 A 
ENDBRANCH  17  20
ENDBRANCH  15  16
ENDBRANCH   1  15
TORSDOF 3
ENDMDL
MODEL 9
REMARK VINA RESULT:      -7.3      4.539      6.915
REMARK  3 active torsions:
REMARK  status: ('A' for Active; 'I' for Inactive)
REMARK    1  A    between atoms: C_5  and  N_6 
REMARK       I    between atoms: N_6  and  C_7 
REMARK    2  A    between atoms: C_7  and  C_8 
REMARK    3  A    between atoms: C_8  and  C_9 
ROOT
HETATM    1  C   UNL     1      41.775 -12.743   5.097  1.00  0.00     0.286 C 
HETATM    2  N   UNL     1      42.445 -13.537   3.975  1.00  0.00    -0.056 N 
HETATM    3  H   UNL     1      41.912 -13.370   3.114  1.00  0.00     0.278 HD
HETATM    4  H   UNL     1      43.370 -13.094   3.797  1.00  0.00     0.278 HD
HETATM    5  C   UNL     1      42.570 -15.011   4.253  1.00  0.00     0.209 C 
HETATM    6  C   UNL     1      41.149 -15.579   4.493  1.00  0.00     0.115 C 
HETATM    7  N   UNL     1      40.421 -14.802   5.495  1.00  0.00    -0.353 N 
HETATM    8  C   UNL     1      40.538 -13.447   5.681  1.00  0.00     0.249 C 
HETATM    9  O   UNL     1      39.717 -12.849   6.369  1.00  0.00    -0.271 OA
HETATM   10  C   UNL     1      43.290 -15.691   3.091  1.00  0.00     0.035 C 
HETATM   11  C   UNL     1      42.448 -15.769   1.819  1.00  0.00     0.002 C 
HETATM   12  C   UNL     1      41.082 -16.390   2.088  1.00  0.00     0.002 C 
HETATM   13  C   UNL     1      40.330 -15.654   3.194  1.00  0.00     0.027 C 
HETATM   14  H   UNL     1      39.578 -15.202   5.906  1.00  0.00     0.163 HD
ENDROOT
BRANCH   1  15
HETATM   15  C   UNL     1      42.759 -12.425   6.236  1.00  0.00     0.146 C 
BRANCH  15  16
HETATM   16  C   UNL     1      43.747 -11.374   5.807  1.00  0.00     0.224 C 
HETATM   17  N   UNL     1      44.188 -10.398   6.637  1.00  0.00    -0.327 N 
HETATM   18  H   UNL     1      44.759  -9.716   6.141  1.00  0.00     0.169 HD
HETATM   19  O   UNL     1      44.194 -11.421   4.652  1.00  0.00    -0.273 OA
BRANCH  17  20
HETATM   20  C   UNL     1      44.047 -10.146   8.015  1.00  0.00     0.034 A 
HETATM   21  C   UNL     1      45.012 -10.392   8.990  1.00  0.00     0.030 A 
HETATM   22  C   UNL     1      44.770 -10.060  10.331  1.00  0.00     0.009 A 
HETATM   23  C   UNL     1      43.560  -9.484  10.722  1.00  0.00    -0.062 A 
HETATM   24  C   UNL     1      43.325  -9.086  12.149  1.00  0.00     0.048 C 
HETATM   25  C   UNL     1      42.599  -9.219   9.746  1.00  0.00     0.009 A 
HETATM   26  C   UNL     1      42.842  -9.547   8.409  1.00  0.00     0.030 A 
ENDBRANCH  17  20
ENDBRANCH  15  16
ENDBRANCH   1  15
TORSDOF 3
ENDMDL
MODEL 10
REMARK VINA RESULT:      -7.2      2.563      3.827
REMARK  3 active torsions:
REMARK  status: ('A' for Active; 'I' for Inactive)
REMARK    1  A    between atoms: C_5  and  N_6 
REMARK       I    between atoms: N_6  and  C_7 
REMARK    2  A    between atoms: C_7  and  C_8 
REMARK    3  A    between atoms: C_8  and  C_9 
ROOT
HETATM    1  C   UNL     1      40.700 -15.324   2.773  1.00  0.00     0.286 C 
HETATM    2  N   UNL     1      41.531 -16.594   2.585  1.00  0.00    -0.056 N 
HETATM    3  H   UNL     1      41.231 -17.270   3.298  1.00  0.00     0.278 HD
HETATM    4  H   UNL     1      41.237 -17.021   1.683  1.00  0.00     0.278 HD
HETATM    5  C   UNL     1      43.019 -16.372   2.646  1.00  0.00     0.209 C 
HETATM    6  C   UNL     1      43.357 -15.747   4.022  1.00  0.00     0.115 C 
HETATM    7  N   UNL     1      42.527 -14.575   4.300  1.00  0.00    -0.353 N 
HETATM    8  C   UNL     1      41.222 -14.421   3.904  1.00  0.00     0.249 C 
HETATM    9  O   UNL     1      40.537 -13.526   4.387  1.00  0.00    -0.271 OA
HETATM   10  C   UNL     1      43.742 -17.694   2.403  1.00  0.00     0.035 C 
HETATM   11  C   UNL     1      43.611 -18.679   3.562  1.00  0.00     0.002 C 
HETATM   12  C   UNL     1      44.013 -18.041   4.888  1.00  0.00     0.002 C 
HETATM   13  C   UNL     1      43.225 -16.764   5.166  1.00  0.00     0.027 C 
HETATM   14  H   UNL     1      42.806 -13.947   5.053  1.00  0.00     0.163 HD
ENDROOT
BRANCH   1  15
HETATM   15  C   UNL     1      40.611 -14.504   1.474  1.00  0.00     0.146 C 
BRANCH  15  16
HETATM   16  C   UNL     1      39.800 -15.236   0.439  1.00  0.00     0.224 C 
HETATM   17  N   UNL     1      39.385 -14.657  -0.715  1.00  0.00    -0.327 N 
HETATM   18  H   UNL     1      38.756 -15.267  -1.233  1.00  0.00     0.169 HD
HETATM   19  O   UNL     1      39.523 -16.427   0.640  1.00  0.00    -0.273 OA
BRANCH  17  20
HETATM   20  C   UNL     1      39.655 -13.427  -1.344  1.00  0.00     0.034 A 
HETATM   21  C   UNL     1      39.169 -12.184  -0.942  1.00  0.00     0.030 A 
HETATM   22  C   UNL     1      39.541 -11.018  -1.626  1.00  0.00     0.009 A 
HETATM   23  C   UNL     1      40.399 -11.073  -2.727  1.00  0.00    -0.062 A 
HETATM   24  C   UNL     1      40.834  -9.819  -3.425  1.00  0.00     0.048 C 
HETATM   25  C   UNL     1      40.902 -12.314  -3.121  1.00  0.00     0.009 A 
HETATM   26  C   UNL     1      40.534 -13.475  -2.436  1.00  0.00     0.030 A 
ENDBRANCH  17  20
ENDBRANCH  15  16
ENDBRANCH   1  15
TORSDOF 3
ENDMDL
