MODEL 1
REMARK VINA RESULT:      -8.7      0.000      0.000
REMARK  6 active torsions:
REMARK  status: ('A' for Active; 'I' for Inactive)
REMARK    1  A    between atoms: C_2  and  C_3 
REMARK    2  A    between atoms: C_7  and  O_8 
REMARK    3  A    between atoms: O_8  and  C_9 
REMARK    4  A    between atoms: C_9  and  C_10 
REMARK       I    between atoms: C_10  and  N_11 
REMARK    5  A    between atoms: N_11  and  N_12 
REMARK    6  A    between atoms: C_13  and  C_14 
ROOT
HETATM    1  C   UNL     1      42.378 -12.176   2.809  1.00  0.00     0.261 C 
HETATM    2  N   UNL     1      42.601 -11.053   3.566  1.00  0.00    -0.246 N 
HETATM    3  O   UNL     1      41.447 -12.196   1.999  1.00  0.00    -0.269 OA
HETATM    4  H   UNL     1      41.997 -10.259   3.379  1.00  0.00     0.192 HD
ENDROOT
BRANCH   1   5
HETATM    5  C   UNL     1      43.278 -13.386   3.040  1.00  0.00     0.280 C 
BRANCH   5   6
HETATM    6  O   UNL     1      42.623 -14.339   3.867  1.00  0.00    -0.341 OA
BRANCH   6   7
HETATM    7  C   UNL     1      42.900 -15.660   3.636  1.00  0.00     0.086 A 
HETATM    8  C   UNL     1      43.559 -16.366   4.651  1.00  0.00     0.044 A 
HETATM    9  C   UNL     1      43.919 -17.708   4.475  1.00  0.00     0.029 A 
HETATM   10 BR   UNL     1      43.989 -15.545   6.312  1.00  0.00    -0.048 Br
HETATM   11  C   UNL     1      43.631 -18.378   3.277  1.00  0.00    -0.053 A 
HETATM   12  C   UNL     1      42.978 -17.666   2.263  1.00  0.00     0.010 A 
HETATM   13  C   UNL     1      42.613 -16.326   2.441  1.00  0.00     0.039 A 
BRANCH  11  14
HETATM   14  C   UNL     1      44.075 -19.819   3.097  1.00  0.00     0.010 C 
HETATM   15  C   UNL     1      43.422 -20.427   1.853  1.00  0.00     0.015 C 
HETATM   16  C   UNL     1      43.810 -20.693   4.327  1.00  0.00     0.015 C 
ENDBRANCH  11  14
ENDBRANCH   6   7
ENDBRANCH   5   6
ENDBRANCH   1   5
BRANCH   2  17
HETATM   17  N   UNL     1      43.604 -10.969   4.482  1.00  0.00    -0.184 NA
HETATM   18  C   UNL     1      43.216 -10.909   5.716  1.00  0.00     0.152 C 
BRANCH  18  19
HETATM   19  C   UNL     1      44.196 -10.786   6.774  1.00  0.00     0.011 A 
HETATM   20  C   UNL     1      43.997 -10.236   8.081  1.00  0.00     0.004 A 
HETATM   21  C   UNL     1      45.218 -10.308   8.753  1.00  0.00     0.043 A 
HETATM   22  C   UNL     1      42.889  -9.685   8.761  1.00  0.00     0.014 A 
HETATM   23  C   UNL     1      45.388  -9.855  10.068  1.00  0.00     0.030 A 
HETATM   24  N   UNL     1      46.125 -10.875   7.889  1.00  0.00    -0.364 N 
HETATM   25  C   UNL     1      44.274  -9.315  10.717  1.00  0.00     0.002 A 
HETATM   26  C   UNL     1      43.042  -9.230  10.076  1.00  0.00     0.001 A 
HETATM   27  H   UNL     1      47.097 -11.044   8.107  1.00  0.00     0.165 HD
HETATM   28  C   UNL     1      45.521 -11.171   6.699  1.00  0.00     0.102 A 
ENDBRANCH  18  19
ENDBRANCH   2  17
TORSDOF 6
ENDMDL
MODEL 2
REMARK VINA RESULT:      -8.6      2.919      6.654
REMARK  6 active torsions:
REMARK  status: ('A' for Active; 'I' for Inactive)
REMARK    1  A    between atoms: C_2  and  C_3 
REMARK    2  A    between atoms: C_7  and  O_8 
REMARK    3  A    between atoms: O_8  and  C_9 
REMARK    4  A    between atoms: C_9  and  C_10 
REMARK       I    between atoms: C_10  and  N_11 
REMARK    5  A    between atoms: N_11  and  N_12 
REMARK    6  A    between atoms: C_13  and  C_14 
ROOT
HETATM    1  C   UNL     1      43.443 -11.401   6.844  1.00  0.00     0.261 C 
HETATM    2  N   UNL     1      43.576 -12.652   7.395  1.00  0.00    -0.246 N 
HETATM    3  O   UNL     1      43.224 -10.431   7.573  1.00  0.00    -0.269 OA
HETATM    4  H   UNL     1      43.532 -12.704   8.407  1.00  0.00     0.192 HD
ENDROOT
BRANCH   1   5
HETATM    5  C   UNL     1      43.527 -11.275   5.327  1.00  0.00     0.280 C 
BRANCH   5   6
HETATM    6  O   UNL     1      42.282 -10.839   4.796  1.00  0.00    -0.341 OA
BRANCH   6   7
HETATM    7  C   UNL     1      41.703 -11.625   3.836  1.00  0.00     0.086 A 
HETATM    8  C   UNL     1      40.641 -12.448   4.234  1.00  0.00     0.044 A 
HETATM    9  C   UNL     1      40.025 -13.316   3.324  1.00  0.00     0.029 A 
HETATM   10 BR   UNL     1      39.981 -12.423   6.018  1.00  0.00    -0.048 Br
HETATM   11  C   UNL     1      40.458 -13.385   1.992  1.00  0.00    -0.053 A 
HETATM   12  C   UNL     1      41.525 -12.565   1.600  1.00  0.00     0.010 A 
HETATM   13  C   UNL     1      42.137 -11.693   2.509  1.00  0.00     0.039 A 
BRANCH  11  14
HETATM   14  C   UNL     1      39.803 -14.369   1.039  1.00  0.00     0.010 C 
HETATM   15  C   UNL     1      39.896 -15.793   1.594  1.00  0.00     0.015 C 
HETATM   16  C   UNL     1      40.372 -14.306  -0.382  1.00  0.00     0.015 C 
ENDBRANCH  11  14
ENDBRANCH   6   7
ENDBRANCH   5   6
ENDBRANCH   1   5
BRANCH   2  17
HETATM   17  N   UNL     1      43.811 -13.766   6.647  1.00  0.00    -0.184 NA
HETATM   18  C   UNL     1      42.983 -14.741   6.843  1.00  0.00     0.152 C 
BRANCH  18  19
HETATM   19  C   UNL     1      43.155 -15.986   6.125  1.00  0.00     0.011 A 
HETATM   20  C   UNL     1      43.216 -16.167   4.706  1.00  0.00     0.004 A 
HETATM   21  C   UNL     1      43.374 -17.533   4.467  1.00  0.00     0.043 A 
HETATM   22  C   UNL     1      43.155 -15.296   3.597  1.00  0.00     0.014 A 
HETATM   23  C   UNL     1      43.471 -18.071   3.178  1.00  0.00     0.030 A 
HETATM   24  N   UNL     1      43.404 -18.159   5.691  1.00  0.00    -0.364 N 
HETATM   25  C   UNL     1      43.409 -17.186   2.098  1.00  0.00     0.002 A 
HETATM   26  C   UNL     1      43.254 -15.818   2.302  1.00  0.00     0.001 A 
HETATM   27  H   UNL     1      43.502 -19.156   5.824  1.00  0.00     0.165 HD
HETATM   28  C   UNL     1      43.279 -17.239   6.694  1.00  0.00     0.102 A 
ENDBRANCH  18  19
ENDBRANCH   2  17
TORSDOF 6
ENDMDL
MODEL 3
REMARK VINA RESULT:      -8.6      4.584      7.461
REMARK  6 active torsions:
REMARK  status: ('A' for Active; 'I' for Inactive)
REMARK    1  A    between atoms: C_2  and  C_3 
REMARK    2  A    between atoms: C_7  and  O_8 
REMARK    3  A    between atoms: O_8  and  C_9 
REMARK    4  A    between atoms: C_9  and  C_10 
REMARK       I    between atoms: C_10  and  N_11 
REMARK    5  A    between atoms: N_11  and  N_12 
REMARK    6  A    between atoms: C_13  and  C_14 
ROOT
HETATM    1  C   UNL     1      39.776 -12.618   5.654  1.00  0.00     0.261 C 
HETATM    2  N   UNL     1      40.386 -13.500   6.513  1.00  0.00    -0.246 N 
HETATM    3  O   UNL     1      38.867 -11.892   6.065  1.00  0.00    -0.269 OA
HETATM    4  H   UNL     1      40.077 -13.472   7.479  1.00  0.00     0.192 HD
ENDROOT
BRANCH   1   5
HETATM    5  C   UNL     1      40.226 -12.610   4.197  1.00  0.00     0.280 C 
BRANCH   5   6
HETATM    6  O   UNL     1      39.136 -12.922   3.340  1.00  0.00    -0.341 OA
BRANCH   6   7
HETATM    7  C   UNL     1      39.434 -13.245   2.043  1.00  0.00     0.086 A 
HETATM    8  C   UNL     1      39.036 -12.342   1.048  1.00  0.00     0.044 A 
HETATM    9  C   UNL     1      39.262 -12.621  -0.306  1.00  0.00     0.029 A 
HETATM   10 BR   UNL     1      38.181 -10.700   1.483  1.00  0.00    -0.048 Br
HETATM   11  C   UNL     1      39.889 -13.811  -0.699  1.00  0.00    -0.053 A 
HETATM   12  C   UNL     1      40.279 -14.714   0.299  1.00  0.00     0.010 A 
HETATM   13  C   UNL     1      40.058 -14.433   1.653  1.00  0.00     0.039 A 
BRANCH  11  14
HETATM   14  C   UNL     1      40.078 -14.108  -2.176  1.00  0.00     0.010 C 
HETATM   15  C   UNL     1      40.653 -12.886  -2.898  1.00  0.00     0.015 C 
HETATM   16  C   UNL     1      38.797 -14.588  -2.866  1.00  0.00     0.015 C 
ENDBRANCH  11  14
ENDBRANCH   6   7
ENDBRANCH   5   6
ENDBRANCH   1   5
BRANCH   2  17
HETATM   17  N   UNL     1      41.388 -14.334   6.122  1.00  0.00    -0.184 NA
HETATM   18  C   UNL     1      41.233 -15.574   6.463  1.00  0.00     0.152 C 
BRANCH  18  19
HETATM   19  C   UNL     1      42.253 -16.545   6.129  1.00  0.00     0.011 A 
HETATM   20  C   UNL     1      42.605 -17.017   4.823  1.00  0.00     0.004 A 
HETATM   21  C   UNL     1      43.627 -17.955   4.982  1.00  0.00     0.043 A 
HETATM   22  C   UNL     1      42.154 -16.732   3.516  1.00  0.00     0.014 A 
HETATM   23  C   UNL     1      44.217 -18.623   3.902  1.00  0.00     0.030 A 
HETATM   24  N   UNL     1      43.883 -18.052   6.330  1.00  0.00    -0.364 N 
HETATM   25  C   UNL     1      43.751 -18.322   2.619  1.00  0.00     0.002 A 
HETATM   26  C   UNL     1      42.735 -17.390   2.426  1.00  0.00     0.001 A 
HETATM   27  H   UNL     1      44.574 -18.665   6.740  1.00  0.00     0.165 HD
HETATM   28  C   UNL     1      43.067 -17.206   7.028  1.00  0.00     0.102 A 
ENDBRANCH  18  19
ENDBRANCH   2  17
TORSDOF 6
ENDMDL
MODEL 4
REMARK VINA RESULT:      -8.5      3.527      6.856
REMARK  6 active torsions:
REMARK  status: ('A' for Active; 'I' for Inactive)
REMARK    1  A    between atoms: C_2  and  C_3 
REMARK    2  A    between atoms: C_7  and  O_8 
REMARK    3  A    between atoms: O_8  and  C_9 
REMARK    4  A    between atoms: C_9  and  C_10 
REMARK       I    between atoms: C_10  and  N_11 
REMARK    5  A    between atoms: N_11  and  N_12 
REMARK    6  A    between atoms: C_13  and  C_14 
ROOT
HETATM    1  C   UNL     1      43.414 -11.603   3.574  1.00  0.00     0.261 C 
HETATM    2  N   UNL     1      42.691 -10.661   2.884  1.00  0.00    -0.246 N 
HETATM    3  O   UNL     1      43.994 -11.288   4.617  1.00  0.00    -0.269 OA
HETATM    4  H   UNL     1      42.634  -9.741   3.308  1.00  0.00     0.192 HD
ENDROOT
BRANCH   1   5
HETATM    5  C   UNL     1      43.506 -13.007   2.986  1.00  0.00     0.280 C 
BRANCH   5   6
HETATM    6  O   UNL     1      42.782 -13.929   3.790  1.00  0.00    -0.341 OA
BRANCH   6   7
HETATM    7  C   UNL     1      43.023 -15.261   3.583  1.00  0.00     0.086 A 
HETATM    8  C   UNL     1      43.491 -16.007   4.672  1.00  0.00     0.044 A 
HETATM    9  C   UNL     1      43.805 -17.364   4.531  1.00  0.00     0.029 A 
HETATM   10 BR   UNL     1      43.716 -15.221   6.389  1.00  0.00    -0.048 Br
HETATM   11  C   UNL     1      43.661 -18.011   3.295  1.00  0.00    -0.053 A 
HETATM   12  C   UNL     1      43.199 -17.259   2.206  1.00  0.00     0.010 A 
HETATM   13  C   UNL     1      42.879 -15.903   2.349  1.00  0.00     0.039 A 
BRANCH  11  14
HETATM   14  C   UNL     1      44.053 -19.471   3.160  1.00  0.00     0.010 C 
HETATM   15  C   UNL     1      43.190 -20.161   2.100  1.00  0.00     0.015 C 
HETATM   16  C   UNL     1      43.996 -20.238   4.485  1.00  0.00     0.015 C 
ENDBRANCH  11  14
ENDBRANCH   6   7
ENDBRANCH   5   6
ENDBRANCH   1   5
BRANCH   2  17
HETATM   17  N   UNL     1      42.035 -10.940   1.724  1.00  0.00    -0.184 NA
HETATM   18  C   UNL     1      40.749 -10.790   1.773  1.00  0.00     0.152 C 
BRANCH  18  19
HETATM   19  C   UNL     1      39.946 -11.089   0.607  1.00  0.00     0.011 A 
HETATM   20  C   UNL     1      39.776 -12.363  -0.026  1.00  0.00     0.004 A 
HETATM   21  C   UNL     1      38.930 -12.174  -1.120  1.00  0.00     0.043 A 
HETATM   22  C   UNL     1      40.259 -13.664   0.231  1.00  0.00     0.014 A 
HETATM   23  C   UNL     1      38.547 -13.219  -1.971  1.00  0.00     0.030 A 
HETATM   24  N   UNL     1      38.602 -10.839  -1.155  1.00  0.00    -0.364 N 
HETATM   25  C   UNL     1      39.039 -14.497  -1.693  1.00  0.00     0.002 A 
HETATM   26  C   UNL     1      39.883 -14.719  -0.608  1.00  0.00     0.001 A 
HETATM   27  H   UNL     1      38.005 -10.413  -1.850  1.00  0.00     0.165 HD
HETATM   28  C   UNL     1      39.202 -10.179  -0.119  1.00  0.00     0.102 A 
ENDBRANCH  18  19
ENDBRANCH   2  17
TORSDOF 6
ENDMDL
MODEL 5
REMARK VINA RESULT:      -8.3      3.439      7.264
REMARK  6 active torsions:
REMARK  status: ('A' for Active; 'I' for Inactive)
REMARK    1  A    between atoms: C_2  and  C_3 
REMARK    2  A    between atoms: C_7  and  O_8 
REMARK    3  A    between atoms: O_8  and  C_9 
REMARK    4  A    between atoms: C_9  and  C_10 
REMARK       I    between atoms: C_10  and  N_11 
REMARK    5  A    between atoms: N_11  and  N_12 
REMARK    6  A    between atoms: C_13  and  C_14 
ROOT
HETATM    1  C   UNL     1      39.800 -13.740  -0.320  1.00  0.00     0.261 C 
HETATM    2  N   UNL     1      39.723 -14.973   0.280  1.00  0.00    -0.246 N 
HETATM    3  O   UNL     1      38.979 -13.428  -1.187  1.00  0.00    -0.269 OA
HETATM    4  H   UNL     1      38.943 -15.559   0.002  1.00  0.00     0.192 HD
ENDROOT
BRANCH   1   5
HETATM    5  C   UNL     1      40.943 -12.816   0.086  1.00  0.00     0.280 C 
BRANCH   5   6
HETATM    6  O   UNL     1      40.560 -12.012   1.194  1.00  0.00    -0.341 OA
BRANCH   6   7
HETATM    7  C   UNL     1      41.285 -12.152   2.347  1.00  0.00     0.086 A 
HETATM    8  C   UNL     1      40.735 -11.620   3.521  1.00  0.00     0.044 A 
HETATM    9  C   UNL     1      41.434 -11.681   4.733  1.00  0.00     0.029 A 
HETATM   10 BR   UNL     1      39.018 -10.802   3.530  1.00  0.00    -0.048 Br
HETATM   11  C   UNL     1      42.704 -12.273   4.801  1.00  0.00    -0.053 A 
HETATM   12  C   UNL     1      43.253 -12.796   3.623  1.00  0.00     0.010 A 
HETATM   13  C   UNL     1      42.551 -12.741   2.413  1.00  0.00     0.039 A 
BRANCH  11  14
HETATM   14  C   UNL     1      43.459 -12.282   6.118  1.00  0.00     0.010 C 
HETATM   15  C   UNL     1      44.700 -11.390   6.029  1.00  0.00     0.015 C 
HETATM   16  C   UNL     1      43.839 -13.690   6.588  1.00  0.00     0.015 C 
ENDBRANCH  11  14
ENDBRANCH   6   7
ENDBRANCH   5   6
ENDBRANCH   1   5
BRANCH   2  17
HETATM   17  N   UNL     1      40.601 -15.383   1.236  1.00  0.00    -0.184 NA
HETATM   18  C   UNL     1      40.087 -15.560   2.412  1.00  0.00     0.152 C 
BRANCH  18  19
HETATM   19  C   UNL     1      40.934 -15.965   3.513  1.00  0.00     0.011 A 
HETATM   20  C   UNL     1      42.050 -16.862   3.465  1.00  0.00     0.004 A 
HETATM   21  C   UNL     1      42.555 -16.968   4.762  1.00  0.00     0.043 A 
HETATM   22  C   UNL     1      42.683 -17.594   2.437  1.00  0.00     0.014 A 
HETATM   23  C   UNL     1      43.657 -17.770   5.083  1.00  0.00     0.030 A 
HETATM   24  N   UNL     1      41.776 -16.171   5.568  1.00  0.00    -0.364 N 
HETATM   25  C   UNL     1      44.265 -18.484   4.046  1.00  0.00     0.002 A 
HETATM   26  C   UNL     1      43.788 -18.398   2.742  1.00  0.00     0.001 A 
HETATM   27  H   UNL     1      41.906 -16.060   6.564  1.00  0.00     0.165 HD
HETATM   28  C   UNL     1      40.803 -15.560   4.827  1.00  0.00     0.102 A 
ENDBRANCH  18  19
ENDBRANCH   2  17
TORSDOF 6
ENDMDL
MODEL 6
REMARK VINA RESULT:      -8.3      3.057      6.931
REMARK  6 active torsions:
REMARK  status: ('A' for Active; 'I' for Inactive)
REMARK    1  A    between atoms: C_2  and  C_3 
REMARK    2  A    between atoms: C_7  and  O_8 
REMARK    3  A    between atoms: O_8  and  C_9 
REMARK    4  A    between atoms: C_9  and  C_10 
REMARK       I    between atoms: C_10  and  N_11 
REMARK    5  A    between atoms: N_11  and  N_12 
REMARK    6  A    between atoms: C_13  and  C_14 
ROOT
HETATM    1  C   UNL     1      40.881 -13.423   0.631  1.00  0.00     0.261 C 
HETATM    2  N   UNL     1      41.728 -14.502   0.577  1.00  0.00    -0.246 N 
HETATM    3  O   UNL     1      40.761 -12.688  -0.353  1.00  0.00    -0.269 OA
HETATM    4  H   UNL     1      42.188 -14.668  -0.311  1.00  0.00     0.192 HD
ENDROOT
BRANCH   1   5
HETATM    5  C   UNL     1      40.150 -13.150   1.941  1.00  0.00     0.280 C 
BRANCH   5   6
HETATM    6  O   UNL     1      40.589 -11.921   2.506  1.00  0.00    -0.341 OA
BRANCH   6   7
HETATM    7  C   UNL     1      41.608 -11.982   3.418  1.00  0.00     0.086 A 
HETATM    8  C   UNL     1      41.257 -12.158   4.763  1.00  0.00     0.044 A 
HETATM    9  C   UNL     1      42.237 -12.185   5.763  1.00  0.00     0.029 A 
HETATM   10 BR   UNL     1      39.445 -12.378   5.295  1.00  0.00    -0.048 Br
HETATM   11  C   UNL     1      43.594 -12.032   5.444  1.00  0.00    -0.053 A 
HETATM   12  C   UNL     1      43.940 -11.849   4.098  1.00  0.00     0.010 A 
HETATM   13  C   UNL     1      42.960 -11.828   3.098  1.00  0.00     0.039 A 
BRANCH  11  14
HETATM   14  C   UNL     1      44.631 -12.018   6.553  1.00  0.00     0.010 C 
HETATM   15  C   UNL     1      44.034 -11.429   7.834  1.00  0.00     0.015 C 
HETATM   16  C   UNL     1      45.918 -11.280   6.169  1.00  0.00     0.015 C 
ENDBRANCH  11  14
ENDBRANCH   6   7
ENDBRANCH   5   6
ENDBRANCH   1   5
BRANCH   2  17
HETATM   17  N   UNL     1      41.912 -15.347   1.630  1.00  0.00    -0.184 NA
HETATM   18  C   UNL     1      43.003 -16.043   1.588  1.00  0.00     0.152 C 
BRANCH  18  19
HETATM   19  C   UNL     1      43.287 -16.997   2.639  1.00  0.00     0.011 A 
HETATM   20  C   UNL     1      43.323 -16.749   4.049  1.00  0.00     0.004 A 
HETATM   21  C   UNL     1      43.652 -17.953   4.674  1.00  0.00     0.043 A 
HETATM   22  C   UNL     1      43.103 -15.613   4.856  1.00  0.00     0.014 A 
HETATM   23  C   UNL     1      43.775 -18.076   6.064  1.00  0.00     0.030 A 
HETATM   24  N   UNL     1      43.814 -18.894   3.685  1.00  0.00    -0.364 N 
HETATM   25  C   UNL     1      43.551 -16.935   6.840  1.00  0.00     0.002 A 
HETATM   26  C   UNL     1      43.219 -15.720   6.247  1.00  0.00     0.001 A 
HETATM   27  H   UNL     1      44.064 -19.860   3.847  1.00  0.00     0.165 HD
HETATM   28  C   UNL     1      43.592 -18.333   2.459  1.00  0.00     0.102 A 
ENDBRANCH  18  19
ENDBRANCH   2  17
TORSDOF 6
ENDMDL
MODEL 7
REMARK VINA RESULT:      -8.3      3.626      6.863
REMARK  6 active torsions:
REMARK  status: ('A' for Active; 'I' for Inactive)
REMARK    1  A    between atoms: C_2  and  C_3 
REMARK    2  A    between atoms: C_7  and  O_8 
REMARK    3  A    between atoms: O_8  and  C_9 
REMARK    4  A    between atoms: C_9  and  C_10 
REMARK       I    between atoms: C_10  and  N_11 
REMARK    5  A    between atoms: N_11  and  N_12 
REMARK    6  A    between atoms: C_13  and  C_14 
ROOT
HETATM    1  C   UNL     1      39.735 -13.557  -0.292  1.00  0.00     0.261 C 
HETATM    2  N   UNL     1      39.776 -14.866   0.119  1.00  0.00    -0.246 N 
HETATM    3  O   UNL     1      38.789 -13.158  -0.976  1.00  0.00    -0.269 OA
HETATM    4  H   UNL     1      38.978 -15.440  -0.131  1.00  0.00     0.192 HD
ENDROOT
BRANCH   1   5
HETATM    5  C   UNL     1      40.904 -12.652   0.082  1.00  0.00     0.280 C 
BRANCH   5   6
HETATM    6  O   UNL     1      40.535 -11.780   1.143  1.00  0.00    -0.341 OA
BRANCH   6   7
HETATM    7  C   UNL     1      41.118 -11.999   2.363  1.00  0.00     0.086 A 
HETATM    8  C   UNL     1      40.462 -11.487   3.490  1.00  0.00     0.044 A 
HETATM    9  C   UNL     1      41.016 -11.629   4.768  1.00  0.00     0.029 A 
HETATM   10 BR   UNL     1      38.793 -10.588   3.343  1.00  0.00    -0.048 Br
HETATM   11  C   UNL     1      42.242 -12.283   4.952  1.00  0.00    -0.053 A 
HETATM   12  C   UNL     1      42.898 -12.787   3.821  1.00  0.00     0.010 A 
HETATM   13  C   UNL     1      42.342 -12.651   2.543  1.00  0.00     0.039 A 
BRANCH  11  14
HETATM   14  C   UNL     1      42.841 -12.380   6.344  1.00  0.00     0.010 C 
HETATM   15  C   UNL     1      43.127 -10.983   6.901  1.00  0.00     0.015 C 
HETATM   16  C   UNL     1      44.101 -13.251   6.401  1.00  0.00     0.015 C 
ENDBRANCH  11  14
ENDBRANCH   6   7
ENDBRANCH   5   6
ENDBRANCH   1   5
BRANCH   2  17
HETATM   17  N   UNL     1      40.795 -15.372   0.868  1.00  0.00    -0.184 NA
HETATM   18  C   UNL     1      40.444 -15.853   2.017  1.00  0.00     0.152 C 
BRANCH  18  19
HETATM   19  C   UNL     1      41.449 -16.388   2.911  1.00  0.00     0.011 A 
HETATM   20  C   UNL     1      41.517 -16.230   4.332  1.00  0.00     0.004 A 
HETATM   21  C   UNL     1      42.659 -16.902   4.771  1.00  0.00     0.043 A 
HETATM   22  C   UNL     1      40.712 -15.580   5.293  1.00  0.00     0.014 A 
HETATM   23  C   UNL     1      43.038 -16.954   6.118  1.00  0.00     0.030 A 
HETATM   24  N   UNL     1      43.263 -17.444   3.661  1.00  0.00    -0.364 N 
HETATM   25  C   UNL     1      42.223 -16.302   7.048  1.00  0.00     0.002 A 
HETATM   26  C   UNL     1      41.076 -15.625   6.644  1.00  0.00     0.001 A 
HETATM   27  H   UNL     1      44.119 -17.982   3.678  1.00  0.00     0.165 HD
HETATM   28  C   UNL     1      42.542 -17.146   2.539  1.00  0.00     0.102 A 
ENDBRANCH  18  19
ENDBRANCH   2  17
TORSDOF 6
ENDMDL
MODEL 8
REMARK VINA RESULT:      -8.0      3.669      7.149
REMARK  6 active torsions:
REMARK  status: ('A' for Active; 'I' for Inactive)
REMARK    1  A    between atoms: C_2  and  C_3 
REMARK    2  A    between atoms: C_7  and  O_8 
REMARK    3  A    between atoms: O_8  and  C_9 
REMARK    4  A    between atoms: C_9  and  C_10 
REMARK       I    between atoms: C_10  and  N_11 
REMARK    5  A    between atoms: N_11  and  N_12 
REMARK    6  A    between atoms: C_13  and  C_14 
ROOT
HETATM    1  C   UNL     1      41.466 -12.409   4.979  1.00  0.00     0.261 C 
HETATM    2  N   UNL     1      41.749 -12.066   3.680  1.00  0.00    -0.246 N 
HETATM    3  O   UNL     1      42.240 -12.081   5.882  1.00  0.00    -0.269 OA
HETATM    4  H   UNL     1      42.581 -11.504   3.535  1.00  0.00     0.192 HD
ENDROOT
BRANCH   1   5
HETATM    5  C   UNL     1      40.211 -13.234   5.244  1.00  0.00     0.280 C 
BRANCH   5   6
HETATM    6  O   UNL     1      40.543 -14.432   5.934  1.00  0.00    -0.341 OA
BRANCH   6   7
HETATM    7  C   UNL     1      41.260 -15.373   5.244  1.00  0.00     0.086 A 
HETATM    8  C   UNL     1      42.420 -15.870   5.851  1.00  0.00     0.044 A 
HETATM    9  C   UNL     1      43.233 -16.800   5.191  1.00  0.00     0.029 A 
HETATM   10 BR   UNL     1      42.942 -15.318   7.595  1.00  0.00    -0.048 Br
HETATM   11  C   UNL     1      42.908 -17.254   3.905  1.00  0.00    -0.053 A 
HETATM   12  C   UNL     1      41.751 -16.748   3.299  1.00  0.00     0.010 A 
HETATM   13  C   UNL     1      40.934 -15.823   3.961  1.00  0.00     0.039 A 
BRANCH  11  14
HETATM   14  C   UNL     1      43.834 -18.226   3.195  1.00  0.00     0.010 C 
HETATM   15  C   UNL     1      43.049 -19.071   2.188  1.00  0.00     0.015 C 
HETATM   16  C   UNL     1      44.621 -19.123   4.155  1.00  0.00     0.015 C 
ENDBRANCH  11  14
ENDBRANCH   6   7
ENDBRANCH   5   6
ENDBRANCH   1   5
BRANCH   2  17
HETATM   17  N   UNL     1      40.942 -12.404   2.636  1.00  0.00    -0.184 NA
HETATM   18  C   UNL     1      41.491 -13.162   1.742  1.00  0.00     0.152 C 
BRANCH  18  19
HETATM   19  C   UNL     1      40.737 -13.558   0.572  1.00  0.00     0.011 A 
HETATM   20  C   UNL     1      40.547 -12.806  -0.632  1.00  0.00     0.004 A 
HETATM   21  C   UNL     1      39.741 -13.571  -1.477  1.00  0.00     0.043 A 
HETATM   22  C   UNL     1      40.989 -11.546  -1.088  1.00  0.00     0.014 A 
HETATM   23  C   UNL     1      39.352 -13.138  -2.751  1.00  0.00     0.030 A 
HETATM   24  N   UNL     1      39.448 -14.739  -0.812  1.00  0.00    -0.364 N 
HETATM   25  C   UNL     1      39.804 -11.886  -3.177  1.00  0.00     0.002 A 
HETATM   26  C   UNL     1      40.611 -11.099  -2.360  1.00  0.00     0.001 A 
HETATM   27  H   UNL     1      38.872 -15.482  -1.183  1.00  0.00     0.165 HD
HETATM   28  C   UNL     1      40.046 -14.744   0.417  1.00  0.00     0.102 A 
ENDBRANCH  18  19
ENDBRANCH   2  17
TORSDOF 6
ENDMDL
MODEL 9
REMARK VINA RESULT:      -8.0      2.593      5.898
REMARK  6 active torsions:
REMARK  status: ('A' for Active; 'I' for Inactive)
REMARK    1  A    between atoms: C_2  and  C_3 
REMARK    2  A    between atoms: C_7  and  O_8 
REMARK    3  A    between atoms: O_8  and  C_9 
REMARK    4  A    between atoms: C_9  and  C_10 
REMARK       I    between atoms: C_10  and  N_11 
REMARK    5  A    between atoms: N_11  and  N_12 
REMARK    6  A    between atoms: C_13  and  C_14 
ROOT
HETATM    1  C   UNL     1      43.522 -11.703   7.234  1.00  0.00     0.261 C 
HETATM    2  N   UNL     1      42.631 -11.215   6.310  1.00  0.00    -0.246 N 
HETATM    3  O   UNL     1      43.803 -11.031   8.229  1.00  0.00    -0.269 OA
HETATM    4  H   UNL     1      42.204 -10.321   6.527  1.00  0.00     0.192 HD
ENDROOT
BRANCH   1   5
HETATM    5  C   UNL     1      44.170 -13.056   6.959  1.00  0.00     0.280 C 
BRANCH   5   6
HETATM    6  O   UNL     1      43.258 -14.109   7.244  1.00  0.00    -0.341 OA
BRANCH   6   7
HETATM    7  C   UNL     1      43.381 -15.257   6.509  1.00  0.00     0.086 A 
HETATM    8  C   UNL     1      42.205 -15.961   6.215  1.00  0.00     0.044 A 
HETATM    9  C   UNL     1      42.249 -17.168   5.507  1.00  0.00     0.029 A 
HETATM   10 BR   UNL     1      40.500 -15.311   6.750  1.00  0.00    -0.048 Br
HETATM   11  C   UNL     1      43.471 -17.706   5.078  1.00  0.00    -0.053 A 
HETATM   12  C   UNL     1      44.645 -17.003   5.381  1.00  0.00     0.010 A 
HETATM   13  C   UNL     1      44.600 -15.792   6.084  1.00  0.00     0.039 A 
BRANCH  11  14
HETATM   14  C   UNL     1      43.493 -19.040   4.355  1.00  0.00     0.010 C 
HETATM   15  C   UNL     1      44.340 -20.054   5.129  1.00  0.00     0.015 C 
HETATM   16  C   UNL     1      43.973 -18.934   2.903  1.00  0.00     0.015 C 
ENDBRANCH  11  14
ENDBRANCH   6   7
ENDBRANCH   5   6
ENDBRANCH   1   5
BRANCH   2  17
HETATM   17  N   UNL     1      42.284 -11.901   5.186  1.00  0.00    -0.184 NA
HETATM   18  C   UNL     1      41.030 -12.209   5.097  1.00  0.00     0.152 C 
BRANCH  18  19
HETATM   19  C   UNL     1      40.554 -12.967   3.960  1.00  0.00     0.011 A 
HETATM   20  C   UNL     1      41.305 -13.877   3.149  1.00  0.00     0.004 A 
HETATM   21  C   UNL     1      40.445 -14.362   2.162  1.00  0.00     0.043 A 
HETATM   22  C   UNL     1      42.639 -14.339   3.161  1.00  0.00     0.014 A 
HETATM   23  C   UNL     1      40.852 -15.282   1.187  1.00  0.00     0.030 A 
HETATM   24  N   UNL     1      39.221 -13.768   2.362  1.00  0.00    -0.364 N 
HETATM   25  C   UNL     1      42.177 -15.724   1.224  1.00  0.00     0.002 A 
HETATM   26  C   UNL     1      43.060 -15.261   2.196  1.00  0.00     0.001 A 
HETATM   27  H   UNL     1      38.405 -13.928   1.788  1.00  0.00     0.165 HD
HETATM   28  C   UNL     1      39.273 -12.932   3.442  1.00  0.00     0.102 A 
ENDBRANCH  18  19
ENDBRANCH   2  17
TORSDOF 6
ENDMDL
MODEL 10
REMARK VINA RESULT:      -7.7      3.760      7.938
REMARK  6 active torsions:
REMARK  status: ('A' for Active; 'I' for Inactive)
REMARK    1  A    between atoms: C_2  and  C_3 
REMARK    2  A    between atoms: C_7  and  O_8 
REMARK    3  A    between atoms: O_8  and  C_9 
REMARK    4  A    between atoms: C_9  and  C_10 
REMARK       I    between atoms: C_10  and  N_11 
REMARK    5  A    between atoms: N_11  and  N_12 
REMARK    6  A    between atoms: C_13  and  C_14 
ROOT
HETATM    1  C   UNL     1      41.921 -12.682   5.267  1.00  0.00     0.261 C 
HETATM    2  N   UNL     1      42.899 -13.645   5.215  1.00  0.00    -0.246 N 
HETATM    3  O   UNL     1      41.965 -11.810   6.139  1.00  0.00    -0.269 OA
HETATM    4  H   UNL     1      43.652 -13.556   5.888  1.00  0.00     0.192 HD
ENDROOT
BRANCH   1   5
HETATM    5  C   UNL     1      40.781 -12.763   4.257  1.00  0.00     0.280 C 
BRANCH   5   6
HETATM    6  O   UNL     1      41.076 -11.971   3.113  1.00  0.00    -0.341 OA
BRANCH   6   7
HETATM    7  C   UNL     1      40.781 -12.508   1.889  1.00  0.00     0.086 A 
HETATM    8  C   UNL     1      40.743 -11.633   0.795  1.00  0.00     0.044 A 
HETATM    9  C   UNL     1      40.404 -12.095  -0.483  1.00  0.00     0.029 A 
HETATM   10 BR   UNL     1      41.156  -9.787   0.988  1.00  0.00    -0.048 Br
HETATM   11  C   UNL     1      40.090 -13.445  -0.699  1.00  0.00    -0.053 A 
HETATM   12  C   UNL     1      40.122 -14.315   0.399  1.00  0.00     0.010 A 
HETATM   13  C   UNL     1      40.467 -13.854   1.676  1.00  0.00     0.039 A 
BRANCH  11  14
HETATM   14  C   UNL     1      39.680 -13.908  -2.085  1.00  0.00     0.010 C 
HETATM   15  C   UNL     1      38.736 -12.890  -2.732  1.00  0.00     0.015 C 
HETATM   16  C   UNL     1      39.053 -15.306  -2.096  1.00  0.00     0.015 C 
ENDBRANCH  11  14
ENDBRANCH   6   7
ENDBRANCH   5   6
ENDBRANCH   1   5
BRANCH   2  17
HETATM   17  N   UNL     1      42.905 -14.639   4.284  1.00  0.00    -0.184 NA
HETATM   18  C   UNL     1      43.151 -15.822   4.749  1.00  0.00     0.152 C 
BRANCH  18  19
HETATM   19  C   UNL     1      43.214 -16.951   3.845  1.00  0.00     0.011 A 
HETATM   20  C   UNL     1      43.524 -18.309   4.175  1.00  0.00     0.004 A 
HETATM   21  C   UNL     1      43.483 -19.045   2.990  1.00  0.00     0.043 A 
HETATM   22  C   UNL     1      43.833 -18.988   5.374  1.00  0.00     0.014 A 
HETATM   23  C   UNL     1      43.738 -20.422   2.942  1.00  0.00     0.030 A 
HETATM   24  N   UNL     1      43.165 -18.169   1.978  1.00  0.00    -0.364 N 
HETATM   25  C   UNL     1      44.041 -21.068   4.144  1.00  0.00     0.002 A 
HETATM   26  C   UNL     1      44.088 -20.364   5.344  1.00  0.00     0.001 A 
HETATM   27  H   UNL     1      43.073 -18.425   1.005  1.00  0.00     0.165 HD
HETATM   28  C   UNL     1      42.996 -16.910   2.481  1.00  0.00     0.102 A 
ENDBRANCH  18  19
ENDBRANCH   2  17
TORSDOF 6
ENDMDL
