MODEL 1
REMARK VINA RESULT:      -9.0      0.000      0.000
REMARK  5 active torsions:
REMARK  status: ('A' for Active; 'I' for Inactive)
REMARK    1  A    between atoms: C_8  and  C_9 
REMARK    2  A    between atoms: C_9  and  N_10 
REMARK       I    between atoms: N_10  and  C_11 
REMARK       I    between atoms: C_11  and  N_12 
REMARK    3  A    between atoms: C_13  and  C_14 
REMARK    4  A    between atoms: C_14  and  C_15 
REMARK    5  A    between atoms: C_15  and  C_16 
ROOT
HETATM    1  N   UNL     1      40.274 -13.558   0.984  1.00  0.00    -0.339 N 
HETATM    2  C   UNL     1      39.942 -13.620   2.308  1.00  0.00     0.318 C 
HETATM    3  N   UNL     1      40.796 -14.366   3.107  1.00  0.00    -0.330 N 
HETATM    4  C   UNL     1      42.038 -15.039   2.668  1.00  0.00     0.089 C 
HETATM    5  C   UNL     1      43.214 -14.614   3.568  1.00  0.00     0.025 C 
HETATM    6  C   UNL     1      42.910 -14.765   5.056  1.00  0.00     0.004 C 
HETATM    7  C   UNL     1      41.618 -14.037   5.415  1.00  0.00     0.020 C 
HETATM    8  C   UNL     1      40.463 -14.492   4.529  1.00  0.00     0.128 C 
HETATM    9  O   UNL     1      38.962 -13.023   2.747  1.00  0.00    -0.247 OA
HETATM   10  H   UNL     1      40.716 -14.367   0.586  1.00  0.00     0.164 HD
ENDROOT
BRANCH   4  11
HETATM   11  C   UNL     1      41.881 -16.574   2.624  1.00  0.00     0.030 C 
BRANCH  11  12
HETATM   12  C   UNL     1      43.145 -17.284   2.128  1.00  0.00     0.040 C 
BRANCH  12  13
HETATM   13  C   UNL     1      43.473 -18.490   2.973  1.00  0.00    -0.058 A 
HETATM   14  C   UNL     1      43.825 -18.332   4.321  1.00  0.00     0.007 A 
HETATM   15  C   UNL     1      44.144 -19.443   5.102  1.00  0.00     0.001 A 
HETATM   16  C   UNL     1      44.119 -20.720   4.543  1.00  0.00     0.000 A 
HETATM   17  C   UNL     1      43.777 -20.886   3.203  1.00  0.00     0.001 A 
HETATM   18  C   UNL     1      43.457 -19.776   2.418  1.00  0.00     0.007 A 
ENDBRANCH  12  13
ENDBRANCH  11  12
ENDBRANCH   4  11
BRANCH   1  19
HETATM   19  C   UNL     1      39.462 -12.794   0.066  1.00  0.00     0.167 C 
BRANCH  19  20
HETATM   20  C   UNL     1      40.127 -12.828  -1.263  1.00  0.00     0.009 A 
HETATM   21  C   UNL     1      41.028 -11.929  -1.807  1.00  0.00     0.034 A 
HETATM   22  C   UNL     1      41.622 -10.679  -1.280  1.00  0.00     0.070 C 
HETATM   23  N   UNL     1      41.340 -12.416  -3.045  1.00  0.00    -0.282 N 
HETATM   24  H   UNL     1      41.979 -12.027  -3.731  1.00  0.00     0.189 HD
HETATM   25  N   UNL     1      40.700 -13.551  -3.356  1.00  0.00    -0.179 NA
HETATM   26  C   UNL     1      39.964 -13.818  -2.273  1.00  0.00     0.060 A 
HETATM   27  C   UNL     1      39.094 -15.020  -2.233  1.00  0.00     0.073 C 
ENDBRANCH  19  20
ENDBRANCH   1  19
TORSDOF 5
ENDMDL
MODEL 2
REMARK VINA RESULT:      -8.6      2.403      5.703
REMARK  5 active torsions:
REMARK  status: ('A' for Active; 'I' for Inactive)
REMARK    1  A    between atoms: C_8  and  C_9 
REMARK    2  A    between atoms: C_9  and  N_10 
REMARK       I    between atoms: N_10  and  C_11 
REMARK       I    between atoms: C_11  and  N_12 
REMARK    3  A    between atoms: C_13  and  C_14 
REMARK    4  A    between atoms: C_14  and  C_15 
REMARK    5  A    between atoms: C_15  and  C_16 
ROOT
HETATM    1  N   UNL     1      41.150 -13.671   4.686  1.00  0.00    -0.339 N 
HETATM    2  C   UNL     1      41.143 -13.025   3.482  1.00  0.00     0.318 C 
HETATM    3  N   UNL     1      41.140 -13.843   2.363  1.00  0.00    -0.330 N 
HETATM    4  C   UNL     1      41.087 -15.322   2.360  1.00  0.00     0.089 C 
HETATM    5  C   UNL     1      39.932 -15.807   1.463  1.00  0.00     0.025 C 
HETATM    6  C   UNL     1      39.953 -15.177   0.073  1.00  0.00     0.004 C 
HETATM    7  C   UNL     1      40.002 -13.656   0.175  1.00  0.00     0.020 C 
HETATM    8  C   UNL     1      41.167 -13.198   1.046  1.00  0.00     0.128 C 
HETATM    9  O   UNL     1      41.114 -11.798   3.419  1.00  0.00    -0.247 OA
HETATM   10  H   UNL     1      41.641 -14.546   4.732  1.00  0.00     0.164 HD
ENDROOT
BRANCH   4  11
HETATM   11  C   UNL     1      42.434 -15.949   1.942  1.00  0.00     0.030 C 
BRANCH  11  12
HETATM   12  C   UNL     1      43.281 -16.387   3.141  1.00  0.00     0.040 C 
BRANCH  12  13
HETATM   13  C   UNL     1      43.430 -17.887   3.197  1.00  0.00    -0.058 A 
HETATM   14  C   UNL     1      44.007 -18.497   4.319  1.00  0.00     0.007 A 
HETATM   15  C   UNL     1      44.161 -19.883   4.369  1.00  0.00     0.001 A 
HETATM   16  C   UNL     1      43.745 -20.670   3.297  1.00  0.00     0.000 A 
HETATM   17  C   UNL     1      43.176 -20.073   2.175  1.00  0.00     0.001 A 
HETATM   18  C   UNL     1      43.021 -18.686   2.122  1.00  0.00     0.007 A 
ENDBRANCH  12  13
ENDBRANCH  11  12
ENDBRANCH   4  11
BRANCH   1  19
HETATM   19  C   UNL     1      41.139 -12.915   5.917  1.00  0.00     0.167 C 
BRANCH  19  20
HETATM   20  C   UNL     1      42.543 -12.542   6.231  1.00  0.00     0.009 A 
HETATM   21  C   UNL     1      43.626 -13.365   6.484  1.00  0.00     0.034 A 
HETATM   22  C   UNL     1      43.762 -14.840   6.525  1.00  0.00     0.070 C 
HETATM   23  N   UNL     1      44.685 -12.532   6.711  1.00  0.00    -0.282 N 
HETATM   24  H   UNL     1      45.647 -12.780   6.919  1.00  0.00     0.189 HD
HETATM   25  N   UNL     1      44.373 -11.231   6.643  1.00  0.00    -0.179 NA
HETATM   26  C   UNL     1      43.071 -11.224   6.341  1.00  0.00     0.060 A 
HETATM   27  C   UNL     1      42.343  -9.939   6.180  1.00  0.00     0.073 C 
ENDBRANCH  19  20
ENDBRANCH   1  19
TORSDOF 5
ENDMDL
MODEL 3
REMARK VINA RESULT:      -8.6      2.995      5.830
REMARK  5 active torsions:
REMARK  status: ('A' for Active; 'I' for Inactive)
REMARK    1  A    between atoms: C_8  and  C_9 
REMARK    2  A    between atoms: C_9  and  N_10 
REMARK       I    between atoms: N_10  and  C_11 
REMARK       I    between atoms: C_11  and  N_12 
REMARK    3  A    between atoms: C_13  and  C_14 
REMARK    4  A    between atoms: C_14  and  C_15 
REMARK    5  A    between atoms: C_15  and  C_16 
ROOT
HETATM    1  N   UNL     1      42.575 -12.170   3.851  1.00  0.00    -0.339 N 
HETATM    2  C   UNL     1      42.136 -12.449   2.587  1.00  0.00     0.318 C 
HETATM    3  N   UNL     1      41.890 -13.786   2.318  1.00  0.00    -0.330 N 
HETATM    4  C   UNL     1      42.005 -14.906   3.279  1.00  0.00     0.089 C 
HETATM    5  C   UNL     1      40.697 -15.720   3.298  1.00  0.00     0.025 C 
HETATM    6  C   UNL     1      40.231 -16.133   1.905  1.00  0.00     0.004 C 
HETATM    7  C   UNL     1      40.138 -14.917   0.990  1.00  0.00     0.020 C 
HETATM    8  C   UNL     1      41.451 -14.141   0.965  1.00  0.00     0.128 C 
HETATM    9  O   UNL     1      41.953 -11.553   1.765  1.00  0.00    -0.247 OA
HETATM   10  H   UNL     1      43.152 -12.861   4.296  1.00  0.00     0.164 HD
ENDROOT
BRANCH   4  11
HETATM   11  C   UNL     1      43.227 -15.801   2.981  1.00  0.00     0.030 C 
BRANCH  11  12
HETATM   12  C   UNL     1      43.644 -16.653   4.184  1.00  0.00     0.040 C 
BRANCH  12  13
HETATM   13  C   UNL     1      43.695 -18.120   3.836  1.00  0.00    -0.058 A 
HETATM   14  C   UNL     1      43.335 -18.553   2.552  1.00  0.00     0.007 A 
HETATM   15  C   UNL     1      43.365 -19.910   2.230  1.00  0.00     0.001 A 
HETATM   16  C   UNL     1      43.751 -20.846   3.189  1.00  0.00     0.000 A 
HETATM   17  C   UNL     1      44.104 -20.426   4.469  1.00  0.00     0.001 A 
HETATM   18  C   UNL     1      44.073 -19.069   4.794  1.00  0.00     0.007 A 
ENDBRANCH  12  13
ENDBRANCH  11  12
ENDBRANCH   4  11
BRANCH   1  19
HETATM   19  C   UNL     1      42.847 -10.806   4.241  1.00  0.00     0.167 C 
BRANCH  19  20
HETATM   20  C   UNL     1      42.886 -10.760   5.726  1.00  0.00     0.009 A 
HETATM   21  C   UNL     1      41.865 -10.475   6.615  1.00  0.00     0.034 A 
HETATM   22  C   UNL     1      40.438 -10.134   6.409  1.00  0.00     0.070 C 
HETATM   23  N   UNL     1      42.416 -10.569   7.862  1.00  0.00    -0.282 N 
HETATM   24  H   UNL     1      41.965 -10.435   8.760  1.00  0.00     0.189 HD
HETATM   25  N   UNL     1      43.720 -10.876   7.854  1.00  0.00    -0.179 NA
HETATM   26  C   UNL     1      44.016 -11.005   6.557  1.00  0.00     0.060 A 
HETATM   27  C   UNL     1      45.398 -11.345   6.132  1.00  0.00     0.073 C 
ENDBRANCH  19  20
ENDBRANCH   1  19
TORSDOF 5
ENDMDL
MODEL 4
REMARK VINA RESULT:      -8.2      2.127      5.864
REMARK  5 active torsions:
REMARK  status: ('A' for Active; 'I' for Inactive)
REMARK    1  A    between atoms: C_8  and  C_9 
REMARK    2  A    between atoms: C_9  and  N_10 
REMARK       I    between atoms: N_10  and  C_11 
REMARK       I    between atoms: C_11  and  N_12 
REMARK    3  A    between atoms: C_13  and  C_14 
REMARK    4  A    between atoms: C_14  and  C_15 
REMARK    5  A    between atoms: C_15  and  C_16 
ROOT
HETATM    1  N   UNL     1      41.054 -13.725   4.108  1.00  0.00    -0.339 N 
HETATM    2  C   UNL     1      41.019 -12.912   3.010  1.00  0.00     0.318 C 
HETATM    3  N   UNL     1      41.004 -13.560   1.785  1.00  0.00    -0.330 N 
HETATM    4  C   UNL     1      40.967 -15.024   1.569  1.00  0.00     0.089 C 
HETATM    5  C   UNL     1      39.801 -15.389   0.630  1.00  0.00     0.025 C 
HETATM    6  C   UNL     1      39.790 -14.565  -0.654  1.00  0.00     0.004 C 
HETATM    7  C   UNL     1      39.825 -13.074  -0.334  1.00  0.00     0.020 C 
HETATM    8  C   UNL     1      41.000 -12.731   0.575  1.00  0.00     0.128 C 
HETATM    9  O   UNL     1      40.976 -11.689   3.125  1.00  0.00    -0.247 OA
HETATM   10  H   UNL     1      41.556 -14.591   4.019  1.00  0.00     0.164 HD
ENDROOT
BRANCH   4  11
HETATM   11  C   UNL     1      42.313 -15.566   1.043  1.00  0.00     0.030 C 
BRANCH  11  12
HETATM   12  C   UNL     1      43.441 -15.450   2.072  1.00  0.00     0.040 C 
BRANCH  12  13
HETATM   13  C   UNL     1      43.590 -16.715   2.879  1.00  0.00    -0.058 A 
HETATM   14  C   UNL     1      43.554 -17.965   2.244  1.00  0.00     0.007 A 
HETATM   15  C   UNL     1      43.675 -19.139   2.988  1.00  0.00     0.001 A 
HETATM   16  C   UNL     1      43.830 -19.075   4.372  1.00  0.00     0.000 A 
HETATM   17  C   UNL     1      43.860 -17.838   5.013  1.00  0.00     0.001 A 
HETATM   18  C   UNL     1      43.738 -16.662   4.271  1.00  0.00     0.007 A 
ENDBRANCH  12  13
ENDBRANCH  11  12
ENDBRANCH   4  11
BRANCH   1  19
HETATM   19  C   UNL     1      41.058 -13.154   5.435  1.00  0.00     0.167 C 
BRANCH  19  20
HETATM   20  C   UNL     1      41.836 -14.064   6.317  1.00  0.00     0.009 A 
HETATM   21  C   UNL     1      43.105 -13.891   6.841  1.00  0.00     0.034 A 
HETATM   22  C   UNL     1      44.087 -12.789   6.718  1.00  0.00     0.070 C 
HETATM   23  N   UNL     1      43.356 -15.008   7.587  1.00  0.00    -0.282 N 
HETATM   24  H   UNL     1      44.186 -15.229   8.128  1.00  0.00     0.189 HD
HETATM   25  N   UNL     1      42.359 -15.902   7.575  1.00  0.00    -0.179 NA
HETATM   26  C   UNL     1      41.421 -15.333   6.811  1.00  0.00     0.060 A 
HETATM   27  C   UNL     1      40.137 -16.033   6.550  1.00  0.00     0.073 C 
ENDBRANCH  19  20
ENDBRANCH   1  19
TORSDOF 5
ENDMDL
MODEL 5
REMARK VINA RESULT:      -8.2      3.617      6.721
REMARK  5 active torsions:
REMARK  status: ('A' for Active; 'I' for Inactive)
REMARK    1  A    between atoms: C_8  and  C_9 
REMARK    2  A    between atoms: C_9  and  N_10 
REMARK       I    between atoms: N_10  and  C_11 
REMARK       I    between atoms: C_11  and  N_12 
REMARK    3  A    between atoms: C_13  and  C_14 
REMARK    4  A    between atoms: C_14  and  C_15 
REMARK    5  A    between atoms: C_15  and  C_16 
ROOT
HETATM    1  N   UNL     1      42.401 -12.273   6.288  1.00  0.00    -0.339 N 
HETATM    2  C   UNL     1      41.959 -12.372   4.999  1.00  0.00     0.318 C 
HETATM    3  N   UNL     1      41.857 -13.660   4.496  1.00  0.00    -0.330 N 
HETATM    4  C   UNL     1      42.125 -14.912   5.238  1.00  0.00     0.089 C 
HETATM    5  C   UNL     1      40.917 -15.862   5.123  1.00  0.00     0.025 C 
HETATM    6  C   UNL     1      40.459 -16.071   3.682  1.00  0.00     0.004 C 
HETATM    7  C   UNL     1      40.203 -14.730   3.002  1.00  0.00     0.020 C 
HETATM    8  C   UNL     1      41.419 -13.817   3.106  1.00  0.00     0.128 C 
HETATM    9  O   UNL     1      41.652 -11.372   4.354  1.00  0.00    -0.247 OA
HETATM   10  H   UNL     1      43.065 -12.961   6.597  1.00  0.00     0.164 HD
ENDROOT
BRANCH   4  11
HETATM   11  C   UNL     1      43.430 -15.592   4.773  1.00  0.00     0.030 C 
BRANCH  11  12
HETATM   12  C   UNL     1      43.749 -16.864   5.566  1.00  0.00     0.040 C 
BRANCH  12  13
HETATM   13  C   UNL     1      43.770 -18.082   4.677  1.00  0.00    -0.058 A 
HETATM   14  C   UNL     1      43.522 -17.958   3.303  1.00  0.00     0.007 A 
HETATM   15  C   UNL     1      43.525 -19.084   2.479  1.00  0.00     0.001 A 
HETATM   16  C   UNL     1      43.771 -20.344   3.022  1.00  0.00     0.000 A 
HETATM   17  C   UNL     1      44.012 -20.479   4.387  1.00  0.00     0.001 A 
HETATM   18  C   UNL     1      44.009 -19.354   5.214  1.00  0.00     0.007 A 
ENDBRANCH  12  13
ENDBRANCH  11  12
ENDBRANCH   4  11
BRANCH   1  19
HETATM   19  C   UNL     1      42.531 -10.979   6.915  1.00  0.00     0.167 C 
BRANCH  19  20
HETATM   20  C   UNL     1      43.883 -10.906   7.528  1.00  0.00     0.009 A 
HETATM   21  C   UNL     1      45.118 -11.116   6.939  1.00  0.00     0.034 A 
HETATM   22  C   UNL     1      45.508 -11.465   5.553  1.00  0.00     0.070 C 
HETATM   23  N   UNL     1      46.042 -10.924   7.928  1.00  0.00    -0.282 N 
HETATM   24  H   UNL     1      47.052 -10.983   7.863  1.00  0.00     0.189 HD
HETATM   25  N   UNL     1      45.505 -10.624   9.118  1.00  0.00    -0.179 NA
HETATM   26  C   UNL     1      44.189 -10.600   8.885  1.00  0.00     0.060 A 
HETATM   27  C   UNL     1      43.236 -10.301   9.984  1.00  0.00     0.073 C 
ENDBRANCH  19  20
ENDBRANCH   1  19
TORSDOF 5
ENDMDL
MODEL 6
REMARK VINA RESULT:      -8.1      3.463      4.606
REMARK  5 active torsions:
REMARK  status: ('A' for Active; 'I' for Inactive)
REMARK    1  A    between atoms: C_8  and  C_9 
REMARK    2  A    between atoms: C_9  and  N_10 
REMARK       I    between atoms: N_10  and  C_11 
REMARK       I    between atoms: C_11  and  N_12 
REMARK    3  A    between atoms: C_13  and  C_14 
REMARK    4  A    between atoms: C_14  and  C_15 
REMARK    5  A    between atoms: C_15  and  C_16 
ROOT
HETATM    1  N   UNL     1      40.444 -12.944   4.372  1.00  0.00    -0.339 N 
HETATM    2  C   UNL     1      40.328 -13.707   5.499  1.00  0.00     0.318 C 
HETATM    3  N   UNL     1      41.232 -14.753   5.612  1.00  0.00    -0.330 N 
HETATM    4  C   UNL     1      42.324 -15.070   4.665  1.00  0.00     0.089 C 
HETATM    5  C   UNL     1      43.663 -15.175   5.419  1.00  0.00     0.025 C 
HETATM    6  C   UNL     1      43.593 -16.101   6.631  1.00  0.00     0.004 C 
HETATM    7  C   UNL     1      42.445 -15.694   7.549  1.00  0.00     0.020 C 
HETATM    8  C   UNL     1      41.127 -15.622   6.788  1.00  0.00     0.128 C 
HETATM    9  O   UNL     1      39.487 -13.450   6.358  1.00  0.00    -0.247 OA
HETATM   10  H   UNL     1      40.742 -13.410   3.534  1.00  0.00     0.164 HD
ENDROOT
BRANCH   4  11
HETATM   11  C   UNL     1      42.029 -16.347   3.849  1.00  0.00     0.030 C 
BRANCH  11  12
HETATM   12  C   UNL     1      43.224 -16.798   3.003  1.00  0.00     0.040 C 
BRANCH  12  13
HETATM   13  C   UNL     1      43.501 -18.271   3.171  1.00  0.00    -0.058 A 
HETATM   14  C   UNL     1      43.256 -19.160   2.115  1.00  0.00     0.007 A 
HETATM   15  C   UNL     1      43.496 -20.525   2.272  1.00  0.00     0.001 A 
HETATM   16  C   UNL     1      43.977 -21.015   3.485  1.00  0.00     0.000 A 
HETATM   17  C   UNL     1      44.217 -20.140   4.542  1.00  0.00     0.001 A 
HETATM   18  C   UNL     1      43.977 -18.773   4.389  1.00  0.00     0.007 A 
ENDBRANCH  12  13
ENDBRANCH  11  12
ENDBRANCH   4  11
BRANCH   1  19
HETATM   19  C   UNL     1      39.562 -11.820   4.161  1.00  0.00     0.167 C 
BRANCH  19  20
HETATM   20  C   UNL     1      40.377 -10.581   4.259  1.00  0.00     0.009 A 
HETATM   21  C   UNL     1      41.161  -9.977   3.292  1.00  0.00     0.034 A 
HETATM   22  C   UNL     1      41.447 -10.334   1.883  1.00  0.00     0.070 C 
HETATM   23  N   UNL     1      41.693  -8.865   3.883  1.00  0.00    -0.282 N 
HETATM   24  H   UNL     1      42.311  -8.172   3.474  1.00  0.00     0.189 HD
HETATM   25  N   UNL     1      41.332  -8.708   5.163  1.00  0.00    -0.179 NA
HETATM   26  C   UNL     1      40.521  -9.743   5.401  1.00  0.00     0.060 A 
HETATM   27  C   UNL     1      39.906  -9.923   6.742  1.00  0.00     0.073 C 
ENDBRANCH  19  20
ENDBRANCH   1  19
TORSDOF 5
ENDMDL
MODEL 7
REMARK VINA RESULT:      -7.9      1.617      2.132
REMARK  5 active torsions:
REMARK  status: ('A' for Active; 'I' for Inactive)
REMARK    1  A    between atoms: C_8  and  C_9 
REMARK    2  A    between atoms: C_9  and  N_10 
REMARK       I    between atoms: N_10  and  C_11 
REMARK       I    between atoms: C_11  and  N_12 
REMARK    3  A    between atoms: C_13  and  C_14 
REMARK    4  A    between atoms: C_14  and  C_15 
REMARK    5  A    between atoms: C_15  and  C_16 
ROOT
HETATM    1  N   UNL     1      40.182 -12.661   0.983  1.00  0.00    -0.339 N 
HETATM    2  C   UNL     1      40.106 -11.830   2.065  1.00  0.00     0.318 C 
HETATM    3  N   UNL     1      41.035 -12.064   3.067  1.00  0.00    -0.330 N 
HETATM    4  C   UNL     1      42.114 -13.077   3.040  1.00  0.00     0.089 C 
HETATM    5  C   UNL     1      43.471 -12.410   3.340  1.00  0.00     0.025 C 
HETATM    6  C   UNL     1      43.446 -11.552   4.602  1.00  0.00     0.004 C 
HETATM    7  C   UNL     1      42.308 -10.538   4.537  1.00  0.00     0.020 C 
HETATM    8  C   UNL     1      40.973 -11.222   4.266  1.00  0.00     0.128 C 
HETATM    9  O   UNL     1      39.277 -10.925   2.115  1.00  0.00    -0.247 OA
HETATM   10  H   UNL     1      40.474 -13.607   1.153  1.00  0.00     0.164 HD
ENDROOT
BRANCH   4  11
HETATM   11  C   UNL     1      41.832 -14.250   4.003  1.00  0.00     0.030 C 
BRANCH  11  12
HETATM   12  C   UNL     1      43.113 -14.891   4.545  1.00  0.00     0.040 C 
BRANCH  12  13
HETATM   13  C   UNL     1      43.311 -16.284   4.001  1.00  0.00    -0.058 A 
HETATM   14  C   UNL     1      44.022 -17.237   4.744  1.00  0.00     0.007 A 
HETATM   15  C   UNL     1      44.221 -18.522   4.237  1.00  0.00     0.001 A 
HETATM   16  C   UNL     1      43.717 -18.863   2.984  1.00  0.00     0.000 A 
HETATM   17  C   UNL     1      43.015 -17.921   2.235  1.00  0.00     0.001 A 
HETATM   18  C   UNL     1      42.815 -16.634   2.739  1.00  0.00     0.007 A 
ENDBRANCH  12  13
ENDBRANCH  11  12
ENDBRANCH   4  11
BRANCH   1  19
HETATM   19  C   UNL     1      39.271 -12.495  -0.125  1.00  0.00     0.167 C 
BRANCH  19  20
HETATM   20  C   UNL     1      40.042 -12.700  -1.380  1.00  0.00     0.009 A 
HETATM   21  C   UNL     1      41.007 -11.889  -1.950  1.00  0.00     0.034 A 
HETATM   22  C   UNL     1      41.588 -10.593  -1.528  1.00  0.00     0.070 C 
HETATM   23  N   UNL     1      41.407 -12.527  -3.090  1.00  0.00    -0.282 N 
HETATM   24  H   UNL     1      42.109 -12.234  -3.761  1.00  0.00     0.189 HD
HETATM   25  N   UNL     1      40.765 -13.681  -3.316  1.00  0.00    -0.179 NA
HETATM   26  C   UNL     1      39.937 -13.803  -2.274  1.00  0.00     0.060 A 
HETATM   27  C   UNL     1      39.035 -14.978  -2.164  1.00  0.00     0.073 C 
ENDBRANCH  19  20
ENDBRANCH   1  19
TORSDOF 5
ENDMDL
MODEL 8
REMARK VINA RESULT:      -7.8      4.484      7.791
REMARK  5 active torsions:
REMARK  status: ('A' for Active; 'I' for Inactive)
REMARK    1  A    between atoms: C_8  and  C_9 
REMARK    2  A    between atoms: C_9  and  N_10 
REMARK       I    between atoms: N_10  and  C_11 
REMARK       I    between atoms: C_11  and  N_12 
REMARK    3  A    between atoms: C_13  and  C_14 
REMARK    4  A    between atoms: C_14  and  C_15 
REMARK    5  A    between atoms: C_15  and  C_16 
ROOT
HETATM    1  N   UNL     1      42.440 -10.861   7.135  1.00  0.00    -0.339 N 
HETATM    2  C   UNL     1      42.060 -10.788   5.825  1.00  0.00     0.318 C 
HETATM    3  N   UNL     1      41.860 -12.005   5.190  1.00  0.00    -0.330 N 
HETATM    4  C   UNL     1      41.965 -13.343   5.812  1.00  0.00     0.089 C 
HETATM    5  C   UNL     1      40.678 -14.150   5.549  1.00  0.00     0.025 C 
HETATM    6  C   UNL     1      40.280 -14.171   4.076  1.00  0.00     0.004 C 
HETATM    7  C   UNL     1      40.193 -12.752   3.524  1.00  0.00     0.020 C 
HETATM    8  C   UNL     1      41.485 -11.982   3.773  1.00  0.00     0.128 C 
HETATM    9  O   UNL     1      41.887  -9.705   5.271  1.00  0.00    -0.247 OA
HETATM   10  H   UNL     1      43.016 -11.639   7.401  1.00  0.00     0.164 HD
ENDROOT
BRANCH   4  11
HETATM   11  C   UNL     1      43.220 -14.106   5.339  1.00  0.00     0.030 C 
BRANCH  11  12
HETATM   12  C   UNL     1      43.310 -15.520   5.922  1.00  0.00     0.040 C 
BRANCH  12  13
HETATM   13  C   UNL     1      43.512 -16.554   4.843  1.00  0.00    -0.058 A 
HETATM   14  C   UNL     1      43.132 -16.279   3.522  1.00  0.00     0.007 A 
HETATM   15  C   UNL     1      43.302 -17.239   2.523  1.00  0.00     0.001 A 
HETATM   16  C   UNL     1      43.849 -18.482   2.837  1.00  0.00     0.000 A 
HETATM   17  C   UNL     1      44.223 -18.767   4.148  1.00  0.00     0.001 A 
HETATM   18  C   UNL     1      44.053 -17.809   5.149  1.00  0.00     0.007 A 
ENDBRANCH  12  13
ENDBRANCH  11  12
ENDBRANCH   4  11
BRANCH   1  19
HETATM   19  C   UNL     1      42.661  -9.653   7.895  1.00  0.00     0.167 C 
BRANCH  19  20
HETATM   20  C   UNL     1      43.512 -10.002   9.063  1.00  0.00     0.009 A 
HETATM   21  C   UNL     1      43.185 -10.003  10.408  1.00  0.00     0.034 A 
HETATM   22  C   UNL     1      41.930  -9.677  11.123  1.00  0.00     0.070 C 
HETATM   23  N   UNL     1      44.314 -10.404  11.066  1.00  0.00    -0.282 N 
HETATM   24  H   UNL     1      44.447 -10.532  12.064  1.00  0.00     0.189 HD
HETATM   25  N   UNL     1      45.354 -10.646  10.258  1.00  0.00    -0.179 NA
HETATM   26  C   UNL     1      44.874 -10.414   9.032  1.00  0.00     0.060 A 
HETATM   27  C   UNL     1      45.747 -10.574   7.841  1.00  0.00     0.073 C 
ENDBRANCH  19  20
ENDBRANCH   1  19
TORSDOF 5
ENDMDL
MODEL 9
REMARK VINA RESULT:      -7.6      2.701      5.913
REMARK  5 active torsions:
REMARK  status: ('A' for Active; 'I' for Inactive)
REMARK    1  A    between atoms: C_8  and  C_9 
REMARK    2  A    between atoms: C_9  and  N_10 
REMARK       I    between atoms: N_10  and  C_11 
REMARK       I    between atoms: C_11  and  N_12 
REMARK    3  A    between atoms: C_13  and  C_14 
REMARK    4  A    between atoms: C_14  and  C_15 
REMARK    5  A    between atoms: C_15  and  C_16 
ROOT
HETATM    1  N   UNL     1      40.469 -11.598   2.092  1.00  0.00    -0.339 N 
HETATM    2  C   UNL     1      41.072 -11.299   0.903  1.00  0.00     0.318 C 
HETATM    3  N   UNL     1      40.648 -12.042  -0.188  1.00  0.00    -0.330 N 
HETATM    4  C   UNL     1      39.581 -13.067  -0.186  1.00  0.00     0.089 C 
HETATM    5  C   UNL     1      38.546 -12.754  -1.284  1.00  0.00     0.025 C 
HETATM    6  C   UNL     1      39.183 -12.513  -2.651  1.00  0.00     0.004 C 
HETATM    7  C   UNL     1      40.263 -11.440  -2.555  1.00  0.00     0.020 C 
HETATM    8  C   UNL     1      41.289 -11.783  -1.481  1.00  0.00     0.128 C 
HETATM    9  O   UNL     1      41.915 -10.409   0.823  1.00  0.00    -0.247 OA
HETATM   10  H   UNL     1      40.200 -12.554   2.240  1.00  0.00     0.164 HD
ENDROOT
BRANCH   4  11
HETATM   11  C   UNL     1      40.149 -14.495  -0.331  1.00  0.00     0.030 C 
BRANCH  11  12
HETATM   12  C   UNL     1      39.823 -15.387   0.871  1.00  0.00     0.040 C 
BRANCH  12  13
HETATM   13  C   UNL     1      41.030 -15.599   1.750  1.00  0.00    -0.058 A 
HETATM   14  C   UNL     1      40.880 -16.125   3.040  1.00  0.00     0.007 A 
HETATM   15  C   UNL     1      41.993 -16.309   3.862  1.00  0.00     0.001 A 
HETATM   16  C   UNL     1      43.263 -15.965   3.404  1.00  0.00     0.000 A 
HETATM   17  C   UNL     1      43.422 -15.435   2.125  1.00  0.00     0.001 A 
HETATM   18  C   UNL     1      42.310 -15.249   1.301  1.00  0.00     0.007 A 
ENDBRANCH  12  13
ENDBRANCH  11  12
ENDBRANCH   4  11
BRANCH   1  19
HETATM   19  C   UNL     1      40.826 -10.874   3.290  1.00  0.00     0.167 C 
BRANCH  19  20
HETATM   20  C   UNL     1      41.470 -11.834   4.224  1.00  0.00     0.009 A 
HETATM   21  C   UNL     1      42.801 -12.203   4.312  1.00  0.00     0.034 A 
HETATM   22  C   UNL     1      43.998 -11.786   3.544  1.00  0.00     0.070 C 
HETATM   23  N   UNL     1      42.872 -13.108   5.333  1.00  0.00    -0.282 N 
HETATM   24  H   UNL     1      43.692 -13.587   5.692  1.00  0.00     0.189 HD
HETATM   25  N   UNL     1      41.690 -13.371   5.905  1.00  0.00    -0.179 NA
HETATM   26  C   UNL     1      40.828 -12.592   5.244  1.00  0.00     0.060 A 
HETATM   27  C   UNL     1      39.384 -12.604   5.593  1.00  0.00     0.073 C 
ENDBRANCH  19  20
ENDBRANCH   1  19
TORSDOF 5
ENDMDL
MODEL 10
REMARK VINA RESULT:      -7.5      3.604      6.959
REMARK  5 active torsions:
REMARK  status: ('A' for Active; 'I' for Inactive)
REMARK    1  A    between atoms: C_8  and  C_9 
REMARK    2  A    between atoms: C_9  and  N_10 
REMARK       I    between atoms: N_10  and  C_11 
REMARK       I    between atoms: C_11  and  N_12 
REMARK    3  A    between atoms: C_13  and  C_14 
REMARK    4  A    between atoms: C_14  and  C_15 
REMARK    5  A    between atoms: C_15  and  C_16 
ROOT
HETATM    1  N   UNL     1      43.307 -14.751   5.743  1.00  0.00    -0.339 N 
HETATM    2  C   UNL     1      43.560 -16.087   5.884  1.00  0.00     0.318 C 
HETATM    3  N   UNL     1      43.250 -16.875   4.786  1.00  0.00    -0.330 N 
HETATM    4  C   UNL     1      42.734 -16.397   3.484  1.00  0.00     0.089 C 
HETATM    5  C   UNL     1      43.616 -16.931   2.339  1.00  0.00     0.025 C 
HETATM    6  C   UNL     1      43.837 -18.440   2.411  1.00  0.00     0.004 C 
HETATM    7  C   UNL     1      44.373 -18.837   3.783  1.00  0.00     0.020 C 
HETATM    8  C   UNL     1      43.471 -18.320   4.899  1.00  0.00     0.128 C 
HETATM    9  O   UNL     1      44.055 -16.536   6.915  1.00  0.00    -0.247 OA
HETATM   10  H   UNL     1      42.519 -14.493   5.177  1.00  0.00     0.164 HD
ENDROOT
BRANCH   4  11
HETATM   11  C   UNL     1      41.250 -16.766   3.278  1.00  0.00     0.030 C 
BRANCH  11  12
HETATM   12  C   UNL     1      40.307 -15.583   3.517  1.00  0.00     0.040 C 
BRANCH  12  13
HETATM   13  C   UNL     1      40.063 -14.802   2.250  1.00  0.00    -0.058 A 
HETATM   14  C   UNL     1      40.125 -15.441   1.004  1.00  0.00     0.007 A 
HETATM   15  C   UNL     1      39.915 -14.720  -0.172  1.00  0.00     0.001 A 
HETATM   16  C   UNL     1      39.647 -13.354  -0.113  1.00  0.00     0.000 A 
HETATM   17  C   UNL     1      39.590 -12.708   1.120  1.00  0.00     0.001 A 
HETATM   18  C   UNL     1      39.800 -13.427   2.298  1.00  0.00     0.007 A 
ENDBRANCH  12  13
ENDBRANCH  11  12
ENDBRANCH   4  11
BRANCH   1  19
HETATM   19  C   UNL     1      43.607 -13.838   6.821  1.00  0.00     0.167 C 
BRANCH  19  20
HETATM   20  C   UNL     1      43.244 -12.469   6.368  1.00  0.00     0.009 A 
HETATM   21  C   UNL     1      44.056 -11.358   6.221  1.00  0.00     0.034 A 
HETATM   22  C   UNL     1      45.505 -11.153   6.447  1.00  0.00     0.070 C 
HETATM   23  N   UNL     1      43.241 -10.356   5.774  1.00  0.00    -0.282 N 
HETATM   24  H   UNL     1      43.489  -9.399   5.546  1.00  0.00     0.189 HD
HETATM   25  N   UNL     1      41.960 -10.722   5.638  1.00  0.00    -0.179 NA
HETATM   26  C   UNL     1      41.951 -12.012   5.987  1.00  0.00     0.060 A 
HETATM   27  C   UNL     1      40.684 -12.787   5.968  1.00  0.00     0.073 C 
ENDBRANCH  19  20
ENDBRANCH   1  19
TORSDOF 5
ENDMDL
