MODEL 1
REMARK VINA RESULT:      -8.8      0.000      0.000
REMARK  7 active torsions:
REMARK  status: ('A' for Active; 'I' for Inactive)
REMARK    1  A    between atoms: C_3  and  N_4 
REMARK    2  A    between atoms: N_7  and  C_9 
REMARK    3  A    between atoms: N_12  and  C_13 
REMARK    4  A    between atoms: C_16  and  C_17 
REMARK       I    between atoms: C_17  and  N_18 
REMARK    5  A    between atoms: C_20  and  C_21 
REMARK    6  A    between atoms: C_21  and  O_22 
REMARK    7  A    between atoms: C_33  and  O_34 
ROOT
HETATM    1  C   UNL     1      43.659 -10.357   7.257  1.00  0.00     0.191 C 
HETATM    2  C   UNL     1      42.524  -9.321   7.339  1.00  0.00     0.053 C 
HETATM    3  C   UNL     1      41.676  -9.487   8.597  1.00  0.00     0.125 C 
HETATM    4  N   UNL     1      42.543  -9.521   9.768  1.00  0.00    -0.381 N 
HETATM    5  C   UNL     1      43.706 -10.393   9.797  1.00  0.00     0.125 C 
HETATM    6  C   UNL     1      44.521 -10.231   8.522  1.00  0.00     0.053 C 
ENDROOT
BRANCH   4   7
HETATM    7  C   UNL     1      42.384  -8.519  10.716  1.00  0.00     0.030 A 
HETATM    8  C   UNL     1      41.503  -7.453  10.475  1.00  0.00     0.030 A 
HETATM    9  C   UNL     1      41.345  -6.413  11.396  1.00  0.00     0.019 A 
HETATM   10  C   UNL     1      42.075  -6.415  12.585  1.00  0.00     0.032 A 
HETATM   11  C   UNL     1      42.977  -7.452  12.834  1.00  0.00     0.019 A 
HETATM   12  C   UNL     1      43.107  -8.504  11.918  1.00  0.00     0.030 A 
BRANCH  10  13
HETATM   13  C   UNL     1      41.959  -5.241  13.485  1.00  0.00     0.253 C 
HETATM   14  N   UNL     1      41.288  -5.354  14.709  1.00  0.00    -0.348 N 
HETATM   15  C   UNL     1      40.144  -6.251  14.907  1.00  0.00     0.132 C 
HETATM   16  C   UNL     1      41.282  -4.157  15.552  1.00  0.00     0.126 C 
HETATM   17  C   UNL     1      39.975  -6.660  16.376  1.00  0.00     0.027 C 
HETATM   18  C   UNL     1      39.929  -5.411  17.272  1.00  0.00     0.010 C 
HETATM   19  C   UNL     1      41.124  -4.493  17.030  1.00  0.00     0.020 C 
HETATM   20  O   UNL     1      42.504  -4.203  13.112  1.00  0.00    -0.267 OA
BRANCH  17  21
HETATM   21  C   UNL     1      41.074  -7.649  16.789  1.00  0.00     0.170 C 
BRANCH  21  22
HETATM   22  O   UNL     1      41.356  -8.575  15.750  1.00  0.00    -0.400 OA
HETATM   23  H   UNL     1      40.522  -8.991  15.474  1.00  0.00     0.209 HD
ENDBRANCH  21  22
ENDBRANCH  17  21
ENDBRANCH  10  13
ENDBRANCH   4   7
BRANCH   1  24
HETATM   24  N   UNL     1      43.100 -11.780   7.048  1.00  0.00    -0.064 N 
HETATM   25  C   UNL     1      42.109 -11.848   5.863  1.00  0.00     0.255 C 
HETATM   26  C   UNL     1      41.447 -13.237   5.785  1.00  0.00     0.150 C 
HETATM   27  N   UNL     1      42.449 -14.323   5.697  1.00  0.00    -0.375 N 
HETATM   28  C   UNL     1      43.517 -14.268   6.709  1.00  0.00     0.150 C 
HETATM   29  C   UNL     1      44.165 -12.869   6.835  1.00  0.00     0.255 C 
HETATM   30  H   UNL     1      42.578 -12.053   7.891  1.00  0.00     0.280 HD
BRANCH  27  31
HETATM   31  C   UNL     1      42.753 -14.740   4.391  1.00  0.00     0.063 A 
HETATM   32  C   UNL     1      43.079 -13.867   3.345  1.00  0.00     0.032 A 
HETATM   33  C   UNL     1      43.336 -14.348   2.053  1.00  0.00     0.002 A 
HETATM   34  C   UNL     1      43.282 -15.714   1.780  1.00  0.00     0.003 A 
HETATM   35  C   UNL     1      42.994 -16.608   2.803  1.00  0.00     0.039 A 
HETATM   36  C   UNL     1      42.756 -16.118   4.083  1.00  0.00     0.092 A 
BRANCH  36  37
HETATM   37  O   UNL     1      42.593 -17.038   5.087  1.00  0.00    -0.358 OA
HETATM   38  H   UNL     1      43.164 -17.784   4.823  1.00  0.00     0.218 HD
ENDBRANCH  36  37
ENDBRANCH  27  31
ENDBRANCH   1  24
TORSDOF 7
ENDMDL
MODEL 2
REMARK VINA RESULT:      -8.5      2.111     11.872
REMARK  7 active torsions:
REMARK  status: ('A' for Active; 'I' for Inactive)
REMARK    1  A    between atoms: C_3  and  N_4 
REMARK    2  A    between atoms: N_7  and  C_9 
REMARK    3  A    between atoms: N_12  and  C_13 
REMARK    4  A    between atoms: C_16  and  C_17 
REMARK       I    between atoms: C_17  and  N_18 
REMARK    5  A    between atoms: C_20  and  C_21 
REMARK    6  A    between atoms: C_21  and  O_22 
REMARK    7  A    between atoms: C_33  and  O_34 
ROOT
HETATM    1  C   UNL     1      41.572  -9.751  12.134  1.00  0.00     0.191 C 
HETATM    2  C   UNL     1      40.737  -9.663  10.845  1.00  0.00     0.053 C 
HETATM    3  C   UNL     1      41.449  -8.881   9.744  1.00  0.00     0.125 C 
HETATM    4  N   UNL     1      42.790  -9.420   9.554  1.00  0.00    -0.381 N 
HETATM    5  C   UNL     1      43.663  -9.638  10.696  1.00  0.00     0.125 C 
HETATM    6  C   UNL     1      42.924 -10.394  11.791  1.00  0.00     0.053 C 
ENDROOT
BRANCH   4   7
HETATM    7  C   UNL     1      43.096  -9.962   8.313  1.00  0.00     0.030 A 
HETATM    8  C   UNL     1      42.244  -9.746   7.219  1.00  0.00     0.030 A 
HETATM    9  C   UNL     1      42.509 -10.304   5.966  1.00  0.00     0.019 A 
HETATM   10  C   UNL     1      43.639 -11.102   5.779  1.00  0.00     0.032 A 
HETATM   11  C   UNL     1      44.486 -11.352   6.861  1.00  0.00     0.019 A 
HETATM   12  C   UNL     1      44.228 -10.765   8.106  1.00  0.00     0.030 A 
BRANCH  10  13
HETATM   13  C   UNL     1      43.827 -11.763   4.464  1.00  0.00     0.253 C 
HETATM   14  N   UNL     1      43.029 -12.856   4.105  1.00  0.00    -0.348 N 
HETATM   15  C   UNL     1      42.521 -13.824   5.084  1.00  0.00     0.132 C 
HETATM   16  C   UNL     1      43.250 -13.399   2.763  1.00  0.00     0.126 C 
HETATM   17  C   UNL     1      41.245 -14.525   4.598  1.00  0.00     0.027 C 
HETATM   18  C   UNL     1      41.472 -15.134   3.205  1.00  0.00     0.010 C 
HETATM   19  C   UNL     1      42.015 -14.105   2.216  1.00  0.00     0.020 C 
HETATM   20  O   UNL     1      44.680 -11.281   3.720  1.00  0.00    -0.267 OA
BRANCH  17  21
HETATM   21  C   UNL     1      40.053 -13.559   4.639  1.00  0.00     0.170 C 
BRANCH  21  22
HETATM   22  O   UNL     1      39.376 -13.621   5.886  1.00  0.00    -0.400 OA
HETATM   23  H   UNL     1      38.768 -14.380   5.868  1.00  0.00     0.209 HD
ENDBRANCH  21  22
ENDBRANCH  17  21
ENDBRANCH  10  13
ENDBRANCH   4   7
BRANCH   1  24
HETATM   24  N   UNL     1      41.714  -8.367  12.802  1.00  0.00    -0.064 N 
HETATM   25  C   UNL     1      40.382  -7.877  13.414  1.00  0.00     0.255 C 
HETATM   26  C   UNL     1      40.516  -6.429  13.924  1.00  0.00     0.150 C 
HETATM   27  N   UNL     1      41.626  -6.285  14.892  1.00  0.00    -0.375 N 
HETATM   28  C   UNL     1      42.915  -6.846  14.452  1.00  0.00     0.150 C 
HETATM   29  C   UNL     1      42.794  -8.283  13.895  1.00  0.00     0.255 C 
HETATM   30  H   UNL     1      41.983  -7.684  12.082  1.00  0.00     0.280 HD
BRANCH  27  31
HETATM   31  C   UNL     1      41.248  -6.393  16.241  1.00  0.00     0.063 A 
HETATM   32  C   UNL     1      40.828  -7.585  16.845  1.00  0.00     0.032 A 
HETATM   33  C   UNL     1      40.429  -7.616  18.189  1.00  0.00     0.002 A 
HETATM   34  C   UNL     1      40.449  -6.457  18.962  1.00  0.00     0.003 A 
HETATM   35  C   UNL     1      40.893  -5.265  18.402  1.00  0.00     0.039 A 
HETATM   36  C   UNL     1      41.300  -5.253  17.073  1.00  0.00     0.092 A 
BRANCH  36  37
HETATM   37  O   UNL     1      41.841  -4.087  16.592  1.00  0.00    -0.358 OA
HETATM   38  H   UNL     1      41.647  -3.429  17.286  1.00  0.00     0.218 HD
ENDBRANCH  36  37
ENDBRANCH  27  31
ENDBRANCH   1  24
TORSDOF 7
ENDMDL
MODEL 3
REMARK VINA RESULT:      -8.3      3.722     12.319
REMARK  7 active torsions:
REMARK  status: ('A' for Active; 'I' for Inactive)
REMARK    1  A    between atoms: C_3  and  N_4 
REMARK    2  A    between atoms: N_7  and  C_9 
REMARK    3  A    between atoms: N_12  and  C_13 
REMARK    4  A    between atoms: C_16  and  C_17 
REMARK       I    between atoms: C_17  and  N_18 
REMARK    5  A    between atoms: C_20  and  C_21 
REMARK    6  A    between atoms: C_21  and  O_22 
REMARK    7  A    between atoms: C_33  and  O_34 
ROOT
HETATM    1  C   UNL     1      42.377  -9.106   7.732  1.00  0.00     0.191 C 
HETATM    2  C   UNL     1      43.343  -9.986   6.919  1.00  0.00     0.053 C 
HETATM    3  C   UNL     1      42.720 -11.324   6.530  1.00  0.00     0.125 C 
HETATM    4  N   UNL     1      41.432 -11.093   5.887  1.00  0.00    -0.381 N 
HETATM    5  C   UNL     1      40.451 -10.213   6.502  1.00  0.00     0.125 C 
HETATM    6  C   UNL     1      41.100  -8.897   6.906  1.00  0.00     0.053 C 
ENDROOT
BRANCH   4   7
HETATM    7  C   UNL     1      41.285 -11.510   4.571  1.00  0.00     0.030 A 
HETATM    8  C   UNL     1      40.074 -12.076   4.141  1.00  0.00     0.030 A 
HETATM    9  C   UNL     1      39.907 -12.534   2.831  1.00  0.00     0.019 A 
HETATM   10  C   UNL     1      40.957 -12.439   1.916  1.00  0.00     0.032 A 
HETATM   11  C   UNL     1      42.178 -11.903   2.330  1.00  0.00     0.019 A 
HETATM   12  C   UNL     1      42.328 -11.421   3.637  1.00  0.00     0.030 A 
BRANCH  10  13
HETATM   13  C   UNL     1      40.775 -13.033   0.569  1.00  0.00     0.253 C 
HETATM   14  N   UNL     1      40.689 -12.209  -0.559  1.00  0.00    -0.348 N 
HETATM   15  C   UNL     1      40.094 -10.868  -0.519  1.00  0.00     0.132 C 
HETATM   16  C   UNL     1      40.572 -12.894  -1.848  1.00  0.00     0.126 C 
HETATM   17  C   UNL     1      40.635  -9.961  -1.633  1.00  0.00     0.027 C 
HETATM   18  C   UNL     1      40.485 -10.650  -2.999  1.00  0.00     0.010 C 
HETATM   19  C   UNL     1      41.099 -12.048  -3.001  1.00  0.00     0.020 C 
HETATM   20  O   UNL     1      40.740 -14.262   0.508  1.00  0.00    -0.267 OA
BRANCH  17  21
HETATM   21  C   UNL     1      42.082  -9.544  -1.332  1.00  0.00     0.170 C 
BRANCH  21  22
HETATM   22  O   UNL     1      42.249  -9.201   0.037  1.00  0.00    -0.400 OA
HETATM   23  H   UNL     1      41.538  -8.587   0.288  1.00  0.00     0.209 HD
ENDBRANCH  21  22
ENDBRANCH  17  21
ENDBRANCH  10  13
ENDBRANCH   4   7
BRANCH   1  24
HETATM   24  N   UNL     1      42.104  -9.716   9.122  1.00  0.00    -0.064 N 
HETATM   25  C   UNL     1      43.350  -9.666  10.036  1.00  0.00     0.255 C 
HETATM   26  C   UNL     1      43.095 -10.428  11.350  1.00  0.00     0.150 C 
HETATM   27  N   UNL     1      41.899  -9.919  12.060  1.00  0.00    -0.375 N 
HETATM   28  C   UNL     1      40.686  -9.804  11.234  1.00  0.00     0.150 C 
HETATM   29  C   UNL     1      40.932  -9.081   9.889  1.00  0.00     0.255 C 
HETATM   30  H   UNL     1      41.861 -10.707   9.000  1.00  0.00     0.280 HD
BRANCH  27  31
HETATM   31  C   UNL     1      42.166  -8.949  13.040  1.00  0.00     0.063 A 
HETATM   32  C   UNL     1      43.178  -7.987  12.936  1.00  0.00     0.032 A 
HETATM   33  C   UNL     1      43.415  -7.068  13.970  1.00  0.00     0.002 A 
HETATM   34  C   UNL     1      42.638  -7.086  15.126  1.00  0.00     0.003 A 
HETATM   35  C   UNL     1      41.604  -8.007  15.245  1.00  0.00     0.039 A 
HETATM   36  C   UNL     1      41.371  -8.901  14.207  1.00  0.00     0.092 A 
BRANCH  36  37
HETATM   37  O   UNL     1      40.270  -9.712  14.311  1.00  0.00    -0.358 OA
HETATM   38  H   UNL     1      40.155 -10.078  13.414  1.00  0.00     0.218 HD
ENDBRANCH  36  37
ENDBRANCH  27  31
ENDBRANCH   1  24
TORSDOF 7
ENDMDL
MODEL 4
REMARK VINA RESULT:      -8.1      3.039      5.206
REMARK  7 active torsions:
REMARK  status: ('A' for Active; 'I' for Inactive)
REMARK    1  A    between atoms: C_3  and  N_4 
REMARK    2  A    between atoms: N_7  and  C_9 
REMARK    3  A    between atoms: N_12  and  C_13 
REMARK    4  A    between atoms: C_16  and  C_17 
REMARK       I    between atoms: C_17  and  N_18 
REMARK    5  A    between atoms: C_20  and  C_21 
REMARK    6  A    between atoms: C_21  and  O_22 
REMARK    7  A    between atoms: C_33  and  O_34 
ROOT
HETATM    1  C   UNL     1      40.810 -12.251   2.263  1.00  0.00     0.191 C 
HETATM    2  C   UNL     1      40.012 -12.282   3.579  1.00  0.00     0.053 C 
HETATM    3  C   UNL     1      40.891 -12.612   4.783  1.00  0.00     0.125 C 
HETATM    4  N   UNL     1      42.045 -11.722   4.801  1.00  0.00    -0.381 N 
HETATM    5  C   UNL     1      42.844 -11.528   3.602  1.00  0.00     0.125 C 
HETATM    6  C   UNL     1      41.946 -11.228   2.410  1.00  0.00     0.053 C 
ENDROOT
BRANCH   4   7
HETATM    7  C   UNL     1      42.188 -10.875   5.893  1.00  0.00     0.030 A 
HETATM    8  C   UNL     1      41.126 -10.045   6.286  1.00  0.00     0.030 A 
HETATM    9  C   UNL     1      41.251  -9.160   7.361  1.00  0.00     0.019 A 
HETATM   10  C   UNL     1      42.451  -9.083   8.069  1.00  0.00     0.032 A 
HETATM   11  C   UNL     1      43.529  -9.881   7.679  1.00  0.00     0.019 A 
HETATM   12  C   UNL     1      43.385 -10.785   6.618  1.00  0.00     0.030 A 
BRANCH  10  13
HETATM   13  C   UNL     1      42.578  -8.056   9.133  1.00  0.00     0.253 C 
HETATM   14  N   UNL     1      42.539  -8.430  10.481  1.00  0.00    -0.348 N 
HETATM   15  C   UNL     1      41.741  -9.560  10.969  1.00  0.00     0.132 C 
HETATM   16  C   UNL     1      42.734  -7.352  11.453  1.00  0.00     0.126 C 
HETATM   17  C   UNL     1      42.297 -10.142  12.276  1.00  0.00     0.027 C 
HETATM   18  C   UNL     1      42.473  -9.028  13.320  1.00  0.00     0.010 C 
HETATM   19  C   UNL     1      43.294  -7.862  12.776  1.00  0.00     0.020 C 
HETATM   20  O   UNL     1      42.748  -6.895   8.762  1.00  0.00    -0.267 OA
BRANCH  17  21
HETATM   21  C   UNL     1      43.595 -10.918  12.009  1.00  0.00     0.170 C 
BRANCH  21  22
HETATM   22  O   UNL     1      43.570 -11.549  10.736  1.00  0.00    -0.400 OA
HETATM   23  H   UNL     1      43.204 -12.444  10.844  1.00  0.00     0.209 HD
ENDBRANCH  21  22
ENDBRANCH  17  21
ENDBRANCH  10  13
ENDBRANCH   4   7
BRANCH   1  24
HETATM   24  N   UNL     1      41.311 -13.660   1.883  1.00  0.00    -0.064 N 
HETATM   25  C   UNL     1      42.777 -13.893   2.318  1.00  0.00     0.255 C 
HETATM   26  C   UNL     1      43.297 -15.239   1.780  1.00  0.00     0.150 C 
HETATM   27  N   UNL     1      42.437 -16.370   2.196  1.00  0.00    -0.375 N 
HETATM   28  C   UNL     1      40.998 -16.185   1.944  1.00  0.00     0.150 C 
HETATM   29  C   UNL     1      40.466 -14.819   2.437  1.00  0.00     0.255 C 
HETATM   30  H   UNL     1      41.284 -13.750   0.860  1.00  0.00     0.280 HD
BRANCH  27  31
HETATM   31  C   UNL     1      42.857 -17.030   3.363  1.00  0.00     0.063 A 
HETATM   32  C   UNL     1      42.682 -16.524   4.657  1.00  0.00     0.032 A 
HETATM   33  C   UNL     1      43.159 -17.219   5.778  1.00  0.00     0.002 A 
HETATM   34  C   UNL     1      43.814 -18.440   5.631  1.00  0.00     0.003 A 
HETATM   35  C   UNL     1      43.974 -18.985   4.363  1.00  0.00     0.039 A 
HETATM   36  C   UNL     1      43.482 -18.293   3.262  1.00  0.00     0.092 A 
BRANCH  36  37
HETATM   37  O   UNL     1      43.555 -18.919   2.043  1.00  0.00    -0.358 OA
HETATM   38  H   UNL     1      44.405 -19.397   2.070  1.00  0.00     0.218 HD
ENDBRANCH  36  37
ENDBRANCH  27  31
ENDBRANCH   1  24
TORSDOF 7
ENDMDL
MODEL 5
REMARK VINA RESULT:      -7.9      1.887      2.207
REMARK  7 active torsions:
REMARK  status: ('A' for Active; 'I' for Inactive)
REMARK    1  A    between atoms: C_3  and  N_4 
REMARK    2  A    between atoms: N_7  and  C_9 
REMARK    3  A    between atoms: N_12  and  C_13 
REMARK    4  A    between atoms: C_16  and  C_17 
REMARK       I    between atoms: C_17  and  N_18 
REMARK    5  A    between atoms: C_20  and  C_21 
REMARK    6  A    between atoms: C_21  and  O_22 
REMARK    7  A    between atoms: C_33  and  O_34 
ROOT
HETATM    1  C   UNL     1      43.254 -10.434   6.576  1.00  0.00     0.191 C 
HETATM    2  C   UNL     1      42.015  -9.534   6.727  1.00  0.00     0.053 C 
HETATM    3  C   UNL     1      41.380  -9.649   8.111  1.00  0.00     0.125 C 
HETATM    4  N   UNL     1      42.399  -9.444   9.133  1.00  0.00    -0.381 N 
HETATM    5  C   UNL     1      43.659 -10.166   9.069  1.00  0.00     0.125 C 
HETATM    6  C   UNL     1      44.260 -10.061   7.675  1.00  0.00     0.053 C 
ENDROOT
BRANCH   4   7
HETATM    7  C   UNL     1      42.243  -8.363   9.990  1.00  0.00     0.030 A 
HETATM    8  C   UNL     1      41.558  -8.520  11.205  1.00  0.00     0.030 A 
HETATM    9  C   UNL     1      41.357  -7.444  12.074  1.00  0.00     0.019 A 
HETATM   10  C   UNL     1      41.837  -6.176  11.742  1.00  0.00     0.032 A 
HETATM   11  C   UNL     1      42.498  -5.992  10.525  1.00  0.00     0.019 A 
HETATM   12  C   UNL     1      42.719  -7.083   9.673  1.00  0.00     0.030 A 
BRANCH  10  13
HETATM   13  C   UNL     1      41.510  -5.040  12.638  1.00  0.00     0.253 C 
HETATM   14  N   UNL     1      40.177  -4.665  12.843  1.00  0.00    -0.348 N 
HETATM   15  C   UNL     1      39.147  -4.797  11.807  1.00  0.00     0.132 C 
HETATM   16  C   UNL     1      39.956  -3.572  13.793  1.00  0.00     0.126 C 
HETATM   17  C   UNL     1      37.737  -4.913  12.402  1.00  0.00     0.027 C 
HETATM   18  C   UNL     1      37.474  -3.751  13.374  1.00  0.00     0.010 C 
HETATM   19  C   UNL     1      38.571  -3.632  14.428  1.00  0.00     0.020 C 
HETATM   20  O   UNL     1      42.457  -4.488  13.199  1.00  0.00    -0.267 OA
BRANCH  17  21
HETATM   21  C   UNL     1      37.540  -6.289  13.052  1.00  0.00     0.170 C 
BRANCH  21  22
HETATM   22  O   UNL     1      37.653  -7.336  12.097  1.00  0.00    -0.400 OA
HETATM   23  H   UNL     1      37.094  -7.115  11.333  1.00  0.00     0.209 HD
ENDBRANCH  21  22
ENDBRANCH  17  21
ENDBRANCH  10  13
ENDBRANCH   4   7
BRANCH   1  24
HETATM   24  N   UNL     1      42.864 -11.927   6.597  1.00  0.00    -0.064 N 
HETATM   25  C   UNL     1      41.851 -12.279   5.483  1.00  0.00     0.255 C 
HETATM   26  C   UNL     1      41.359 -13.731   5.633  1.00  0.00     0.150 C 
HETATM   27  N   UNL     1      42.481 -14.696   5.650  1.00  0.00    -0.375 N 
HETATM   28  C   UNL     1      43.567 -14.373   6.591  1.00  0.00     0.150 C 
HETATM   29  C   UNL     1      44.045 -12.906   6.486  1.00  0.00     0.255 C 
HETATM   30  H   UNL     1      42.406 -12.132   7.494  1.00  0.00     0.280 HD
BRANCH  27  31
HETATM   31  C   UNL     1      42.791 -15.261   4.402  1.00  0.00     0.063 A 
HETATM   32  C   UNL     1      43.018 -14.516   3.238  1.00  0.00     0.032 A 
HETATM   33  C   UNL     1      43.287 -15.146   2.014  1.00  0.00     0.002 A 
HETATM   34  C   UNL     1      43.344 -16.536   1.929  1.00  0.00     0.003 A 
HETATM   35  C   UNL     1      43.156 -17.302   3.072  1.00  0.00     0.039 A 
HETATM   36  C   UNL     1      42.906 -16.664   4.281  1.00  0.00     0.092 A 
BRANCH  36  37
HETATM   37  O   UNL     1      42.845 -17.449   5.405  1.00  0.00    -0.358 OA
HETATM   38  H   UNL     1      42.151 -18.105   5.201  1.00  0.00     0.218 HD
ENDBRANCH  36  37
ENDBRANCH  27  31
ENDBRANCH   1  24
TORSDOF 7
ENDMDL
MODEL 6
REMARK VINA RESULT:      -7.8     10.292     13.467
REMARK  7 active torsions:
REMARK  status: ('A' for Active; 'I' for Inactive)
REMARK    1  A    between atoms: C_3  and  N_4 
REMARK    2  A    between atoms: N_7  and  C_9 
REMARK    3  A    between atoms: N_12  and  C_13 
REMARK    4  A    between atoms: C_16  and  C_17 
REMARK       I    between atoms: C_17  and  N_18 
REMARK    5  A    between atoms: C_20  and  C_21 
REMARK    6  A    between atoms: C_21  and  O_22 
REMARK    7  A    between atoms: C_33  and  O_34 
ROOT
HETATM    1  C   UNL     1      39.765 -14.487   1.543  1.00  0.00     0.191 C 
HETATM    2  C   UNL     1      39.434 -12.993   1.705  1.00  0.00     0.053 C 
HETATM    3  C   UNL     1      40.407 -12.097   0.943  1.00  0.00     0.125 C 
HETATM    4  N   UNL     1      40.499 -12.545  -0.441  1.00  0.00    -0.381 N 
HETATM    5  C   UNL     1      40.724 -13.948  -0.747  1.00  0.00     0.125 C 
HETATM    6  C   UNL     1      39.762 -14.823   0.044  1.00  0.00     0.053 C 
ENDROOT
BRANCH   4   7
HETATM    7  C   UNL     1      40.100 -11.658  -1.432  1.00  0.00     0.030 A 
HETATM    8  C   UNL     1      40.916 -11.439  -2.553  1.00  0.00     0.030 A 
HETATM    9  C   UNL     1      40.556 -10.529  -3.551  1.00  0.00     0.019 A 
HETATM   10  C   UNL     1      39.364  -9.810  -3.447  1.00  0.00     0.032 A 
HETATM   11  C   UNL     1      38.550  -9.993  -2.327  1.00  0.00     0.019 A 
HETATM   12  C   UNL     1      38.905 -10.928  -1.346  1.00  0.00     0.030 A 
BRANCH  10  13
HETATM   13  C   UNL     1      39.072  -8.777  -4.472  1.00  0.00     0.253 C 
HETATM   14  N   UNL     1      39.849  -7.615  -4.543  1.00  0.00    -0.348 N 
HETATM   15  C   UNL     1      40.453  -6.990  -3.361  1.00  0.00     0.132 C 
HETATM   16  C   UNL     1      39.519  -6.687  -5.627  1.00  0.00     0.126 C 
HETATM   17  C   UNL     1      41.690  -6.155  -3.715  1.00  0.00     0.027 C 
HETATM   18  C   UNL     1      41.351  -5.148  -4.826  1.00  0.00     0.010 C 
HETATM   19  C   UNL     1      40.711  -5.828  -6.034  1.00  0.00     0.020 C 
HETATM   20  O   UNL     1      38.151  -9.018  -5.252  1.00  0.00    -0.267 OA
BRANCH  17  21
HETATM   21  C   UNL     1      42.869  -7.069  -4.079  1.00  0.00     0.170 C 
BRANCH  21  22
HETATM   22  O   UNL     1      43.726  -6.456  -5.033  1.00  0.00    -0.400 OA
HETATM   23  H   UNL     1      44.475  -7.054  -5.201  1.00  0.00     0.209 HD
ENDBRANCH  21  22
ENDBRANCH  17  21
ENDBRANCH  10  13
ENDBRANCH   4   7
BRANCH   1  24
HETATM   24  N   UNL     1      41.096 -14.841   2.238  1.00  0.00    -0.064 N 
HETATM   25  C   UNL     1      40.891 -15.805   3.430  1.00  0.00     0.255 C 
HETATM   26  C   UNL     1      42.210 -16.007   4.200  1.00  0.00     0.150 C 
HETATM   27  N   UNL     1      43.298 -16.484   3.318  1.00  0.00    -0.375 N 
HETATM   28  C   UNL     1      43.485 -15.705   2.082  1.00  0.00     0.150 C 
HETATM   29  C   UNL     1      42.165 -15.453   1.317  1.00  0.00     0.255 C 
HETATM   30  H   UNL     1      41.505 -13.979   2.617  1.00  0.00     0.280 HD
BRANCH  27  31
HETATM   31  C   UNL     1      43.465 -17.878   3.290  1.00  0.00     0.063 A 
HETATM   32  C   UNL     1      43.155 -18.683   2.187  1.00  0.00     0.032 A 
HETATM   33  C   UNL     1      43.311 -20.076   2.238  1.00  0.00     0.002 A 
HETATM   34  C   UNL     1      43.790 -20.694   3.391  1.00  0.00     0.003 A 
HETATM   35  C   UNL     1      44.139 -19.920   4.491  1.00  0.00     0.039 A 
HETATM   36  C   UNL     1      43.993 -18.540   4.420  1.00  0.00     0.092 A 
BRANCH  36  37
HETATM   37  O   UNL     1      44.459 -17.804   5.481  1.00  0.00    -0.358 OA
HETATM   38  H   UNL     1      43.689 -17.728   6.076  1.00  0.00     0.218 HD
ENDBRANCH  36  37
ENDBRANCH  27  31
ENDBRANCH   1  24
TORSDOF 7
ENDMDL
MODEL 7
REMARK VINA RESULT:      -7.4      1.459      2.067
REMARK  7 active torsions:
REMARK  status: ('A' for Active; 'I' for Inactive)
REMARK    1  A    between atoms: C_3  and  N_4 
REMARK    2  A    between atoms: N_7  and  C_9 
REMARK    3  A    between atoms: N_12  and  C_13 
REMARK    4  A    between atoms: C_16  and  C_17 
REMARK       I    between atoms: C_17  and  N_18 
REMARK    5  A    between atoms: C_20  and  C_21 
REMARK    6  A    between atoms: C_21  and  O_22 
REMARK    7  A    between atoms: C_33  and  O_34 
ROOT
HETATM    1  C   UNL     1      44.886 -10.069   8.552  1.00  0.00     0.191 C 
HETATM    2  C   UNL     1      45.162  -8.559   8.666  1.00  0.00     0.053 C 
HETATM    3  C   UNL     1      43.878  -7.736   8.708  1.00  0.00     0.125 C 
HETATM    4  N   UNL     1      42.994  -8.264   9.740  1.00  0.00    -0.381 N 
HETATM    5  C   UNL     1      42.710  -9.688   9.807  1.00  0.00     0.125 C 
HETATM    6  C   UNL     1      44.002 -10.490   9.736  1.00  0.00     0.053 C 
ENDROOT
BRANCH   4   7
HETATM    7  C   UNL     1      42.663  -7.425  10.796  1.00  0.00     0.030 A 
HETATM    8  C   UNL     1      42.040  -6.191  10.548  1.00  0.00     0.030 A 
HETATM    9  C   UNL     1      41.724  -5.311  11.587  1.00  0.00     0.019 A 
HETATM   10  C   UNL     1      42.030  -5.647  12.906  1.00  0.00     0.032 A 
HETATM   11  C   UNL     1      42.674  -6.857  13.173  1.00  0.00     0.019 A 
HETATM   12  C   UNL     1      42.961  -7.745  12.128  1.00  0.00     0.030 A 
BRANCH  10  13
HETATM   13  C   UNL     1      41.776  -4.641  13.967  1.00  0.00     0.253 C 
HETATM   14  N   UNL     1      41.161  -5.021  15.166  1.00  0.00    -0.348 N 
HETATM   15  C   UNL     1      40.161  -6.091  15.241  1.00  0.00     0.132 C 
HETATM   16  C   UNL     1      41.011  -3.968  16.173  1.00  0.00     0.126 C 
HETATM   17  C   UNL     1      40.091  -6.723  16.638  1.00  0.00     0.027 C 
HETATM   18  C   UNL     1      39.895  -5.634  17.705  1.00  0.00     0.010 C 
HETATM   19  C   UNL     1      40.942  -4.529  17.589  1.00  0.00     0.020 C 
HETATM   20  O   UNL     1      42.159  -3.493  13.743  1.00  0.00    -0.267 OA
BRANCH  17  21
HETATM   21  C   UNL     1      41.330  -7.593  16.896  1.00  0.00     0.170 C 
BRANCH  21  22
HETATM   22  O   UNL     1      41.207  -8.325  18.108  1.00  0.00    -0.400 OA
HETATM   23  H   UNL     1      42.032  -8.225  18.612  1.00  0.00     0.209 HD
ENDBRANCH  21  22
ENDBRANCH  17  21
ENDBRANCH  10  13
ENDBRANCH   4   7
BRANCH   1  24
HETATM   24  N   UNL     1      44.267 -10.420   7.183  1.00  0.00    -0.064 N 
HETATM   25  C   UNL     1      45.199 -11.318   6.336  1.00  0.00     0.255 C 
HETATM   26  C   UNL     1      44.628 -11.512   4.919  1.00  0.00     0.150 C 
HETATM   27  N   UNL     1      43.252 -12.058   4.947  1.00  0.00    -0.375 N 
HETATM   28  C   UNL     1      42.318 -11.346   5.834  1.00  0.00     0.150 C 
HETATM   29  C   UNL     1      42.890 -11.101   7.250  1.00  0.00     0.255 C 
HETATM   30  H   UNL     1      44.129  -9.549   6.655  1.00  0.00     0.280 HD
BRANCH  27  31
HETATM   31  C   UNL     1      43.171 -13.456   4.833  1.00  0.00     0.063 A 
HETATM   32  C   UNL     1      43.285 -14.339   5.913  1.00  0.00     0.032 A 
HETATM   33  C   UNL     1      43.231 -15.728   5.724  1.00  0.00     0.002 A 
HETATM   34  C   UNL     1      43.053 -16.264   4.450  1.00  0.00     0.003 A 
HETATM   35  C   UNL     1      42.904 -15.413   3.362  1.00  0.00     0.039 A 
HETATM   36  C   UNL     1      42.944 -14.039   3.567  1.00  0.00     0.092 A 
BRANCH  36  37
HETATM   37  O   UNL     1      42.674 -13.236   2.488  1.00  0.00    -0.358 OA
HETATM   38  H   UNL     1      41.758 -12.934   2.636  1.00  0.00     0.218 HD
ENDBRANCH  36  37
ENDBRANCH  27  31
ENDBRANCH   1  24
TORSDOF 7
ENDMDL
MODEL 8
REMARK VINA RESULT:      -7.3     22.461     24.595
REMARK  7 active torsions:
REMARK  status: ('A' for Active; 'I' for Inactive)
REMARK    1  A    between atoms: C_3  and  N_4 
REMARK    2  A    between atoms: N_7  and  C_9 
REMARK    3  A    between atoms: N_12  and  C_13 
REMARK    4  A    between atoms: C_16  and  C_17 
REMARK       I    between atoms: C_17  and  N_18 
REMARK    5  A    between atoms: C_20  and  C_21 
REMARK    6  A    between atoms: C_21  and  O_22 
REMARK    7  A    between atoms: C_33  and  O_34 
ROOT
HETATM    1  C   UNL     1      49.188 -29.646   2.288  1.00  0.00     0.191 C 
HETATM    2  C   UNL     1      48.848 -29.392   3.767  1.00  0.00     0.053 C 
HETATM    3  C   UNL     1      48.722 -30.688   4.564  1.00  0.00     0.125 C 
HETATM    4  N   UNL     1      49.910 -31.506   4.353  1.00  0.00    -0.381 N 
HETATM    5  C   UNL     1      50.399 -31.759   3.007  1.00  0.00     0.125 C 
HETATM    6  C   UNL     1      50.490 -30.458   2.223  1.00  0.00     0.053 C 
ENDROOT
BRANCH   4   7
HETATM    7  C   UNL     1      50.696 -31.798   5.460  1.00  0.00     0.030 A 
HETATM    8  C   UNL     1      51.872 -31.069   5.702  1.00  0.00     0.030 A 
HETATM    9  C   UNL     1      52.700 -31.360   6.789  1.00  0.00     0.019 A 
HETATM   10  C   UNL     1      52.370 -32.397   7.663  1.00  0.00     0.032 A 
HETATM   11  C   UNL     1      51.219 -33.152   7.426  1.00  0.00     0.019 A 
HETATM   12  C   UNL     1      50.380 -32.835   6.350  1.00  0.00     0.030 A 
BRANCH  10  13
HETATM   13  C   UNL     1      53.329 -32.743   8.741  1.00  0.00     0.253 C 
HETATM   14  N   UNL     1      54.690 -32.895   8.452  1.00  0.00    -0.348 N 
HETATM   15  C   UNL     1      55.176 -33.408   7.166  1.00  0.00     0.132 C 
HETATM   16  C   UNL     1      55.563 -33.176   9.594  1.00  0.00     0.126 C 
HETATM   17  C   UNL     1      56.601 -32.931   6.852  1.00  0.00     0.027 C 
HETATM   18  C   UNL     1      57.539 -33.253   8.026  1.00  0.00     0.010 C 
HETATM   19  C   UNL     1      56.997 -32.719   9.350  1.00  0.00     0.020 C 
HETATM   20  O   UNL     1      52.868 -32.852   9.877  1.00  0.00    -0.267 OA
BRANCH  17  21
HETATM   21  C   UNL     1      56.599 -31.441   6.482  1.00  0.00     0.170 C 
BRANCH  21  22
HETATM   22  O   UNL     1      56.012 -31.223   5.206  1.00  0.00    -0.400 OA
HETATM   23  H   UNL     1      56.667 -30.782   4.638  1.00  0.00     0.209 HD
ENDBRANCH  21  22
ENDBRANCH  17  21
ENDBRANCH  10  13
ENDBRANCH   4   7
BRANCH   1  24
HETATM   24  N   UNL     1      48.014 -30.327   1.556  1.00  0.00    -0.064 N 
HETATM   25  C   UNL     1      46.773 -29.409   1.464  1.00  0.00     0.255 C 
HETATM   26  C   UNL     1      45.571 -30.174   0.878  1.00  0.00     0.150 C 
HETATM   27  N   UNL     1      45.885 -30.769  -0.440  1.00  0.00    -0.375 N 
HETATM   28  C   UNL     1      47.128 -31.557  -0.488  1.00  0.00     0.150 C 
HETATM   29  C   UNL     1      48.337 -30.824   0.136  1.00  0.00     0.255 C 
HETATM   30  H   UNL     1      47.734 -31.158   2.092  1.00  0.00     0.280 HD
BRANCH  27  31
HETATM   31  C   UNL     1      45.521 -29.980  -1.544  1.00  0.00     0.063 A 
HETATM   32  C   UNL     1      46.135 -28.766  -1.875  1.00  0.00     0.032 A 
HETATM   33  C   UNL     1      45.698 -28.008  -2.972  1.00  0.00     0.002 A 
HETATM   34  C   UNL     1      44.643 -28.452  -3.767  1.00  0.00     0.003 A 
HETATM   35  C   UNL     1      44.035 -29.669  -3.484  1.00  0.00     0.039 A 
HETATM   36  C   UNL     1      44.489 -30.417  -2.403  1.00  0.00     0.092 A 
BRANCH  36  37
HETATM   37  O   UNL     1      43.944 -31.664  -2.229  1.00  0.00    -0.358 OA
HETATM   38  H   UNL     1      44.688 -32.275  -2.389  1.00  0.00     0.218 HD
ENDBRANCH  36  37
ENDBRANCH  27  31
ENDBRANCH   1  24
TORSDOF 7
ENDMDL
MODEL 9
REMARK VINA RESULT:      -7.3     10.039     13.322
REMARK  7 active torsions:
REMARK  status: ('A' for Active; 'I' for Inactive)
REMARK    1  A    between atoms: C_3  and  N_4 
REMARK    2  A    between atoms: N_7  and  C_9 
REMARK    3  A    between atoms: N_12  and  C_13 
REMARK    4  A    between atoms: C_16  and  C_17 
REMARK       I    between atoms: C_17  and  N_18 
REMARK    5  A    between atoms: C_20  and  C_21 
REMARK    6  A    between atoms: C_21  and  O_22 
REMARK    7  A    between atoms: C_33  and  O_34 
ROOT
HETATM    1  C   UNL     1      39.806 -15.229   2.333  1.00  0.00     0.191 C 
HETATM    2  C   UNL     1      39.377 -13.765   2.532  1.00  0.00     0.053 C 
HETATM    3  C   UNL     1      40.188 -12.801   1.670  1.00  0.00     0.125 C 
HETATM    4  N   UNL     1      40.165 -13.250   0.283  1.00  0.00    -0.381 N 
HETATM    5  C   UNL     1      40.466 -14.634  -0.046  1.00  0.00     0.125 C 
HETATM    6  C   UNL     1      39.667 -15.576   0.843  1.00  0.00     0.053 C 
ENDROOT
BRANCH   4   7
HETATM    7  C   UNL     1      39.592 -12.405  -0.658  1.00  0.00     0.030 A 
HETATM    8  C   UNL     1      39.731 -12.678  -2.028  1.00  0.00     0.030 A 
HETATM    9  C   UNL     1      39.193 -11.829  -2.999  1.00  0.00     0.019 A 
HETATM   10  C   UNL     1      38.503 -10.678  -2.619  1.00  0.00     0.032 A 
HETATM   11  C   UNL     1      38.376 -10.373  -1.261  1.00  0.00     0.019 A 
HETATM   12  C   UNL     1      38.895 -11.244  -0.294  1.00  0.00     0.030 A 
BRANCH  10  13
HETATM   13  C   UNL     1      38.041  -9.748  -3.679  1.00  0.00     0.253 C 
HETATM   14  N   UNL     1      36.673  -9.527  -3.876  1.00  0.00    -0.348 N 
HETATM   15  C   UNL     1      35.660 -10.561  -3.640  1.00  0.00     0.132 C 
HETATM   16  C   UNL     1      36.322  -8.546  -4.905  1.00  0.00     0.126 C 
HETATM   17  C   UNL     1      34.281  -9.962  -3.330  1.00  0.00     0.027 C 
HETATM   18  C   UNL     1      33.880  -8.958  -4.422  1.00  0.00     0.010 C 
HETATM   19  C   UNL     1      34.962  -7.906  -4.653  1.00  0.00     0.020 C 
HETATM   20  O   UNL     1      38.915  -9.178  -4.333  1.00  0.00    -0.267 OA
BRANCH  17  21
HETATM   21  C   UNL     1      34.267  -9.349  -1.922  1.00  0.00     0.170 C 
BRANCH  21  22
HETATM   22  O   UNL     1      32.981  -8.842  -1.590  1.00  0.00    -0.400 OA
HETATM   23  H   UNL     1      32.641  -9.344  -0.830  1.00  0.00     0.209 HD
ENDBRANCH  21  22
ENDBRANCH  17  21
ENDBRANCH  10  13
ENDBRANCH   4   7
BRANCH   1  24
HETATM   24  N   UNL     1      41.227 -15.473   2.880  1.00  0.00    -0.064 N 
HETATM   25  C   UNL     1      41.208 -16.112   4.288  1.00  0.00     0.255 C 
HETATM   26  C   UNL     1      42.631 -16.189   4.871  1.00  0.00     0.150 C 
HETATM   27  N   UNL     1      43.558 -16.917   3.974  1.00  0.00    -0.375 N 
HETATM   28  C   UNL     1      43.550 -16.466   2.572  1.00  0.00     0.150 C 
HETATM   29  C   UNL     1      42.127 -16.339   1.982  1.00  0.00     0.255 C 
HETATM   30  H   UNL     1      41.702 -14.566   2.969  1.00  0.00     0.280 HD
BRANCH  27  31
HETATM   31  C   UNL     1      43.703 -18.284   4.262  1.00  0.00     0.063 A 
HETATM   32  C   UNL     1      43.809 -19.284   3.287  1.00  0.00     0.032 A 
HETATM   33  C   UNL     1      43.916 -20.636   3.643  1.00  0.00     0.002 A 
HETATM   34  C   UNL     1      43.927 -21.018   4.983  1.00  0.00     0.003 A 
HETATM   35  C   UNL     1      43.857 -20.047   5.975  1.00  0.00     0.039 A 
HETATM   36  C   UNL     1      43.768 -18.710   5.607  1.00  0.00     0.092 A 
BRANCH  36  37
HETATM   37  O   UNL     1      43.820 -17.778   6.612  1.00  0.00    -0.358 OA
HETATM   38  H   UNL     1      43.033 -17.220   6.463  1.00  0.00     0.218 HD
ENDBRANCH  36  37
ENDBRANCH  27  31
ENDBRANCH   1  24
TORSDOF 7
ENDMDL
MODEL 10
REMARK VINA RESULT:      -7.3      2.890      3.576
REMARK  7 active torsions:
REMARK  status: ('A' for Active; 'I' for Inactive)
REMARK    1  A    between atoms: C_3  and  N_4 
REMARK    2  A    between atoms: N_7  and  C_9 
REMARK    3  A    between atoms: N_12  and  C_13 
REMARK    4  A    between atoms: C_16  and  C_17 
REMARK       I    between atoms: C_17  and  N_18 
REMARK    5  A    between atoms: C_20  and  C_21 
REMARK    6  A    between atoms: C_21  and  O_22 
REMARK    7  A    between atoms: C_33  and  O_34 
ROOT
HETATM    1  C   UNL     1      40.426 -10.632   5.803  1.00  0.00     0.191 C 
HETATM    2  C   UNL     1      39.112 -10.403   6.570  1.00  0.00     0.053 C 
HETATM    3  C   UNL     1      39.335 -10.265   8.074  1.00  0.00     0.125 C 
HETATM    4  N   UNL     1      40.359  -9.258   8.324  1.00  0.00    -0.381 N 
HETATM    5  C   UNL     1      41.622  -9.300   7.605  1.00  0.00     0.125 C 
HETATM    6  C   UNL     1      41.376  -9.466   6.112  1.00  0.00     0.053 C 
ENDROOT
BRANCH   4   7
HETATM    7  C   UNL     1      39.991  -8.130   9.046  1.00  0.00     0.030 A 
HETATM    8  C   UNL     1      40.409  -6.857   8.628  1.00  0.00     0.030 A 
HETATM    9  C   UNL     1      40.082  -5.707   9.352  1.00  0.00     0.019 A 
HETATM   10  C   UNL     1      39.326  -5.807  10.522  1.00  0.00     0.032 A 
HETATM   11  C   UNL     1      38.922  -7.067  10.970  1.00  0.00     0.019 A 
HETATM   12  C   UNL     1      39.231  -8.211  10.222  1.00  0.00     0.030 A 
BRANCH  10  13
HETATM   13  C   UNL     1      39.092  -4.577  11.317  1.00  0.00     0.253 C 
HETATM   14  N   UNL     1      40.169  -3.897  11.897  1.00  0.00    -0.348 N 
HETATM   15  C   UNL     1      41.374  -4.582  12.378  1.00  0.00     0.132 C 
HETATM   16  C   UNL     1      39.840  -2.661  12.611  1.00  0.00     0.126 C 
HETATM   17  C   UNL     1      42.599  -3.657  12.394  1.00  0.00     0.027 C 
HETATM   18  C   UNL     1      42.283  -2.370  13.172  1.00  0.00     0.010 C 
HETATM   19  C   UNL     1      41.015  -1.691  12.658  1.00  0.00     0.020 C 
HETATM   20  O   UNL     1      37.927  -4.188  11.403  1.00  0.00    -0.267 OA
BRANCH  17  21
HETATM   21  C   UNL     1      43.085  -3.384  10.964  1.00  0.00     0.170 C 
BRANCH  21  22
HETATM   22  O   UNL     1      43.986  -2.286  10.922  1.00  0.00    -0.400 OA
HETATM   23  H   UNL     1      43.725  -1.703  10.188  1.00  0.00     0.209 HD
ENDBRANCH  21  22
ENDBRANCH  17  21
ENDBRANCH  10  13
ENDBRANCH   4   7
BRANCH   1  24
HETATM   24  N   UNL     1      41.033 -12.010   6.138  1.00  0.00    -0.064 N 
HETATM   25  C   UNL     1      40.271 -13.165   5.448  1.00  0.00     0.255 C 
HETATM   26  C   UNL     1      40.797 -14.531   5.932  1.00  0.00     0.150 C 
HETATM   27  N   UNL     1      42.256 -14.665   5.726  1.00  0.00    -0.375 N 
HETATM   28  C   UNL     1      43.063 -13.543   6.233  1.00  0.00     0.150 C 
HETATM   29  C   UNL     1      42.526 -12.160   5.795  1.00  0.00     0.255 C 
HETATM   30  H   UNL     1      40.957 -12.163   7.151  1.00  0.00     0.280 HD
BRANCH  27  31
HETATM   31  C   UNL     1      42.626 -15.299   4.528  1.00  0.00     0.063 A 
HETATM   32  C   UNL     1      42.866 -14.623   3.325  1.00  0.00     0.032 A 
HETATM   33  C   UNL     1      43.197 -15.322   2.154  1.00  0.00     0.002 A 
HETATM   34  C   UNL     1      43.303 -16.711   2.163  1.00  0.00     0.003 A 
HETATM   35  C   UNL     1      43.103 -17.408   3.348  1.00  0.00     0.039 A 
HETATM   36  C   UNL     1      42.792 -16.701   4.504  1.00  0.00     0.092 A 
BRANCH  36  37
HETATM   37  O   UNL     1      42.719 -17.413   5.675  1.00  0.00    -0.358 OA
HETATM   38  H   UNL     1      42.064 -18.112   5.490  1.00  0.00     0.218 HD
ENDBRANCH  36  37
ENDBRANCH  27  31
ENDBRANCH   1  24
TORSDOF 7
ENDMDL
