MODEL 1
REMARK VINA RESULT:      -8.8      0.000      0.000
REMARK  4 active torsions:
REMARK  status: ('A' for Active; 'I' for Inactive)
REMARK    1  A    between atoms: C_3  and  N_4 
REMARK    2  A    between atoms: C_11  and  C_12 
REMARK       I    between atoms: C_12  and  N_13 
REMARK    3  A    between atoms: N_13  and  C_14 
REMARK    4  A    between atoms: C_19  and  O_20 
ROOT
HETATM    1  C   UNL     1      43.151 -13.171   6.500  1.00  0.00     0.036 A 
HETATM    2  C   UNL     1      42.783 -12.946   5.175  1.00  0.00     0.049 A 
HETATM    3  C   UNL     1      42.819 -13.986   4.220  1.00  0.00     0.063 A 
HETATM    4  C   UNL     1      43.217 -15.281   4.595  1.00  0.00     0.075 A 
HETATM    5  N   UNL     1      43.325 -16.412   3.765  1.00  0.00    -0.226 NA
HETATM    6  C   UNL     1      42.434 -16.647   2.863  1.00  0.00     0.161 C 
HETATM    7  C   UNL     1      41.228 -15.796   2.521  1.00  0.00     0.164 C 
HETATM    8  N   UNL     1      41.742 -14.509   2.066  1.00  0.00    -0.336 N 
HETATM    9  C   UNL     1      42.450 -13.608   2.831  1.00  0.00     0.257 C 
HETATM   10  O   UNL     1      42.759 -12.495   2.413  1.00  0.00    -0.267 OA
HETATM   11  C   UNL     1      40.384 -16.298   1.344  1.00  0.00     0.035 C 
HETATM   12  C   UNL     1      39.975 -15.017   0.625  1.00  0.00     0.022 C 
HETATM   13  C   UNL     1      41.211 -14.145   0.766  1.00  0.00     0.127 C 
HETATM   14  C   UNL     1      43.607 -15.484   5.926  1.00  0.00     0.035 A 
HETATM   15  C   UNL     1      43.581 -14.448   6.866  1.00  0.00     0.032 A 
ENDROOT
BRANCH   1  16
HETATM   16  N   UNL     1      43.139 -12.185   7.509  1.00  0.00    -0.323 N 
HETATM   17  C   UNL     1      44.185 -11.357   7.883  1.00  0.00     0.256 C 
HETATM   18  O   UNL     1      45.300 -11.325   7.377  1.00  0.00    -0.267 OA
HETATM   19  H   UNL     1      42.272 -12.098   8.020  1.00  0.00     0.169 HD
BRANCH  17  20
HETATM   20  C   UNL     1      43.903 -10.430   9.020  1.00  0.00     0.033 A 
HETATM   21  C   UNL     1      44.899  -9.941   9.863  1.00  0.00     0.019 A 
HETATM   22  C   UNL     1      44.569  -9.054  10.894  1.00  0.00     0.031 A 
HETATM   23  C   UNL     1      43.237  -8.649  11.112  1.00  0.00     0.044 A 
HETATM   24  C   UNL     1      42.212  -9.201  10.315  1.00  0.00    -0.034 A 
HETATM   25  C   UNL     1      40.737  -8.985  10.530  1.00  0.00     0.050 C 
HETATM   26  C   UNL     1      42.570 -10.071   9.262  1.00  0.00     0.026 A 
BRANCH  23  27
HETATM   27  N   UNL     1      42.997  -7.679  12.137  1.00  0.00    -0.332 N 
HETATM   28  C   UNL     1      42.486  -6.406  11.945  1.00  0.00     0.096 A 
HETATM   29  C   UNL     1      42.367  -5.772  13.163  1.00  0.00     0.019 A 
HETATM   30  C   UNL     1      42.789  -6.685  14.148  1.00  0.00     0.019 A 
HETATM   31  C   UNL     1      43.153  -7.844  13.499  1.00  0.00     0.096 A 
ENDBRANCH  23  27
ENDBRANCH  17  20
ENDBRANCH   1  16
BRANCH   6  32
HETATM   32  O   UNL     1      42.590 -17.780   2.168  1.00  0.00    -0.346 OA
HETATM   33  H   UNL     1      41.712 -18.192   2.094  1.00  0.00     0.219 HD
ENDBRANCH   6  32
TORSDOF 4
ENDMDL
MODEL 2
REMARK VINA RESULT:      -8.7      2.576     10.646
REMARK  4 active torsions:
REMARK  status: ('A' for Active; 'I' for Inactive)
REMARK    1  A    between atoms: C_3  and  N_4 
REMARK    2  A    between atoms: C_11  and  C_12 
REMARK       I    between atoms: C_12  and  N_13 
REMARK    3  A    between atoms: N_13  and  C_14 
REMARK    4  A    between atoms: C_19  and  O_20 
ROOT
HETATM    1  C   UNL     1      43.083 -11.328   6.596  1.00  0.00     0.036 A 
HETATM    2  C   UNL     1      43.533 -11.027   7.881  1.00  0.00     0.049 A 
HETATM    3  C   UNL     1      43.436  -9.719   8.402  1.00  0.00     0.063 A 
HETATM    4  C   UNL     1      42.866  -8.689   7.633  1.00  0.00     0.075 A 
HETATM    5  N   UNL     1      42.716  -7.338   7.997  1.00  0.00    -0.226 NA
HETATM    6  C   UNL     1      42.357  -7.022   9.195  1.00  0.00     0.161 C 
HETATM    7  C   UNL     1      42.096  -7.961  10.354  1.00  0.00     0.164 C 
HETATM    8  N   UNL     1      43.354  -8.651  10.621  1.00  0.00    -0.336 N 
HETATM    9  C   UNL     1      43.997  -9.516   9.763  1.00  0.00     0.257 C 
HETATM   10  O   UNL     1      44.998 -10.146  10.097  1.00  0.00    -0.267 OA
HETATM   11  C   UNL     1      41.753  -7.282  11.685  1.00  0.00     0.035 C 
HETATM   12  C   UNL     1      42.462  -8.147  12.721  1.00  0.00     0.022 C 
HETATM   13  C   UNL     1      43.750  -8.531  12.011  1.00  0.00     0.127 C 
HETATM   14  C   UNL     1      42.441  -9.003   6.335  1.00  0.00     0.035 A 
HETATM   15  C   UNL     1      42.549 -10.298   5.819  1.00  0.00     0.032 A 
ENDROOT
BRANCH   1  16
HETATM   16  N   UNL     1      43.144 -12.610   6.009  1.00  0.00    -0.323 N 
HETATM   17  C   UNL     1      42.112 -13.525   5.890  1.00  0.00     0.256 C 
HETATM   18  O   UNL     1      40.954 -13.363   6.255  1.00  0.00    -0.267 OA
HETATM   19  H   UNL     1      44.052 -12.883   5.661  1.00  0.00     0.169 HD
BRANCH  17  20
HETATM   20  C   UNL     1      42.474 -14.830   5.259  1.00  0.00     0.033 A 
HETATM   21  C   UNL     1      42.570 -16.019   5.981  1.00  0.00     0.019 A 
HETATM   22  C   UNL     1      42.888 -17.213   5.323  1.00  0.00     0.031 A 
HETATM   23  C   UNL     1      43.129 -17.241   3.935  1.00  0.00     0.044 A 
HETATM   24  C   UNL     1      43.114 -16.030   3.210  1.00  0.00    -0.034 A 
HETATM   25  C   UNL     1      43.503 -15.882   1.763  1.00  0.00     0.050 C 
HETATM   26  C   UNL     1      42.762 -14.843   3.887  1.00  0.00     0.026 A 
BRANCH  23  27
HETATM   27  N   UNL     1      43.371 -18.515   3.329  1.00  0.00    -0.332 N 
HETATM   28  C   UNL     1      44.092 -19.557   3.889  1.00  0.00     0.096 A 
HETATM   29  C   UNL     1      44.087 -20.632   3.028  1.00  0.00     0.019 A 
HETATM   30  C   UNL     1      43.317 -20.263   1.910  1.00  0.00     0.019 A 
HETATM   31  C   UNL     1      42.879 -18.975   2.123  1.00  0.00     0.096 A 
ENDBRANCH  23  27
ENDBRANCH  17  20
ENDBRANCH   1  16
BRANCH   6  32
HETATM   32  O   UNL     1      42.180  -5.715   9.425  1.00  0.00    -0.346 OA
HETATM   33  H   UNL     1      41.784  -5.335   8.622  1.00  0.00     0.219 HD
ENDBRANCH   6  32
TORSDOF 4
ENDMDL
MODEL 3
REMARK VINA RESULT:      -8.6      1.851      2.790
REMARK  4 active torsions:
REMARK  status: ('A' for Active; 'I' for Inactive)
REMARK    1  A    between atoms: C_3  and  N_4 
REMARK    2  A    between atoms: C_11  and  C_12 
REMARK       I    between atoms: C_12  and  N_13 
REMARK    3  A    between atoms: N_13  and  C_14 
REMARK    4  A    between atoms: C_19  and  O_20 
ROOT
HETATM    1  C   UNL     1      41.724 -11.093   6.136  1.00  0.00     0.036 A 
HETATM    2  C   UNL     1      41.600 -12.462   5.904  1.00  0.00     0.049 A 
HETATM    3  C   UNL     1      41.475 -12.972   4.593  1.00  0.00     0.063 A 
HETATM    4  C   UNL     1      41.486 -12.103   3.488  1.00  0.00     0.075 A 
HETATM    5  N   UNL     1      41.350 -12.450   2.131  1.00  0.00    -0.226 NA
HETATM    6  C   UNL     1      41.938 -13.498   1.665  1.00  0.00     0.161 C 
HETATM    7  C   UNL     1      42.776 -14.500   2.433  1.00  0.00     0.164 C 
HETATM    8  N   UNL     1      41.895 -15.103   3.429  1.00  0.00    -0.336 N 
HETATM    9  C   UNL     1      41.299 -14.443   4.481  1.00  0.00     0.257 C 
HETATM   10  O   UNL     1      40.656 -15.036   5.345  1.00  0.00    -0.267 OA
HETATM   11  C   UNL     1      43.286 -15.693   1.616  1.00  0.00     0.035 C 
HETATM   12  C   UNL     1      43.179 -16.864   2.587  1.00  0.00     0.022 C 
HETATM   13  C   UNL     1      41.902 -16.551   3.348  1.00  0.00     0.127 C 
HETATM   14  C   UNL     1      41.586 -10.728   3.741  1.00  0.00     0.035 A 
HETATM   15  C   UNL     1      41.699 -10.226   5.042  1.00  0.00     0.032 A 
ENDROOT
BRANCH   1  16
HETATM   16  N   UNL     1      41.856 -10.509   7.414  1.00  0.00    -0.323 N 
HETATM   17  C   UNL     1      43.024 -10.082   8.022  1.00  0.00     0.256 C 
HETATM   18  O   UNL     1      44.148 -10.116   7.536  1.00  0.00    -0.267 OA
HETATM   19  H   UNL     1      40.998 -10.418   7.939  1.00  0.00     0.169 HD
BRANCH  17  20
HETATM   20  C   UNL     1      42.873  -9.540   9.406  1.00  0.00     0.033 A 
HETATM   21  C   UNL     1      43.952  -9.361  10.270  1.00  0.00     0.019 A 
HETATM   22  C   UNL     1      43.743  -8.822  11.546  1.00  0.00     0.031 A 
HETATM   23  C   UNL     1      42.454  -8.465  11.987  1.00  0.00     0.044 A 
HETATM   24  C   UNL     1      41.346  -8.718  11.150  1.00  0.00    -0.034 A 
HETATM   25  C   UNL     1      39.904  -8.535  11.542  1.00  0.00     0.050 C 
HETATM   26  C   UNL     1      41.582  -9.233   9.856  1.00  0.00     0.026 A 
BRANCH  23  27
HETATM   27  N   UNL     1      42.339  -7.849  13.274  1.00  0.00    -0.332 N 
HETATM   28  C   UNL     1      42.401  -6.489  13.531  1.00  0.00     0.096 A 
HETATM   29  C   UNL     1      42.222  -6.269  14.879  1.00  0.00     0.019 A 
HETATM   30  C   UNL     1      42.013  -7.524  15.479  1.00  0.00     0.019 A 
HETATM   31  C   UNL     1      42.074  -8.469  14.479  1.00  0.00     0.096 A 
ENDBRANCH  23  27
ENDBRANCH  17  20
ENDBRANCH   1  16
BRANCH   6  32
HETATM   32  O   UNL     1      41.802 -13.708   0.350  1.00  0.00    -0.346 OA
HETATM   33  H   UNL     1      41.663 -14.663   0.227  1.00  0.00     0.219 HD
ENDBRANCH   6  32
TORSDOF 4
ENDMDL
MODEL 4
REMARK VINA RESULT:      -8.4      2.501     10.856
REMARK  4 active torsions:
REMARK  status: ('A' for Active; 'I' for Inactive)
REMARK    1  A    between atoms: C_3  and  N_4 
REMARK    2  A    between atoms: C_11  and  C_12 
REMARK       I    between atoms: C_12  and  N_13 
REMARK    3  A    between atoms: N_13  and  C_14 
REMARK    4  A    between atoms: C_19  and  O_20 
ROOT
HETATM    1  C   UNL     1      42.773  -9.332   8.804  1.00  0.00     0.036 A 
HETATM    2  C   UNL     1      42.493  -9.383  10.169  1.00  0.00     0.049 A 
HETATM    3  C   UNL     1      42.518  -8.217  10.964  1.00  0.00     0.063 A 
HETATM    4  C   UNL     1      42.815  -6.970  10.387  1.00  0.00     0.075 A 
HETATM    5  N   UNL     1      42.900  -5.727  11.042  1.00  0.00    -0.226 NA
HETATM    6  C   UNL     1      42.047  -5.414  11.957  1.00  0.00     0.161 C 
HETATM    7  C   UNL     1      40.917  -6.269  12.491  1.00  0.00     0.164 C 
HETATM    8  N   UNL     1      41.534  -7.449  13.088  1.00  0.00    -0.336 N 
HETATM    9  C   UNL     1      42.252  -8.411  12.413  1.00  0.00     0.257 C 
HETATM   10  O   UNL     1      42.651  -9.435  12.962  1.00  0.00    -0.267 OA
HETATM   11  C   UNL     1      40.110  -5.649  13.638  1.00  0.00     0.035 C 
HETATM   12  C   UNL     1      39.821  -6.833  14.554  1.00  0.00     0.022 C 
HETATM   13  C   UNL     1      41.099  -7.650  14.457  1.00  0.00     0.127 C 
HETATM   14  C   UNL     1      43.117  -6.940   9.019  1.00  0.00     0.035 A 
HETATM   15  C   UNL     1      43.102  -8.100   8.237  1.00  0.00     0.032 A 
ENDROOT
BRANCH   1  16
HETATM   16  N   UNL     1      42.765 -10.452   7.946  1.00  0.00    -0.323 N 
HETATM   17  C   UNL     1      43.801 -11.344   7.725  1.00  0.00     0.256 C 
HETATM   18  O   UNL     1      44.901 -11.325   8.264  1.00  0.00    -0.267 OA
HETATM   19  H   UNL     1      41.911 -10.594   7.427  1.00  0.00     0.169 HD
BRANCH  17  20
HETATM   20  C   UNL     1      43.528 -12.419   6.724  1.00  0.00     0.033 A 
HETATM   21  C   UNL     1      43.428 -13.766   7.068  1.00  0.00     0.019 A 
HETATM   22  C   UNL     1      43.144 -14.720   6.083  1.00  0.00     0.031 A 
HETATM   23  C   UNL     1      42.967 -14.349   4.735  1.00  0.00     0.044 A 
HETATM   24  C   UNL     1      43.147 -12.999   4.365  1.00  0.00    -0.034 A 
HETATM   25  C   UNL     1      43.145 -12.481   2.950  1.00  0.00     0.050 C 
HETATM   26  C   UNL     1      43.403 -12.049   5.378  1.00  0.00     0.026 A 
BRANCH  23  27
HETATM   27  N   UNL     1      42.602 -15.375   3.807  1.00  0.00    -0.332 N 
HETATM   28  C   UNL     1      41.316 -15.657   3.374  1.00  0.00     0.096 A 
HETATM   29  C   UNL     1      41.356 -16.689   2.462  1.00  0.00     0.019 A 
HETATM   30  C   UNL     1      42.708 -17.043   2.297  1.00  0.00     0.019 A 
HETATM   31  C   UNL     1      43.448 -16.218   3.115  1.00  0.00     0.096 A 
ENDBRANCH  23  27
ENDBRANCH  17  20
ENDBRANCH   1  16
BRANCH   6  32
HETATM   32  O   UNL     1      42.172  -4.185  12.475  1.00  0.00    -0.346 OA
HETATM   33  H   UNL     1      43.071  -3.879  12.267  1.00  0.00     0.219 HD
ENDBRANCH   6  32
TORSDOF 4
ENDMDL
MODEL 5
REMARK VINA RESULT:      -8.2      3.255     11.011
REMARK  4 active torsions:
REMARK  status: ('A' for Active; 'I' for Inactive)
REMARK    1  A    between atoms: C_3  and  N_4 
REMARK    2  A    between atoms: C_11  and  C_12 
REMARK       I    between atoms: C_12  and  N_13 
REMARK    3  A    between atoms: N_13  and  C_14 
REMARK    4  A    between atoms: C_19  and  O_20 
ROOT
HETATM    1  C   UNL     1      42.561  -9.390  10.616  1.00  0.00     0.036 A 
HETATM    2  C   UNL     1      41.343  -9.040  11.197  1.00  0.00     0.049 A 
HETATM    3  C   UNL     1      41.292  -8.312  12.406  1.00  0.00     0.063 A 
HETATM    4  C   UNL     1      42.479  -7.912  13.044  1.00  0.00     0.075 A 
HETATM    5  N   UNL     1      42.598  -7.205  14.255  1.00  0.00    -0.226 NA
HETATM    6  C   UNL     1      41.797  -6.230  14.522  1.00  0.00     0.161 C 
HETATM    7  C   UNL     1      40.643  -5.732  13.677  1.00  0.00     0.164 C 
HETATM    8  N   UNL     1      39.697  -6.838  13.571  1.00  0.00    -0.336 N 
HETATM    9  C   UNL     1      39.935  -8.044  12.949  1.00  0.00     0.257 C 
HETATM   10  O   UNL     1      39.055  -8.890  12.803  1.00  0.00    -0.267 OA
HETATM   11  C   UNL     1      39.820  -4.596  14.294  1.00  0.00     0.035 C 
HETATM   12  C   UNL     1      38.389  -4.929  13.889  1.00  0.00     0.022 C 
HETATM   13  C   UNL     1      38.361  -6.446  13.976  1.00  0.00     0.127 C 
HETATM   14  C   UNL     1      43.694  -8.293  12.459  1.00  0.00     0.035 A 
HETATM   15  C   UNL     1      43.740  -9.024  11.268  1.00  0.00     0.032 A 
ENDROOT
BRANCH   1  16
HETATM   16  N   UNL     1      42.691 -10.113   9.411  1.00  0.00    -0.323 N 
HETATM   17  C   UNL     1      42.727  -9.598   8.127  1.00  0.00     0.256 C 
HETATM   18  O   UNL     1      42.676  -8.413   7.819  1.00  0.00    -0.267 OA
HETATM   19  H   UNL     1      42.742 -11.117   9.512  1.00  0.00     0.169 HD
BRANCH  17  20
HETATM   20  C   UNL     1      42.828 -10.605   7.028  1.00  0.00     0.033 A 
HETATM   21  C   UNL     1      44.032 -11.203   6.659  1.00  0.00     0.019 A 
HETATM   22  C   UNL     1      44.052 -12.160   5.637  1.00  0.00     0.031 A 
HETATM   23  C   UNL     1      42.875 -12.528   4.956  1.00  0.00     0.044 A 
HETATM   24  C   UNL     1      41.666 -11.869   5.267  1.00  0.00    -0.034 A 
HETATM   25  C   UNL     1      40.368 -12.043   4.523  1.00  0.00     0.050 C 
HETATM   26  C   UNL     1      41.662 -10.930   6.321  1.00  0.00     0.026 A 
BRANCH  23  27
HETATM   27  N   UNL     1      42.970 -13.570   3.979  1.00  0.00    -0.332 N 
HETATM   28  C   UNL     1      43.238 -13.396   2.631  1.00  0.00     0.096 A 
HETATM   29  C   UNL     1      43.281 -14.625   2.010  1.00  0.00     0.019 A 
HETATM   30  C   UNL     1      43.064 -15.598   3.003  1.00  0.00     0.019 A 
HETATM   31  C   UNL     1      42.892 -14.931   4.196  1.00  0.00     0.096 A 
ENDBRANCH  23  27
ENDBRANCH  17  20
ENDBRANCH   1  16
BRANCH   6  32
HETATM   32  O   UNL     1      42.031  -5.579  15.668  1.00  0.00    -0.346 OA
HETATM   33  H   UNL     1      41.336  -5.846  16.294  1.00  0.00     0.219 HD
ENDBRANCH   6  32
TORSDOF 4
ENDMDL
MODEL 6
REMARK VINA RESULT:      -8.2      2.479      3.552
REMARK  4 active torsions:
REMARK  status: ('A' for Active; 'I' for Inactive)
REMARK    1  A    between atoms: C_3  and  N_4 
REMARK    2  A    between atoms: C_11  and  C_12 
REMARK       I    between atoms: C_12  and  N_13 
REMARK    3  A    between atoms: N_13  and  C_14 
REMARK    4  A    between atoms: C_19  and  O_20 
ROOT
HETATM    1  C   UNL     1      40.013 -11.488   6.215  1.00  0.00     0.036 A 
HETATM    2  C   UNL     1      40.429 -12.789   5.940  1.00  0.00     0.049 A 
HETATM    3  C   UNL     1      40.176 -13.387   4.686  1.00  0.00     0.063 A 
HETATM    4  C   UNL     1      39.506 -12.669   3.679  1.00  0.00     0.075 A 
HETATM    5  N   UNL     1      39.162 -13.127   2.394  1.00  0.00    -0.226 NA
HETATM    6  C   UNL     1      39.987 -13.850   1.716  1.00  0.00     0.161 C 
HETATM    7  C   UNL     1      41.350 -14.344   2.156  1.00  0.00     0.164 C 
HETATM    8  N   UNL     1      41.128 -15.201   3.316  1.00  0.00    -0.336 N 
HETATM    9  C   UNL     1      40.625 -14.795   4.533  1.00  0.00     0.257 C 
HETATM   10  O   UNL     1      40.566 -15.550   5.501  1.00  0.00    -0.267 OA
HETATM   11  C   UNL     1      42.074 -15.252   1.155  1.00  0.00     0.035 C 
HETATM   12  C   UNL     1      42.753 -16.291   2.040  1.00  0.00     0.022 C 
HETATM   13  C   UNL     1      41.733 -16.508   3.144  1.00  0.00     0.127 C 
HETATM   14  C   UNL     1      39.074 -11.371   3.982  1.00  0.00     0.035 A 
HETATM   15  C   UNL     1      39.317 -10.787   5.229  1.00  0.00     0.032 A 
ENDROOT
BRANCH   1  16
HETATM   16  N   UNL     1      40.231 -10.824   7.442  1.00  0.00    -0.323 N 
HETATM   17  C   UNL     1      41.083  -9.758   7.676  1.00  0.00     0.256 C 
HETATM   18  O   UNL     1      41.779  -9.190   6.842  1.00  0.00    -0.267 OA
HETATM   19  H   UNL     1      39.717 -11.190   8.230  1.00  0.00     0.169 HD
BRANCH  17  20
HETATM   20  C   UNL     1      41.148  -9.279   9.089  1.00  0.00     0.033 A 
HETATM   21  C   UNL     1      40.044  -8.758   9.763  1.00  0.00     0.019 A 
HETATM   22  C   UNL     1      40.168  -8.351  11.097  1.00  0.00     0.031 A 
HETATM   23  C   UNL     1      41.397  -8.444  11.779  1.00  0.00     0.044 A 
HETATM   24  C   UNL     1      42.538  -8.895  11.081  1.00  0.00    -0.034 A 
HETATM   25  C   UNL     1      43.942  -8.901  11.627  1.00  0.00     0.050 C 
HETATM   26  C   UNL     1      42.385  -9.328   9.746  1.00  0.00     0.026 A 
BRANCH  23  27
HETATM   27  N   UNL     1      41.418  -8.081  13.163  1.00  0.00    -0.332 N 
HETATM   28  C   UNL     1      41.508  -6.791  13.662  1.00  0.00     0.096 A 
HETATM   29  C   UNL     1      41.470  -6.829  15.038  1.00  0.00     0.019 A 
HETATM   30  C   UNL     1      41.323  -8.179  15.412  1.00  0.00     0.019 A 
HETATM   31  C   UNL     1      41.279  -8.919  14.251  1.00  0.00     0.096 A 
ENDBRANCH  23  27
ENDBRANCH  17  20
ENDBRANCH   1  16
BRANCH   6  32
HETATM   32  O   UNL     1      39.595 -14.181   0.480  1.00  0.00    -0.346 OA
HETATM   33  H   UNL     1      39.342 -15.120   0.504  1.00  0.00     0.219 HD
ENDBRANCH   6  32
TORSDOF 4
ENDMDL
MODEL 7
REMARK VINA RESULT:      -7.9     18.748     21.480
REMARK  4 active torsions:
REMARK  status: ('A' for Active; 'I' for Inactive)
REMARK    1  A    between atoms: C_3  and  N_4 
REMARK    2  A    between atoms: C_11  and  C_12 
REMARK       I    between atoms: C_12  and  N_13 
REMARK    3  A    between atoms: N_13  and  C_14 
REMARK    4  A    between atoms: C_19  and  O_20 
ROOT
HETATM    1  C   UNL     1      42.335 -31.989   6.359  1.00  0.00     0.036 A 
HETATM    2  C   UNL     1      42.621 -31.366   7.573  1.00  0.00     0.049 A 
HETATM    3  C   UNL     1      42.242 -31.951   8.801  1.00  0.00     0.063 A 
HETATM    4  C   UNL     1      41.574 -33.188   8.822  1.00  0.00     0.075 A 
HETATM    5  N   UNL     1      41.114 -33.887   9.953  1.00  0.00    -0.226 NA
HETATM    6  C   UNL     1      41.831 -33.941  11.023  1.00  0.00     0.161 C 
HETATM    7  C   UNL     1      43.171 -33.277  11.265  1.00  0.00     0.164 C 
HETATM    8  N   UNL     1      42.949 -31.839  11.159  1.00  0.00    -0.336 N 
HETATM    9  C   UNL     1      42.559 -31.166  10.022  1.00  0.00     0.257 C 
HETATM   10  O   UNL     1      42.495 -29.939   9.977  1.00  0.00    -0.267 OA
HETATM   11  C   UNL     1      43.751 -33.462  12.671  1.00  0.00     0.035 C 
HETATM   12  C   UNL     1      44.393 -32.113  12.974  1.00  0.00     0.022 C 
HETATM   13  C   UNL     1      43.428 -31.132  12.331  1.00  0.00     0.127 C 
HETATM   14  C   UNL     1      41.273 -33.788   7.592  1.00  0.00     0.035 A 
HETATM   15  C   UNL     1      41.642 -33.200   6.377  1.00  0.00     0.032 A 
ENDROOT
BRANCH   1  16
HETATM   16  N   UNL     1      42.684 -31.468   5.094  1.00  0.00    -0.323 N 
HETATM   17  C   UNL     1      41.850 -30.826   4.195  1.00  0.00     0.256 C 
HETATM   18  O   UNL     1      40.662 -30.578   4.359  1.00  0.00    -0.267 OA
HETATM   19  H   UNL     1      43.647 -31.604   4.821  1.00  0.00     0.169 HD
BRANCH  17  20
HETATM   20  C   UNL     1      42.482 -30.416   2.905  1.00  0.00     0.033 A 
HETATM   21  C   UNL     1      41.915 -29.471   2.051  1.00  0.00     0.019 A 
HETATM   22  C   UNL     1      42.574 -29.112   0.869  1.00  0.00     0.031 A 
HETATM   23  C   UNL     1      43.804 -29.699   0.511  1.00  0.00     0.044 A 
HETATM   24  C   UNL     1      44.346 -30.715   1.327  1.00  0.00    -0.034 A 
HETATM   25  C   UNL     1      45.563 -31.537   0.995  1.00  0.00     0.050 C 
HETATM   26  C   UNL     1      43.680 -31.040   2.530  1.00  0.00     0.026 A 
BRANCH  23  27
HETATM   27  N   UNL     1      44.449 -29.219  -0.674  1.00  0.00    -0.332 N 
HETATM   28  C   UNL     1      44.108 -29.552  -1.975  1.00  0.00     0.096 A 
HETATM   29  C   UNL     1      44.929 -28.876  -2.850  1.00  0.00     0.019 A 
HETATM   30  C   UNL     1      45.789 -28.074  -2.077  1.00  0.00     0.019 A 
HETATM   31  C   UNL     1      45.467 -28.289  -0.755  1.00  0.00     0.096 A 
ENDBRANCH  23  27
ENDBRANCH  17  20
ENDBRANCH   1  16
BRANCH   6  32
HETATM   32  O   UNL     1      41.336 -34.683  12.022  1.00  0.00    -0.346 OA
HETATM   33  H   UNL     1      42.085 -35.155  12.423  1.00  0.00     0.219 HD
ENDBRANCH   6  32
TORSDOF 4
ENDMDL
MODEL 8
REMARK VINA RESULT:      -7.8      3.352      6.370
REMARK  4 active torsions:
REMARK  status: ('A' for Active; 'I' for Inactive)
REMARK    1  A    between atoms: C_3  and  N_4 
REMARK    2  A    between atoms: C_11  and  C_12 
REMARK       I    between atoms: C_12  and  N_13 
REMARK    3  A    between atoms: N_13  and  C_14 
REMARK    4  A    between atoms: C_19  and  O_20 
ROOT
HETATM    1  C   UNL     1      43.650  -9.123  10.746  1.00  0.00     0.036 A 
HETATM    2  C   UNL     1      42.900  -9.209   9.574  1.00  0.00     0.049 A 
HETATM    3  C   UNL     1      43.503  -9.556   8.345  1.00  0.00     0.063 A 
HETATM    4  C   UNL     1      44.879  -9.836   8.283  1.00  0.00     0.075 A 
HETATM    5  N   UNL     1      45.628 -10.173   7.140  1.00  0.00    -0.226 NA
HETATM    6  C   UNL     1      45.141 -10.974   6.254  1.00  0.00     0.161 C 
HETATM    7  C   UNL     1      43.768 -11.614   6.250  1.00  0.00     0.164 C 
HETATM    8  N   UNL     1      42.801 -10.522   6.189  1.00  0.00    -0.336 N 
HETATM    9  C   UNL     1      42.607  -9.564   7.159  1.00  0.00     0.257 C 
HETATM   10  O   UNL     1      41.699  -8.738   7.090  1.00  0.00    -0.267 OA
HETATM   11  C   UNL     1      43.445 -12.467   5.018  1.00  0.00     0.035 C 
HETATM   12  C   UNL     1      41.975 -12.167   4.750  1.00  0.00     0.022 C 
HETATM   13  C   UNL     1      41.867 -10.691   5.093  1.00  0.00     0.127 C 
HETATM   14  C   UNL     1      45.622  -9.722   9.465  1.00  0.00     0.035 A 
HETATM   15  C   UNL     1      45.023  -9.367  10.679  1.00  0.00     0.032 A 
ENDROOT
BRANCH   1  16
HETATM   16  N   UNL     1      43.119  -8.786  12.009  1.00  0.00    -0.323 N 
HETATM   17  C   UNL     1      42.606  -7.561  12.401  1.00  0.00     0.256 C 
HETATM   18  O   UNL     1      42.503  -6.561  11.701  1.00  0.00    -0.267 OA
HETATM   19  H   UNL     1      43.141  -9.524  12.699  1.00  0.00     0.169 HD
BRANCH  17  20
HETATM   20  C   UNL     1      42.150  -7.475  13.821  1.00  0.00     0.033 A 
HETATM   21  C   UNL     1      41.872  -8.600  14.596  1.00  0.00     0.019 A 
HETATM   22  C   UNL     1      41.473  -8.448  15.930  1.00  0.00     0.031 A 
HETATM   23  C   UNL     1      41.332  -7.172  16.510  1.00  0.00     0.044 A 
HETATM   24  C   UNL     1      41.533  -6.027  15.711  1.00  0.00    -0.034 A 
HETATM   25  C   UNL     1      41.269  -4.609  16.145  1.00  0.00     0.050 C 
HETATM   26  C   UNL     1      41.963  -6.202  14.378  1.00  0.00     0.026 A 
BRANCH  23  27
HETATM   27  N   UNL     1      40.997  -7.108  17.900  1.00  0.00    -0.332 N 
HETATM   28  C   UNL     1      39.896  -7.701  18.498  1.00  0.00     0.096 A 
HETATM   29  C   UNL     1      39.918  -7.449  19.852  1.00  0.00     0.019 A 
HETATM   30  C   UNL     1      41.082  -6.702  20.114  1.00  0.00     0.019 A 
HETATM   31  C   UNL     1      41.729  -6.520  18.913  1.00  0.00     0.096 A 
ENDBRANCH  23  27
ENDBRANCH  17  20
ENDBRANCH   1  16
BRANCH   6  32
HETATM   32  O   UNL     1      45.955 -11.284   5.237  1.00  0.00    -0.346 OA
HETATM   33  H   UNL     1      45.434 -11.198   4.420  1.00  0.00     0.219 HD
ENDBRANCH   6  32
TORSDOF 4
ENDMDL
MODEL 9
REMARK VINA RESULT:      -7.7     18.731     21.052
REMARK  4 active torsions:
REMARK  status: ('A' for Active; 'I' for Inactive)
REMARK    1  A    between atoms: C_3  and  N_4 
REMARK    2  A    between atoms: C_11  and  C_12 
REMARK       I    between atoms: C_12  and  N_13 
REMARK    3  A    between atoms: N_13  and  C_14 
REMARK    4  A    between atoms: C_19  and  O_20 
ROOT
HETATM    1  C   UNL     1      49.937 -30.310   2.364  1.00  0.00     0.036 A 
HETATM    2  C   UNL     1      48.649 -29.780   2.303  1.00  0.00     0.049 A 
HETATM    3  C   UNL     1      48.086 -29.366   1.076  1.00  0.00     0.063 A 
HETATM    4  C   UNL     1      48.816 -29.493  -0.118  1.00  0.00     0.075 A 
HETATM    5  N   UNL     1      48.408 -29.110  -1.410  1.00  0.00    -0.226 NA
HETATM    6  C   UNL     1      47.198 -29.321  -1.800  1.00  0.00     0.161 C 
HETATM    7  C   UNL     1      46.066 -29.927  -0.996  1.00  0.00     0.164 C 
HETATM    8  N   UNL     1      45.834 -29.033   0.134  1.00  0.00    -0.336 N 
HETATM    9  C   UNL     1      46.726 -28.773   1.151  1.00  0.00     0.257 C 
HETATM   10  O   UNL     1      46.423 -28.093   2.129  1.00  0.00    -0.267 OA
HETATM   11  C   UNL     1      44.711 -29.984  -1.711  1.00  0.00     0.035 C 
HETATM   12  C   UNL     1      43.710 -29.665  -0.606  1.00  0.00     0.022 C 
HETATM   13  C   UNL     1      44.445 -28.624   0.221  1.00  0.00     0.127 C 
HETATM   14  C   UNL     1      50.118 -30.004  -0.036  1.00  0.00     0.035 A 
HETATM   15  C   UNL     1      50.676 -30.403   1.183  1.00  0.00     0.032 A 
ENDROOT
BRANCH   1  16
HETATM   16  N   UNL     1      50.564 -30.747   3.550  1.00  0.00    -0.323 N 
HETATM   17  C   UNL     1      50.175 -31.797   4.364  1.00  0.00     0.256 C 
HETATM   18  O   UNL     1      49.225 -32.547   4.175  1.00  0.00    -0.267 OA
HETATM   19  H   UNL     1      51.373 -30.213   3.834  1.00  0.00     0.169 HD
BRANCH  17  20
HETATM   20  C   UNL     1      51.005 -32.010   5.588  1.00  0.00     0.033 A 
HETATM   21  C   UNL     1      52.194 -31.322   5.825  1.00  0.00     0.019 A 
HETATM   22  C   UNL     1      52.910 -31.549   7.007  1.00  0.00     0.031 A 
HETATM   23  C   UNL     1      52.460 -32.478   7.967  1.00  0.00     0.044 A 
HETATM   24  C   UNL     1      51.301 -33.237   7.699  1.00  0.00    -0.034 A 
HETATM   25  C   UNL     1      50.790 -34.368   8.552  1.00  0.00     0.050 C 
HETATM   26  C   UNL     1      50.578 -32.970   6.516  1.00  0.00     0.026 A 
BRANCH  23  27
HETATM   27  N   UNL     1      53.209 -32.592   9.181  1.00  0.00    -0.332 N 
HETATM   28  C   UNL     1      52.917 -31.957  10.378  1.00  0.00     0.096 A 
HETATM   29  C   UNL     1      53.840 -32.329  11.330  1.00  0.00     0.019 A 
HETATM   30  C   UNL     1      54.717 -33.246  10.721  1.00  0.00     0.019 A 
HETATM   31  C   UNL     1      54.303 -33.401   9.417  1.00  0.00     0.096 A 
ENDBRANCH  23  27
ENDBRANCH  17  20
ENDBRANCH   1  16
BRANCH   6  32
HETATM   32  O   UNL     1      46.925 -28.981  -3.066  1.00  0.00    -0.346 OA
HETATM   33  H   UNL     1      47.745 -29.098  -3.575  1.00  0.00     0.219 HD
ENDBRANCH   6  32
TORSDOF 4
ENDMDL
MODEL 10
REMARK VINA RESULT:      -7.6      5.901     14.033
REMARK  4 active torsions:
REMARK  status: ('A' for Active; 'I' for Inactive)
REMARK    1  A    between atoms: C_3  and  N_4 
REMARK    2  A    between atoms: C_11  and  C_12 
REMARK       I    between atoms: C_12  and  N_13 
REMARK    3  A    between atoms: N_13  and  C_14 
REMARK    4  A    between atoms: C_19  and  O_20 
ROOT
HETATM    1  C   UNL     1      41.861  -7.270  15.848  1.00  0.00     0.036 A 
HETATM    2  C   UNL     1      42.059  -5.970  16.310  1.00  0.00     0.049 A 
HETATM    3  C   UNL     1      41.531  -5.547  17.550  1.00  0.00     0.063 A 
HETATM    4  C   UNL     1      40.801  -6.441  18.353  1.00  0.00     0.075 A 
HETATM    5  N   UNL     1      40.196  -6.170  19.594  1.00  0.00    -0.226 NA
HETATM    6  C   UNL     1      40.802  -5.442  20.469  1.00  0.00     0.161 C 
HETATM    7  C   UNL     1      42.145  -4.756  20.323  1.00  0.00     0.164 C 
HETATM    8  N   UNL     1      42.009  -3.805  19.225  1.00  0.00    -0.336 N 
HETATM    9  C   UNL     1      41.767  -4.125  17.907  1.00  0.00     0.257 C 
HETATM   10  O   UNL     1      41.772  -3.277  17.017  1.00  0.00    -0.267 OA
HETATM   11  C   UNL     1      42.574  -3.893  21.514  1.00  0.00     0.035 C 
HETATM   12  C   UNL     1      43.252  -2.694  20.862  1.00  0.00     0.022 C 
HETATM   13  C   UNL     1      42.407  -2.467  19.619  1.00  0.00     0.127 C 
HETATM   14  C   UNL     1      40.592  -7.737  17.862  1.00  0.00     0.035 A 
HETATM   15  C   UNL     1      41.107  -8.148  16.628  1.00  0.00     0.032 A 
ENDROOT
BRANCH   1  16
HETATM   16  N   UNL     1      42.359  -7.765  14.624  1.00  0.00    -0.323 N 
HETATM   17  C   UNL     1      41.674  -7.877  13.426  1.00  0.00     0.256 C 
HETATM   18  O   UNL     1      40.515  -7.536  13.219  1.00  0.00    -0.267 OA
HETATM   19  H   UNL     1      43.315  -8.089  14.644  1.00  0.00     0.169 HD
BRANCH  17  20
HETATM   20  C   UNL     1      42.440  -8.481  12.295  1.00  0.00     0.033 A 
HETATM   21  C   UNL     1      42.925  -9.787  12.322  1.00  0.00     0.019 A 
HETATM   22  C   UNL     1      43.613 -10.301  11.216  1.00  0.00     0.031 A 
HETATM   23  C   UNL     1      43.843  -9.515  10.069  1.00  0.00     0.044 A 
HETATM   24  C   UNL     1      43.427  -8.166  10.064  1.00  0.00    -0.034 A 
HETATM   25  C   UNL     1      43.739  -7.167   8.981  1.00  0.00     0.050 C 
HETATM   26  C   UNL     1      42.708  -7.678  11.177  1.00  0.00     0.026 A 
BRANCH  23  27
HETATM   27  N   UNL     1      44.486 -10.141   8.953  1.00  0.00    -0.332 N 
HETATM   28  C   UNL     1      45.827 -10.030   8.623  1.00  0.00     0.096 A 
HETATM   29  C   UNL     1      46.087 -10.793   7.505  1.00  0.00     0.019 A 
HETATM   30  C   UNL     1      44.881 -11.422   7.143  1.00  0.00     0.019 A 
HETATM   31  C   UNL     1      43.925 -11.021   8.049  1.00  0.00     0.096 A 
ENDBRANCH  23  27
ENDBRANCH  17  20
ENDBRANCH   1  16
BRANCH   6  32
HETATM   32  O   UNL     1      40.174  -5.296  21.643  1.00  0.00    -0.346 OA
HETATM   33  H   UNL     1      39.917  -4.360  21.713  1.00  0.00     0.219 HD
ENDBRANCH   6  32
TORSDOF 4
ENDMDL
