MODEL 1
REMARK VINA RESULT:      -8.4      0.000      0.000
REMARK  5 active torsions:
REMARK  status: ('A' for Active; 'I' for Inactive)
REMARK    1  A    between atoms: C_4  and  C_5 
REMARK       I    between atoms: C_5  and  N_6 
REMARK    2  A    between atoms: N_6  and  C_7 
REMARK    3  A    between atoms: C_10  and  C_11 
REMARK    4  A    between atoms: C_18  and  N_19 
REMARK       I    between atoms: N_19  and  C_20 
REMARK    5  A    between atoms: C_20  and  C_21 
ROOT
HETATM    1  C   UNL     1      43.111 -10.466   6.441  1.00  0.00     0.139 A 
HETATM    2  N   UNL     1      42.259  -9.919   7.292  1.00  0.00    -0.228 NA
HETATM    3  C   UNL     1      42.948  -9.740   8.471  1.00  0.00     0.088 A 
HETATM    4  C   UNL     1      44.252 -10.192   8.345  1.00  0.00     0.063 A 
HETATM    5  N   UNL     1      44.330 -10.644   7.056  1.00  0.00    -0.338 N 
HETATM    6  H   UNL     1      45.142 -11.069   6.635  1.00  0.00     0.167 HD
HETATM    7  C   UNL     1      42.520  -9.201   9.697  1.00  0.00     0.063 A 
HETATM    8  C   UNL     1      43.429  -9.140  10.763  1.00  0.00     0.037 A 
HETATM    9  C   UNL     1      44.741  -9.613  10.592  1.00  0.00     0.032 A 
HETATM   10  C   UNL     1      45.185 -10.150   9.378  1.00  0.00     0.034 A 
ENDROOT
BRANCH   1  11
HETATM   11  C   UNL     1      42.827 -10.882   5.063  1.00  0.00     0.010 A 
HETATM   12  C   UNL     1      43.571 -11.876   4.415  1.00  0.00     0.017 A 
HETATM   13  C   UNL     1      43.244 -12.294   3.119  1.00  0.00     0.030 A 
HETATM   14  C   UNL     1      42.169 -11.726   2.438  1.00  0.00     0.035 A 
HETATM   15  C   UNL     1      41.445 -10.706   3.063  1.00  0.00     0.030 A 
HETATM   16  C   UNL     1      41.771 -10.288   4.361  1.00  0.00     0.017 A 
BRANCH  14  17
HETATM   17  N   UNL     1      41.757 -12.126   1.153  1.00  0.00    -0.321 N 
HETATM   18  C   UNL     1      40.743 -13.007   0.816  1.00  0.00     0.279 C 
HETATM   19  O   UNL     1      40.037 -13.618   1.612  1.00  0.00    -0.265 OA
HETATM   20  H   UNL     1      42.220 -11.691   0.362  1.00  0.00     0.169 HD
BRANCH  18  21
HETATM   21  C   UNL     1      40.563 -13.137  -0.620  1.00  0.00     0.142 A 
HETATM   22  O   UNL     1      41.122 -12.209  -1.461  1.00  0.00    -0.317 OA
HETATM   23  C   UNL     1      40.795 -12.572  -2.729  1.00  0.00     0.143 A 
HETATM   24  C   UNL     1      40.031 -13.715  -2.723  1.00  0.00     0.027 A 
HETATM   25  C   UNL     1      39.882 -14.081  -1.365  1.00  0.00     0.045 A 
ENDBRANCH  18  21
ENDBRANCH  14  17
ENDBRANCH   1  11
BRANCH   8  26
HETATM   26  N   UNL     1      43.116  -8.628  12.037  1.00  0.00    -0.321 N 
HETATM   27  C   UNL     1      42.247  -9.134  12.985  1.00  0.00     0.279 C 
HETATM   28  O   UNL     1      41.574 -10.152  12.870  1.00  0.00    -0.265 OA
HETATM   29  H   UNL     1      43.583  -7.772  12.317  1.00  0.00     0.169 HD
BRANCH  27  30
HETATM   30  C   UNL     1      42.204  -8.309  14.183  1.00  0.00     0.142 A 
HETATM   31  O   UNL     1      41.321  -8.626  15.187  1.00  0.00    -0.317 OA
HETATM   32  C   UNL     1      41.487  -7.705  16.172  1.00  0.00     0.143 A 
HETATM   33  C   UNL     1      42.460  -6.798  15.826  1.00  0.00     0.027 A 
HETATM   34  C   UNL     1      42.922  -7.185  14.545  1.00  0.00     0.045 A 
ENDBRANCH  27  30
ENDBRANCH   8  26
TORSDOF 5
ENDMDL
MODEL 2
REMARK VINA RESULT:      -8.0      3.047     12.502
REMARK  5 active torsions:
REMARK  status: ('A' for Active; 'I' for Inactive)
REMARK    1  A    between atoms: C_4  and  C_5 
REMARK       I    between atoms: C_5  and  N_6 
REMARK    2  A    between atoms: N_6  and  C_7 
REMARK    3  A    between atoms: C_10  and  C_11 
REMARK    4  A    between atoms: C_18  and  N_19 
REMARK       I    between atoms: N_19  and  C_20 
REMARK    5  A    between atoms: C_20  and  C_21 
ROOT
HETATM    1  C   UNL     1      43.524  -8.877  10.171  1.00  0.00     0.139 A 
HETATM    2  N   UNL     1      42.687  -9.452   9.322  1.00  0.00    -0.228 NA
HETATM    3  C   UNL     1      43.462 -10.170   8.439  1.00  0.00     0.088 A 
HETATM    4  C   UNL     1      44.806 -10.029   8.746  1.00  0.00     0.063 A 
HETATM    5  N   UNL     1      44.819  -9.211   9.843  1.00  0.00    -0.338 N 
HETATM    6  H   UNL     1      45.646  -8.880  10.313  1.00  0.00     0.167 HD
HETATM    7  C   UNL     1      43.084 -10.962   7.340  1.00  0.00     0.063 A 
HETATM    8  C   UNL     1      44.084 -11.587   6.581  1.00  0.00     0.037 A 
HETATM    9  C   UNL     1      45.435 -11.415   6.927  1.00  0.00     0.032 A 
HETATM   10  C   UNL     1      45.829 -10.632   8.019  1.00  0.00     0.034 A 
ENDROOT
BRANCH   1  11
HETATM   11  C   UNL     1      43.171  -7.977  11.274  1.00  0.00     0.010 A 
HETATM   12  C   UNL     1      42.539  -6.745  11.058  1.00  0.00     0.017 A 
HETATM   13  C   UNL     1      42.161  -5.929  12.132  1.00  0.00     0.030 A 
HETATM   14  C   UNL     1      42.411  -6.322  13.446  1.00  0.00     0.035 A 
HETATM   15  C   UNL     1      43.077  -7.531  13.668  1.00  0.00     0.030 A 
HETATM   16  C   UNL     1      43.453  -8.349  12.594  1.00  0.00     0.017 A 
BRANCH  14  17
HETATM   17  N   UNL     1      42.023  -5.574  14.573  1.00  0.00    -0.321 N 
HETATM   18  C   UNL     1      40.853  -5.679  15.308  1.00  0.00     0.279 C 
HETATM   19  O   UNL     1      39.928  -6.449  15.067  1.00  0.00    -0.265 OA
HETATM   20  H   UNL     1      42.689  -4.899  14.934  1.00  0.00     0.169 HD
BRANCH  18  21
HETATM   21  C   UNL     1      40.819  -4.778  16.446  1.00  0.00     0.142 A 
HETATM   22  O   UNL     1      41.484  -3.579  16.384  1.00  0.00    -0.317 OA
HETATM   23  C   UNL     1      41.287  -2.952  17.573  1.00  0.00     0.143 A 
HETATM   24  C   UNL     1      40.511  -3.724  18.405  1.00  0.00     0.027 A 
HETATM   25  C   UNL     1      40.208  -4.900  17.680  1.00  0.00     0.045 A 
ENDBRANCH  18  21
ENDBRANCH  14  17
ENDBRANCH   1  11
BRANCH   8  26
HETATM   26  N   UNL     1      43.830 -12.399   5.459  1.00  0.00    -0.321 N 
HETATM   27  C   UNL     1      43.082 -13.559   5.380  1.00  0.00     0.279 C 
HETATM   28  O   UNL     1      42.494 -14.097   6.311  1.00  0.00    -0.265 OA
HETATM   29  H   UNL     1      44.241 -12.110   4.578  1.00  0.00     0.169 HD
BRANCH  27  30
HETATM   30  C   UNL     1      43.058 -14.102   4.031  1.00  0.00     0.142 A 
HETATM   31  O   UNL     1      43.014 -15.465   3.855  1.00  0.00    -0.317 OA
HETATM   32  C   UNL     1      43.002 -15.696   2.517  1.00  0.00     0.143 A 
HETATM   33  C   UNL     1      43.037 -14.511   1.822  1.00  0.00     0.027 A 
HETATM   34  C   UNL     1      43.073 -13.483   2.795  1.00  0.00     0.045 A 
ENDBRANCH  27  30
ENDBRANCH   8  26
TORSDOF 5
ENDMDL
MODEL 3
REMARK VINA RESULT:      -7.9      4.097     11.676
REMARK  5 active torsions:
REMARK  status: ('A' for Active; 'I' for Inactive)
REMARK    1  A    between atoms: C_4  and  C_5 
REMARK       I    between atoms: C_5  and  N_6 
REMARK    2  A    between atoms: N_6  and  C_7 
REMARK    3  A    between atoms: C_10  and  C_11 
REMARK    4  A    between atoms: C_18  and  N_19 
REMARK       I    between atoms: N_19  and  C_20 
REMARK    5  A    between atoms: C_20  and  C_21 
ROOT
HETATM    1  C   UNL     1      42.752 -11.226   6.205  1.00  0.00     0.139 A 
HETATM    2  N   UNL     1      42.794 -12.506   6.535  1.00  0.00    -0.228 NA
HETATM    3  C   UNL     1      42.920 -13.208   5.357  1.00  0.00     0.088 A 
HETATM    4  C   UNL     1      42.950 -12.341   4.276  1.00  0.00     0.063 A 
HETATM    5  N   UNL     1      42.844 -11.097   4.837  1.00  0.00    -0.338 N 
HETATM    6  H   UNL     1      42.806 -10.229   4.326  1.00  0.00     0.167 HD
HETATM    7  C   UNL     1      43.008 -14.593   5.133  1.00  0.00     0.063 A 
HETATM    8  C   UNL     1      43.120 -15.060   3.816  1.00  0.00     0.037 A 
HETATM    9  C   UNL     1      43.144 -14.145   2.749  1.00  0.00     0.032 A 
HETATM   10  C   UNL     1      43.060 -12.763   2.954  1.00  0.00     0.034 A 
ENDROOT
BRANCH   1  11
HETATM   11  C   UNL     1      42.583 -10.091   7.118  1.00  0.00     0.010 A 
HETATM   12  C   UNL     1      41.354  -9.440   7.280  1.00  0.00     0.017 A 
HETATM   13  C   UNL     1      41.204  -8.395   8.201  1.00  0.00     0.030 A 
HETATM   14  C   UNL     1      42.281  -7.973   8.978  1.00  0.00     0.035 A 
HETATM   15  C   UNL     1      43.522  -8.592   8.796  1.00  0.00     0.030 A 
HETATM   16  C   UNL     1      43.670  -9.639   7.876  1.00  0.00     0.017 A 
BRANCH  14  17
HETATM   17  N   UNL     1      42.194  -6.961   9.952  1.00  0.00    -0.321 N 
HETATM   18  C   UNL     1      41.854  -7.087  11.289  1.00  0.00     0.279 C 
HETATM   19  O   UNL     1      41.539  -8.132  11.848  1.00  0.00    -0.265 OA
HETATM   20  H   UNL     1      42.453  -6.021   9.668  1.00  0.00     0.169 HD
BRANCH  18  21
HETATM   21  C   UNL     1      41.924  -5.827  12.010  1.00  0.00     0.142 A 
HETATM   22  O   UNL     1      41.429  -5.748  13.287  1.00  0.00    -0.317 OA
HETATM   23  C   UNL     1      41.620  -4.470  13.709  1.00  0.00     0.143 A 
HETATM   24  C   UNL     1      42.224  -3.721  12.727  1.00  0.00     0.027 A 
HETATM   25  C   UNL     1      42.421  -4.595  11.632  1.00  0.00     0.045 A 
ENDBRANCH  18  21
ENDBRANCH  14  17
ENDBRANCH   1  11
BRANCH   8  26
HETATM   26  N   UNL     1      43.210 -16.421   3.467  1.00  0.00    -0.321 N 
HETATM   27  C   UNL     1      43.874 -17.442   4.122  1.00  0.00     0.279 C 
HETATM   28  O   UNL     1      44.524 -17.327   5.155  1.00  0.00    -0.265 OA
HETATM   29  H   UNL     1      42.728 -16.714   2.624  1.00  0.00     0.169 HD
BRANCH  27  30
HETATM   30  C   UNL     1      43.723 -18.718   3.440  1.00  0.00     0.142 A 
HETATM   31  O   UNL     1      44.037 -19.878   4.106  1.00  0.00    -0.317 OA
HETATM   32  C   UNL     1      43.810 -20.907   3.249  1.00  0.00     0.143 A 
HETATM   33  C   UNL     1      43.355 -20.436   2.040  1.00  0.00     0.027 A 
HETATM   34  C   UNL     1      43.299 -19.026   2.161  1.00  0.00     0.045 A 
ENDBRANCH  27  30
ENDBRANCH   8  26
TORSDOF 5
ENDMDL
MODEL 4
REMARK VINA RESULT:      -7.8      4.482      5.275
REMARK  5 active torsions:
REMARK  status: ('A' for Active; 'I' for Inactive)
REMARK    1  A    between atoms: C_4  and  C_5 
REMARK       I    between atoms: C_5  and  N_6 
REMARK    2  A    between atoms: N_6  and  C_7 
REMARK    3  A    between atoms: C_10  and  C_11 
REMARK    4  A    between atoms: C_18  and  N_19 
REMARK       I    between atoms: N_19  and  C_20 
REMARK    5  A    between atoms: C_20  and  C_21 
ROOT
HETATM    1  C   UNL     1      42.639 -11.056   6.296  1.00  0.00     0.139 A 
HETATM    2  N   UNL     1      43.147 -10.569   7.416  1.00  0.00    -0.228 NA
HETATM    3  C   UNL     1      42.721  -9.262   7.500  1.00  0.00     0.088 A 
HETATM    4  C   UNL     1      41.938  -8.935   6.404  1.00  0.00     0.063 A 
HETATM    5  N   UNL     1      41.901 -10.083   5.660  1.00  0.00    -0.338 N 
HETATM    6  H   UNL     1      41.434 -10.188   4.773  1.00  0.00     0.167 HD
HETATM    7  C   UNL     1      42.970  -8.290   8.485  1.00  0.00     0.063 A 
HETATM    8  C   UNL     1      42.421  -7.010   8.326  1.00  0.00     0.037 A 
HETATM    9  C   UNL     1      41.636  -6.721   7.197  1.00  0.00     0.032 A 
HETATM   10  C   UNL     1      41.375  -7.677   6.208  1.00  0.00     0.034 A 
ENDROOT
BRANCH   1  11
HETATM   11  C   UNL     1      42.848 -12.403   5.753  1.00  0.00     0.010 A 
HETATM   12  C   UNL     1      43.203 -13.488   6.565  1.00  0.00     0.017 A 
HETATM   13  C   UNL     1      43.339 -14.776   6.031  1.00  0.00     0.030 A 
HETATM   14  C   UNL     1      43.130 -15.009   4.673  1.00  0.00     0.035 A 
HETATM   15  C   UNL     1      42.814 -13.924   3.849  1.00  0.00     0.030 A 
HETATM   16  C   UNL     1      42.674 -12.636   4.383  1.00  0.00     0.017 A 
BRANCH  14  17
HETATM   17  N   UNL     1      43.209 -16.281   4.076  1.00  0.00    -0.321 N 
HETATM   18  C   UNL     1      43.915 -17.389   4.513  1.00  0.00     0.279 C 
HETATM   19  O   UNL     1      44.630 -17.430   5.510  1.00  0.00    -0.265 OA
HETATM   20  H   UNL     1      42.648 -16.437   3.244  1.00  0.00     0.169 HD
BRANCH  18  21
HETATM   21  C   UNL     1      43.716 -18.554   3.669  1.00  0.00     0.142 A 
HETATM   22  O   UNL     1      44.059 -19.798   4.136  1.00  0.00    -0.317 OA
HETATM   23  C   UNL     1      43.773 -20.687   3.149  1.00  0.00     0.143 A 
HETATM   24  C   UNL     1      43.257 -20.041   2.050  1.00  0.00     0.027 A 
HETATM   25  C   UNL     1      43.219 -18.666   2.384  1.00  0.00     0.045 A 
ENDBRANCH  18  21
ENDBRANCH  14  17
ENDBRANCH   1  11
BRANCH   8  26
HETATM   26  N   UNL     1      42.605  -5.954   9.240  1.00  0.00    -0.321 N 
HETATM   27  C   UNL     1      41.976  -5.738  10.452  1.00  0.00     0.279 C 
HETATM   28  O   UNL     1      41.117  -6.456  10.952  1.00  0.00    -0.265 OA
HETATM   29  H   UNL     1      43.288  -5.246   8.996  1.00  0.00     0.169 HD
BRANCH  27  30
HETATM   30  C   UNL     1      42.449  -4.528  11.105  1.00  0.00     0.142 A 
HETATM   31  O   UNL     1      42.264  -4.377  12.458  1.00  0.00    -0.317 OA
HETATM   32  C   UNL     1      42.791  -3.173  12.803  1.00  0.00     0.143 A 
HETATM   33  C   UNL     1      43.312  -2.541  11.700  1.00  0.00     0.027 A 
HETATM   34  C   UNL     1      43.093  -3.411  10.605  1.00  0.00     0.045 A 
ENDBRANCH  27  30
ENDBRANCH   8  26
TORSDOF 5
ENDMDL
MODEL 5
REMARK VINA RESULT:      -7.8      1.433      1.772
REMARK  5 active torsions:
REMARK  status: ('A' for Active; 'I' for Inactive)
REMARK    1  A    between atoms: C_4  and  C_5 
REMARK       I    between atoms: C_5  and  N_6 
REMARK    2  A    between atoms: N_6  and  C_7 
REMARK    3  A    between atoms: C_10  and  C_11 
REMARK    4  A    between atoms: C_18  and  N_19 
REMARK       I    between atoms: N_19  and  C_20 
REMARK    5  A    between atoms: C_20  and  C_21 
ROOT
HETATM    1  C   UNL     1      41.887 -10.798   5.429  1.00  0.00     0.139 A 
HETATM    2  N   UNL     1      41.237 -10.140   6.373  1.00  0.00    -0.228 NA
HETATM    3  C   UNL     1      42.091 -10.060   7.450  1.00  0.00     0.088 A 
HETATM    4  C   UNL     1      43.293 -10.688   7.165  1.00  0.00     0.063 A 
HETATM    5  N   UNL     1      43.140 -11.144   5.884  1.00  0.00    -0.338 N 
HETATM    6  H   UNL     1      43.824 -11.676   5.369  1.00  0.00     0.167 HD
HETATM    7  C   UNL     1      41.904  -9.469   8.713  1.00  0.00     0.063 A 
HETATM    8  C   UNL     1      42.943  -9.537   9.652  1.00  0.00     0.037 A 
HETATM    9  C   UNL     1      44.144 -10.187   9.321  1.00  0.00     0.032 A 
HETATM   10  C   UNL     1      44.349 -10.778   8.068  1.00  0.00     0.034 A 
ENDROOT
BRANCH   1  11
HETATM   11  C   UNL     1      41.373 -11.167   4.105  1.00  0.00     0.010 A 
HETATM   12  C   UNL     1      42.179 -11.150   2.960  1.00  0.00     0.017 A 
HETATM   13  C   UNL     1      41.679 -11.562   1.718  1.00  0.00     0.030 A 
HETATM   14  C   UNL     1      40.361 -11.995   1.590  1.00  0.00     0.035 A 
HETATM   15  C   UNL     1      39.538 -11.978   2.721  1.00  0.00     0.030 A 
HETATM   16  C   UNL     1      40.039 -11.568   3.964  1.00  0.00     0.017 A 
BRANCH  14  17
HETATM   17  N   UNL     1      39.804 -12.463   0.385  1.00  0.00    -0.321 N 
HETATM   18  C   UNL     1      39.862 -13.741  -0.145  1.00  0.00     0.279 C 
HETATM   19  O   UNL     1      40.450 -14.694   0.357  1.00  0.00    -0.265 OA
HETATM   20  H   UNL     1      39.250 -11.805  -0.155  1.00  0.00     0.169 HD
BRANCH  18  21
HETATM   21  C   UNL     1      39.121 -13.871  -1.387  1.00  0.00     0.142 A 
HETATM   22  O   UNL     1      38.035 -13.063  -1.618  1.00  0.00    -0.317 OA
HETATM   23  C   UNL     1      37.540 -13.401  -2.837  1.00  0.00     0.143 A 
HETATM   24  C   UNL     1      38.281 -14.414  -3.397  1.00  0.00     0.027 A 
HETATM   25  C   UNL     1      39.301 -14.717  -2.465  1.00  0.00     0.045 A 
ENDBRANCH  18  21
ENDBRANCH  14  17
ENDBRANCH   1  11
BRANCH   8  26
HETATM   26  N   UNL     1      42.871  -8.989  10.947  1.00  0.00    -0.321 N 
HETATM   27  C   UNL     1      41.948  -9.239  11.945  1.00  0.00     0.279 C 
HETATM   28  O   UNL     1      40.996 -10.008  11.864  1.00  0.00    -0.265 OA
HETATM   29  H   UNL     1      43.588  -8.318  11.204  1.00  0.00     0.169 HD
BRANCH  27  30
HETATM   30  C   UNL     1      42.222  -8.471  13.149  1.00  0.00     0.142 A 
HETATM   31  O   UNL     1      41.565  -8.787  14.314  1.00  0.00    -0.317 OA
HETATM   32  C   UNL     1      42.001  -7.924  15.267  1.00  0.00     0.143 A 
HETATM   33  C   UNL     1      42.928  -7.055  14.744  1.00  0.00     0.027 A 
HETATM   34  C   UNL     1      43.072  -7.405  13.380  1.00  0.00     0.045 A 
ENDBRANCH  27  30
ENDBRANCH   8  26
TORSDOF 5
ENDMDL
MODEL 6
REMARK VINA RESULT:      -7.6      2.554      5.125
REMARK  5 active torsions:
REMARK  status: ('A' for Active; 'I' for Inactive)
REMARK    1  A    between atoms: C_4  and  C_5 
REMARK       I    between atoms: C_5  and  N_6 
REMARK    2  A    between atoms: N_6  and  C_7 
REMARK    3  A    between atoms: C_10  and  C_11 
REMARK    4  A    between atoms: C_18  and  N_19 
REMARK       I    between atoms: N_19  and  C_20 
REMARK    5  A    between atoms: C_20  and  C_21 
ROOT
HETATM    1  C   UNL     1      42.108  -8.812  11.027  1.00  0.00     0.139 A 
HETATM    2  N   UNL     1      41.260  -9.240  11.947  1.00  0.00    -0.228 NA
HETATM    3  C   UNL     1      41.621  -8.626  13.125  1.00  0.00     0.088 A 
HETATM    4  C   UNL     1      42.721  -7.806  12.928  1.00  0.00     0.063 A 
HETATM    5  N   UNL     1      43.008  -7.939  11.597  1.00  0.00    -0.338 N 
HETATM    6  H   UNL     1      43.776  -7.495  11.119  1.00  0.00     0.167 HD
HETATM    7  C   UNL     1      41.058  -8.728  14.409  1.00  0.00     0.063 A 
HETATM    8  C   UNL     1      41.631  -7.996  15.459  1.00  0.00     0.037 A 
HETATM    9  C   UNL     1      42.747  -7.179  15.215  1.00  0.00     0.032 A 
HETATM   10  C   UNL     1      43.320  -7.064  13.943  1.00  0.00     0.034 A 
ENDROOT
BRANCH   1  11
HETATM   11  C   UNL     1      42.150  -9.218   9.618  1.00  0.00     0.010 A 
HETATM   12  C   UNL     1      43.318  -9.703   9.016  1.00  0.00     0.017 A 
HETATM   13  C   UNL     1      43.318 -10.138   7.684  1.00  0.00     0.030 A 
HETATM   14  C   UNL     1      42.152 -10.092   6.921  1.00  0.00     0.035 A 
HETATM   15  C   UNL     1      40.991  -9.573   7.503  1.00  0.00     0.030 A 
HETATM   16  C   UNL     1      40.991  -9.141   8.836  1.00  0.00     0.017 A 
BRANCH  14  17
HETATM   17  N   UNL     1      42.068 -10.551   5.593  1.00  0.00    -0.321 N 
HETATM   18  C   UNL     1      41.978 -11.858   5.144  1.00  0.00     0.279 C 
HETATM   19  O   UNL     1      41.985 -12.858   5.855  1.00  0.00    -0.265 OA
HETATM   20  H   UNL     1      42.021  -9.848   4.863  1.00  0.00     0.169 HD
BRANCH  18  21
HETATM   21  C   UNL     1      41.850 -11.950   3.700  1.00  0.00     0.142 A 
HETATM   22  O   UNL     1      41.764 -13.183   3.103  1.00  0.00    -0.317 OA
HETATM   23  C   UNL     1      41.658 -12.970   1.765  1.00  0.00     0.143 A 
HETATM   24  C   UNL     1      41.680 -11.625   1.485  1.00  0.00     0.027 A 
HETATM   25  C   UNL     1      41.802 -10.966   2.731  1.00  0.00     0.045 A 
ENDBRANCH  18  21
ENDBRANCH  14  17
ENDBRANCH   1  11
BRANCH   8  26
HETATM   26  N   UNL     1      41.159  -8.021  16.786  1.00  0.00    -0.321 N 
HETATM   27  C   UNL     1      40.212  -7.211  17.384  1.00  0.00     0.279 C 
HETATM   28  O   UNL     1      39.602  -6.298  16.838  1.00  0.00    -0.265 OA
HETATM   29  H   UNL     1      41.554  -8.722  17.403  1.00  0.00     0.169 HD
BRANCH  27  30
HETATM   30  C   UNL     1      39.998  -7.558  18.780  1.00  0.00     0.142 A 
HETATM   31  O   UNL     1      40.544  -6.766  19.762  1.00  0.00    -0.317 OA
HETATM   32  C   UNL     1      40.197  -7.312  20.956  1.00  0.00     0.143 A 
HETATM   33  C   UNL     1      39.437  -8.441  20.768  1.00  0.00     0.027 A 
HETATM   34  C   UNL     1      39.308  -8.602  19.367  1.00  0.00     0.045 A 
ENDBRANCH  27  30
ENDBRANCH   8  26
TORSDOF 5
ENDMDL
MODEL 7
REMARK VINA RESULT:      -7.5      2.861     13.204
REMARK  5 active torsions:
REMARK  status: ('A' for Active; 'I' for Inactive)
REMARK    1  A    between atoms: C_4  and  C_5 
REMARK       I    between atoms: C_5  and  N_6 
REMARK    2  A    between atoms: N_6  and  C_7 
REMARK    3  A    between atoms: C_10  and  C_11 
REMARK    4  A    between atoms: C_18  and  N_19 
REMARK       I    between atoms: N_19  and  C_20 
REMARK    5  A    between atoms: C_20  and  C_21 
ROOT
HETATM    1  C   UNL     1      43.174  -8.986  11.607  1.00  0.00     0.139 A 
HETATM    2  N   UNL     1      42.314  -9.307  10.654  1.00  0.00    -0.228 NA
HETATM    3  C   UNL     1      43.061  -9.782   9.600  1.00  0.00     0.088 A 
HETATM    4  C   UNL     1      44.412  -9.747   9.906  1.00  0.00     0.063 A 
HETATM    5  N   UNL     1      44.457  -9.243  11.178  1.00  0.00    -0.338 N 
HETATM    6  H   UNL     1      45.298  -9.058  11.702  1.00  0.00     0.167 HD
HETATM    7  C   UNL     1      42.652 -10.256   8.341  1.00  0.00     0.063 A 
HETATM    8  C   UNL     1      43.627 -10.677   7.426  1.00  0.00     0.037 A 
HETATM    9  C   UNL     1      44.986 -10.622   7.779  1.00  0.00     0.032 A 
HETATM   10  C   UNL     1      45.412 -10.156   9.028  1.00  0.00     0.034 A 
ENDROOT
BRANCH   1  11
HETATM   11  C   UNL     1      42.855  -8.398  12.912  1.00  0.00     0.010 A 
HETATM   12  C   UNL     1      41.868  -8.931  13.750  1.00  0.00     0.017 A 
HETATM   13  C   UNL     1      41.623  -8.386  15.017  1.00  0.00     0.030 A 
HETATM   14  C   UNL     1      42.354  -7.291  15.473  1.00  0.00     0.035 A 
HETATM   15  C   UNL     1      43.315  -6.728  14.628  1.00  0.00     0.030 A 
HETATM   16  C   UNL     1      43.562  -7.276  13.361  1.00  0.00     0.017 A 
BRANCH  14  17
HETATM   17  N   UNL     1      42.191  -6.718  16.749  1.00  0.00    -0.321 N 
HETATM   18  C   UNL     1      41.443  -5.606  17.098  1.00  0.00     0.279 C 
HETATM   19  O   UNL     1      40.804  -4.905  16.319  1.00  0.00    -0.265 OA
HETATM   20  H   UNL     1      42.635  -7.192  17.529  1.00  0.00     0.169 HD
BRANCH  18  21
HETATM   21  C   UNL     1      41.464  -5.338  18.525  1.00  0.00     0.142 A 
HETATM   22  O   UNL     1      42.489  -5.829  19.294  1.00  0.00    -0.317 OA
HETATM   23  C   UNL     1      42.252  -5.434  20.572  1.00  0.00     0.143 A 
HETATM   24  C   UNL     1      41.091  -4.702  20.646  1.00  0.00     0.027 A 
HETATM   25  C   UNL     1      40.583  -4.638  19.327  1.00  0.00     0.045 A 
ENDBRANCH  18  21
ENDBRANCH  14  17
ENDBRANCH   1  11
BRANCH   8  26
HETATM   26  N   UNL     1      43.341 -11.165   6.137  1.00  0.00    -0.321 N 
HETATM   27  C   UNL     1      43.238 -12.476   5.709  1.00  0.00     0.279 C 
HETATM   28  O   UNL     1      43.389 -13.472   6.408  1.00  0.00    -0.265 OA
HETATM   29  H   UNL     1      43.183 -10.478   5.408  1.00  0.00     0.169 HD
BRANCH  27  30
HETATM   30  C   UNL     1      42.923 -12.565   4.292  1.00  0.00     0.142 A 
HETATM   31  O   UNL     1      42.559 -11.429   3.610  1.00  0.00    -0.317 OA
HETATM   32  C   UNL     1      42.321 -11.792   2.324  1.00  0.00     0.143 A 
HETATM   33  C   UNL     1      42.524 -13.142   2.158  1.00  0.00     0.027 A 
HETATM   34  C   UNL     1      42.911 -13.641   3.425  1.00  0.00     0.045 A 
ENDBRANCH  27  30
ENDBRANCH   8  26
TORSDOF 5
ENDMDL
MODEL 8
REMARK VINA RESULT:      -7.4      5.276     11.072
REMARK  5 active torsions:
REMARK  status: ('A' for Active; 'I' for Inactive)
REMARK    1  A    between atoms: C_4  and  C_5 
REMARK       I    between atoms: C_5  and  N_6 
REMARK    2  A    between atoms: N_6  and  C_7 
REMARK    3  A    between atoms: C_10  and  C_11 
REMARK    4  A    between atoms: C_18  and  N_19 
REMARK       I    between atoms: N_19  and  C_20 
REMARK    5  A    between atoms: C_20  and  C_21 
ROOT
HETATM    1  C   UNL     1      41.638 -11.238   5.834  1.00  0.00     0.139 A 
HETATM    2  N   UNL     1      42.411 -11.913   5.001  1.00  0.00    -0.228 NA
HETATM    3  C   UNL     1      42.025 -13.232   5.092  1.00  0.00     0.088 A 
HETATM    4  C   UNL     1      40.993 -13.373   6.008  1.00  0.00     0.063 A 
HETATM    5  N   UNL     1      40.767 -12.101   6.460  1.00  0.00    -0.338 N 
HETATM    6  H   UNL     1      40.092 -11.845   7.164  1.00  0.00     0.167 HD
HETATM    7  C   UNL     1      42.515 -14.369   4.426  1.00  0.00     0.063 A 
HETATM    8  C   UNL     1      41.948 -15.618   4.712  1.00  0.00     0.037 A 
HETATM    9  C   UNL     1      40.906 -15.715   5.649  1.00  0.00     0.032 A 
HETATM   10  C   UNL     1      40.403 -14.594   6.320  1.00  0.00     0.034 A 
ENDROOT
BRANCH   1  11
HETATM   11  C   UNL     1      41.699  -9.800   6.115  1.00  0.00     0.010 A 
HETATM   12  C   UNL     1      41.064  -8.853   5.302  1.00  0.00     0.017 A 
HETATM   13  C   UNL     1      41.090  -7.490   5.624  1.00  0.00     0.030 A 
HETATM   14  C   UNL     1      41.754  -7.041   6.763  1.00  0.00     0.035 A 
HETATM   15  C   UNL     1      42.424  -7.975   7.560  1.00  0.00     0.030 A 
HETATM   16  C   UNL     1      42.396  -9.339   7.239  1.00  0.00     0.017 A 
BRANCH  14  17
HETATM   17  N   UNL     1      41.786  -5.694   7.171  1.00  0.00    -0.321 N 
HETATM   18  C   UNL     1      40.944  -5.051   8.064  1.00  0.00     0.279 C 
HETATM   19  O   UNL     1      39.990  -5.564   8.639  1.00  0.00    -0.265 OA
HETATM   20  H   UNL     1      42.539  -5.118   6.810  1.00  0.00     0.169 HD
BRANCH  18  21
HETATM   21  C   UNL     1      41.312  -3.663   8.287  1.00  0.00     0.142 A 
HETATM   22  O   UNL     1      41.739  -3.265   9.528  1.00  0.00    -0.317 OA
HETATM   23  C   UNL     1      42.007  -1.935   9.449  1.00  0.00     0.143 A 
HETATM   24  C   UNL     1      41.757  -1.465   8.182  1.00  0.00     0.027 A 
HETATM   25  C   UNL     1      41.310  -2.578   7.431  1.00  0.00     0.045 A 
ENDBRANCH  18  21
ENDBRANCH  14  17
ENDBRANCH   1  11
BRANCH   8  26
HETATM   26  N   UNL     1      42.358 -16.825   4.114  1.00  0.00    -0.321 N 
HETATM   27  C   UNL     1      43.533 -17.529   4.300  1.00  0.00     0.279 C 
HETATM   28  O   UNL     1      44.453 -17.206   5.043  1.00  0.00    -0.265 OA
HETATM   29  H   UNL     1      41.718 -17.255   3.455  1.00  0.00     0.169 HD
BRANCH  27  30
HETATM   30  C   UNL     1      43.578 -18.741   3.496  1.00  0.00     0.142 A 
HETATM   31  O   UNL     1      44.015 -19.912   4.067  1.00  0.00    -0.317 OA
HETATM   32  C   UNL     1      43.958 -20.871   3.107  1.00  0.00     0.143 A 
HETATM   33  C   UNL     1      43.493 -20.345   1.926  1.00  0.00     0.027 A 
HETATM   34  C   UNL     1      43.248 -18.973   2.174  1.00  0.00     0.045 A 
ENDBRANCH  27  30
ENDBRANCH   8  26
TORSDOF 5
ENDMDL
MODEL 9
REMARK VINA RESULT:      -7.4     21.301     22.950
REMARK  5 active torsions:
REMARK  status: ('A' for Active; 'I' for Inactive)
REMARK    1  A    between atoms: C_4  and  C_5 
REMARK       I    between atoms: C_5  and  N_6 
REMARK    2  A    between atoms: N_6  and  C_7 
REMARK    3  A    between atoms: C_10  and  C_11 
REMARK    4  A    between atoms: C_18  and  N_19 
REMARK       I    between atoms: N_19  and  C_20 
REMARK    5  A    between atoms: C_20  and  C_21 
ROOT
HETATM    1  C   UNL     1      51.236 -31.526   5.406  1.00  0.00     0.139 A 
HETATM    2  N   UNL     1      52.456 -31.067   5.631  1.00  0.00    -0.228 NA
HETATM    3  C   UNL     1      52.906 -31.697   6.769  1.00  0.00     0.088 A 
HETATM    4  C   UNL     1      51.938 -32.559   7.262  1.00  0.00     0.063 A 
HETATM    5  N   UNL     1      50.896 -32.434   6.384  1.00  0.00    -0.338 N 
HETATM    6  H   UNL     1      50.009 -32.907   6.461  1.00  0.00     0.167 HD
HETATM    7  C   UNL     1      54.131 -31.577   7.448  1.00  0.00     0.063 A 
HETATM    8  C   UNL     1      54.338 -32.333   8.610  1.00  0.00     0.037 A 
HETATM    9  C   UNL     1      53.328 -33.192   9.075  1.00  0.00     0.032 A 
HETATM   10  C   UNL     1      52.103 -33.327   8.411  1.00  0.00     0.034 A 
ENDROOT
BRANCH   1  11
HETATM   11  C   UNL     1      50.333 -31.119   4.324  1.00  0.00     0.010 A 
HETATM   12  C   UNL     1      48.945 -31.046   4.499  1.00  0.00     0.017 A 
HETATM   13  C   UNL     1      48.109 -30.600   3.467  1.00  0.00     0.030 A 
HETATM   14  C   UNL     1      48.640 -30.220   2.236  1.00  0.00     0.035 A 
HETATM   15  C   UNL     1      50.020 -30.327   2.040  1.00  0.00     0.030 A 
HETATM   16  C   UNL     1      50.857 -30.771   3.074  1.00  0.00     0.017 A 
BRANCH  14  17
HETATM   17  N   UNL     1      47.866 -29.723   1.170  1.00  0.00    -0.321 N 
HETATM   18  C   UNL     1      47.325 -28.456   1.025  1.00  0.00     0.279 C 
HETATM   19  O   UNL     1      47.414 -27.546   1.843  1.00  0.00    -0.265 OA
HETATM   20  H   UNL     1      47.713 -30.341   0.380  1.00  0.00     0.169 HD
BRANCH  18  21
HETATM   21  C   UNL     1      46.628 -28.282  -0.237  1.00  0.00     0.142 A 
HETATM   22  O   UNL     1      45.261 -28.388  -0.279  1.00  0.00    -0.317 OA
HETATM   23  C   UNL     1      44.885 -28.187  -1.569  1.00  0.00     0.143 A 
HETATM   24  C   UNL     1      45.983 -27.958  -2.363  1.00  0.00     0.027 A 
HETATM   25  C   UNL     1      47.107 -28.018  -1.506  1.00  0.00     0.045 A 
ENDBRANCH  18  21
ENDBRANCH  14  17
ENDBRANCH   1  11
BRANCH   8  26
HETATM   26  N   UNL     1      55.519 -32.294   9.376  1.00  0.00    -0.321 N 
HETATM   27  C   UNL     1      55.948 -31.319  10.259  1.00  0.00     0.279 C 
HETATM   28  O   UNL     1      55.350 -30.284  10.529  1.00  0.00    -0.265 OA
HETATM   29  H   UNL     1      56.155 -33.079   9.285  1.00  0.00     0.169 HD
BRANCH  27  30
HETATM   30  C   UNL     1      57.230 -31.652  10.859  1.00  0.00     0.142 A 
HETATM   31  O   UNL     1      57.382 -32.860  11.497  1.00  0.00    -0.317 OA
HETATM   32  C   UNL     1      58.657 -32.911  11.961  1.00  0.00     0.143 A 
HETATM   33  C   UNL     1      59.335 -31.761  11.636  1.00  0.00     0.027 A 
HETATM   34  C   UNL     1      58.418 -30.948  10.927  1.00  0.00     0.045 A 
ENDBRANCH  27  30
ENDBRANCH   8  26
TORSDOF 5
ENDMDL
MODEL 10
REMARK VINA RESULT:      -7.3      8.709     13.379
REMARK  5 active torsions:
REMARK  status: ('A' for Active; 'I' for Inactive)
REMARK    1  A    between atoms: C_4  and  C_5 
REMARK       I    between atoms: C_5  and  N_6 
REMARK    2  A    between atoms: N_6  and  C_7 
REMARK    3  A    between atoms: C_10  and  C_11 
REMARK    4  A    between atoms: C_18  and  N_19 
REMARK       I    between atoms: N_19  and  C_20 
REMARK    5  A    between atoms: C_20  and  C_21 
ROOT
HETATM    1  C   UNL     1      39.825 -13.314   0.027  1.00  0.00     0.139 A 
HETATM    2  N   UNL     1      40.234 -12.996  -1.190  1.00  0.00    -0.228 NA
HETATM    3  C   UNL     1      39.345 -12.060  -1.667  1.00  0.00     0.088 A 
HETATM    4  C   UNL     1      38.361 -11.800  -0.725  1.00  0.00     0.063 A 
HETATM    5  N   UNL     1      38.688 -12.601   0.335  1.00  0.00    -0.338 N 
HETATM    6  H   UNL     1      38.160 -12.681   1.189  1.00  0.00     0.167 HD
HETATM    7  C   UNL     1      39.309 -11.391  -2.904  1.00  0.00     0.063 A 
HETATM    8  C   UNL     1      38.273 -10.480  -3.150  1.00  0.00     0.037 A 
HETATM    9  C   UNL     1      37.296 -10.248  -2.168  1.00  0.00     0.032 A 
HETATM   10  C   UNL     1      37.317 -10.902  -0.930  1.00  0.00     0.034 A 
ENDROOT
BRANCH   1  11
HETATM   11  C   UNL     1      40.432 -14.304   0.924  1.00  0.00     0.010 A 
HETATM   12  C   UNL     1      39.766 -14.791   2.056  1.00  0.00     0.017 A 
HETATM   13  C   UNL     1      40.344 -15.779   2.865  1.00  0.00     0.030 A 
HETATM   14  C   UNL     1      41.601 -16.298   2.564  1.00  0.00     0.035 A 
HETATM   15  C   UNL     1      42.289 -15.789   1.459  1.00  0.00     0.030 A 
HETATM   16  C   UNL     1      41.711 -14.803   0.648  1.00  0.00     0.017 A 
BRANCH  14  17
HETATM   17  N   UNL     1      42.224 -17.320   3.306  1.00  0.00    -0.321 N 
HETATM   18  C   UNL     1      43.211 -17.197   4.270  1.00  0.00     0.279 C 
HETATM   19  O   UNL     1      43.735 -16.145   4.623  1.00  0.00    -0.265 OA
HETATM   20  H   UNL     1      41.889 -18.267   3.161  1.00  0.00     0.169 HD
BRANCH  18  21
HETATM   21  C   UNL     1      43.576 -18.469   4.868  1.00  0.00     0.142 A 
HETATM   22  O   UNL     1      43.277 -18.711   6.185  1.00  0.00    -0.317 OA
HETATM   23  C   UNL     1      43.732 -19.959   6.474  1.00  0.00     0.143 A 
HETATM   24  C   UNL     1      44.323 -20.526   5.371  1.00  0.00     0.027 A 
HETATM   25  C   UNL     1      44.223 -19.568   4.335  1.00  0.00     0.045 A 
ENDBRANCH  18  21
ENDBRANCH  14  17
ENDBRANCH   1  11
BRANCH   8  26
HETATM   26  N   UNL     1      38.130  -9.755  -4.350  1.00  0.00    -0.321 N 
HETATM   27  C   UNL     1      38.729  -8.566  -4.721  1.00  0.00     0.279 C 
HETATM   28  O   UNL     1      39.513  -7.916  -4.039  1.00  0.00    -0.265 OA
HETATM   29  H   UNL     1      37.508 -10.143  -5.051  1.00  0.00     0.169 HD
BRANCH  27  30
HETATM   30  C   UNL     1      38.323  -8.141  -6.051  1.00  0.00     0.142 A 
HETATM   31  O   UNL     1      38.705  -6.902  -6.508  1.00  0.00    -0.317 OA
HETATM   32  C   UNL     1      38.196  -6.762  -7.759  1.00  0.00     0.143 A 
HETATM   33  C   UNL     1      37.492  -7.886  -8.123  1.00  0.00     0.027 A 
HETATM   34  C   UNL     1      37.572  -8.774  -7.024  1.00  0.00     0.045 A 
ENDBRANCH  27  30
ENDBRANCH   8  26
TORSDOF 5
ENDMDL
