MODEL 1
REMARK VINA RESULT:      -8.3      0.000      0.000
REMARK  4 active torsions:
REMARK  status: ('A' for Active; 'I' for Inactive)
REMARK    1  A    between atoms: C_2  and  N_3 
REMARK    2  A    between atoms: C_11  and  C_12 
REMARK    3  A    between atoms: C_12  and  N_13 
REMARK    4  A    between atoms: C_16  and  N_17 
ROOT
HETATM    1  N   UNL     1      42.307 -13.983   3.545  1.00  0.00    -0.065 N 
HETATM    2  H   UNL     1      43.263 -13.958   3.918  1.00  0.00     0.280 HD
HETATM    3  C   UNL     1      41.538 -15.106   4.222  1.00  0.00     0.268 C 
HETATM    4  C   UNL     1      42.149 -16.545   4.095  1.00  0.00     0.214 C 
HETATM    5  C   UNL     1      42.076 -17.027   2.637  1.00  0.00     0.035 C 
HETATM    6  C   UNL     1      43.161 -16.558   1.673  1.00  0.00     0.004 C 
HETATM    7  C   UNL     1      43.531 -15.077   1.672  1.00  0.00     0.028 C 
HETATM    8  C   UNL     1      42.421 -14.101   2.033  1.00  0.00     0.235 C 
ENDROOT
BRANCH   1   9
HETATM    9  C   UNL     1      41.773 -12.585   3.964  1.00  0.00     0.276 C 
BRANCH   9  10
HETATM   10  C   UNL     1      42.506 -11.850   5.049  1.00  0.00     0.009 A 
HETATM   11  C   UNL     1      41.855 -11.063   6.008  1.00  0.00     0.136 A 
HETATM   12  N   UNL     1      42.431 -10.398   7.027  1.00  0.00    -0.216 NA
HETATM   13 CL   UNL     1      40.149 -10.806   5.971  1.00  0.00    -0.062 Cl
HETATM   14  C   UNL     1      43.763 -10.580   7.107  1.00  0.00     0.159 A 
HETATM   15  N   UNL     1      44.622 -10.092   8.063  1.00  0.00    -0.248 N 
HETATM   16  C   UNL     1      44.544 -11.331   6.240  1.00  0.00     0.031 A 
HETATM   17  N   UNL     1      45.911 -10.435   7.833  1.00  0.00    -0.182 NA
HETATM   18  C   UNL     1      45.854 -11.203   6.745  1.00  0.00     0.154 A 
HETATM   19  C   UNL     1      43.902 -11.990   5.177  1.00  0.00     0.029 A 
BRANCH  15  20
HETATM   20  C   UNL     1      44.263  -9.319   9.247  1.00  0.00     0.104 C 
HETATM   21  C   UNL     1      44.294  -7.818   8.966  1.00  0.00     0.034 C 
HETATM   22  C   UNL     1      45.152  -9.680  10.438  1.00  0.00     0.034 C 
ENDBRANCH  15  20
ENDBRANCH   9  10
ENDBRANCH   1   9
BRANCH   4  23
HETATM   23  N   UNL     1      43.572 -16.697   4.670  1.00  0.00    -0.065 N 
HETATM   24  H   UNL     1      44.276 -16.309   4.032  1.00  0.00     0.280 HD
HETATM   25  C   UNL     1      43.991 -18.166   4.881  1.00  0.00     0.235 C 
HETATM   26  C   UNL     1      43.483 -18.525   6.266  1.00  0.00     0.029 C 
HETATM   27  C   UNL     1      43.278 -17.208   6.999  1.00  0.00     0.029 C 
HETATM   28  C   UNL     1      43.810 -16.138   6.069  1.00  0.00     0.235 C 
ENDBRANCH   4  23
TORSDOF 4
ENDMDL
MODEL 2
REMARK VINA RESULT:      -8.0      1.735      2.202
REMARK  4 active torsions:
REMARK  status: ('A' for Active; 'I' for Inactive)
REMARK    1  A    between atoms: C_2  and  N_3 
REMARK    2  A    between atoms: C_11  and  C_12 
REMARK    3  A    between atoms: C_12  and  N_13 
REMARK    4  A    between atoms: C_16  and  N_17 
ROOT
HETATM    1  N   UNL     1      42.022 -14.827   4.278  1.00  0.00    -0.065 N 
HETATM    2  H   UNL     1      42.961 -14.828   4.694  1.00  0.00     0.280 HD
HETATM    3  C   UNL     1      41.473 -16.244   4.288  1.00  0.00     0.268 C 
HETATM    4  C   UNL     1      42.332 -17.330   3.552  1.00  0.00     0.214 C 
HETATM    5  C   UNL     1      42.336 -17.068   2.038  1.00  0.00     0.035 C 
HETATM    6  C   UNL     1      43.312 -16.030   1.493  1.00  0.00     0.004 C 
HETATM    7  C   UNL     1      43.409 -14.687   2.214  1.00  0.00     0.028 C 
HETATM    8  C   UNL     1      42.145 -14.193   2.900  1.00  0.00     0.235 C 
ENDROOT
BRANCH   1   9
HETATM    9  C   UNL     1      41.249 -13.902   5.258  1.00  0.00     0.276 C 
BRANCH   9  10
HETATM   10  C   UNL     1      42.043 -12.915   6.066  1.00  0.00     0.009 A 
HETATM   11  C   UNL     1      43.216 -13.261   6.747  1.00  0.00     0.136 A 
HETATM   12  N   UNL     1      44.002 -12.436   7.465  1.00  0.00    -0.216 NA
HETATM   13 CL   UNL     1      43.807 -14.882   6.781  1.00  0.00    -0.062 Cl
HETATM   14  C   UNL     1      43.589 -11.155   7.457  1.00  0.00     0.159 A 
HETATM   15  N   UNL     1      44.203 -10.070   8.038  1.00  0.00    -0.248 N 
HETATM   16  C   UNL     1      42.456 -10.659   6.827  1.00  0.00     0.031 A 
HETATM   17  N   UNL     1      43.507  -8.922   7.869  1.00  0.00    -0.182 NA
HETATM   18  C   UNL     1      42.466  -9.280   7.116  1.00  0.00     0.154 A 
HETATM   19  C   UNL     1      41.655 -11.561   6.106  1.00  0.00     0.029 A 
BRANCH  15  20
HETATM   20  C   UNL     1      45.482 -10.062   8.740  1.00  0.00     0.104 C 
HETATM   21  C   UNL     1      45.320  -9.616  10.192  1.00  0.00     0.034 C 
HETATM   22  C   UNL     1      46.514  -9.205   8.006  1.00  0.00     0.034 C 
ENDBRANCH  15  20
ENDBRANCH   9  10
ENDBRANCH   1   9
BRANCH   4  23
HETATM   23  N   UNL     1      43.763 -17.504   4.100  1.00  0.00    -0.065 N 
HETATM   24  H   UNL     1      44.353 -16.697   3.866  1.00  0.00     0.280 HD
HETATM   25  C   UNL     1      44.499 -18.723   3.506  1.00  0.00     0.235 C 
HETATM   26  C   UNL     1      44.107 -19.890   4.394  1.00  0.00     0.029 C 
HETATM   27  C   UNL     1      43.630 -19.285   5.706  1.00  0.00     0.029 C 
HETATM   28  C   UNL     1      43.896 -17.800   5.590  1.00  0.00     0.235 C 
ENDBRANCH   4  23
TORSDOF 4
ENDMDL
MODEL 3
REMARK VINA RESULT:      -7.7      1.970      7.384
REMARK  4 active torsions:
REMARK  status: ('A' for Active; 'I' for Inactive)
REMARK    1  A    between atoms: C_2  and  N_3 
REMARK    2  A    between atoms: C_11  and  C_12 
REMARK    3  A    between atoms: C_12  and  N_13 
REMARK    4  A    between atoms: C_16  and  N_17 
ROOT
HETATM    1  N   UNL     1      40.328 -11.191   6.773  1.00  0.00    -0.065 N 
HETATM    2  H   UNL     1      40.683 -11.815   7.507  1.00  0.00     0.280 HD
HETATM    3  C   UNL     1      41.499 -10.661   5.961  1.00  0.00     0.268 C 
HETATM    4  C   UNL     1      42.610  -9.893   6.760  1.00  0.00     0.214 C 
HETATM    5  C   UNL     1      42.053  -8.567   7.303  1.00  0.00     0.035 C 
HETATM    6  C   UNL     1      41.249  -8.606   8.599  1.00  0.00     0.004 C 
HETATM    7  C   UNL     1      40.169  -9.676   8.743  1.00  0.00     0.028 C 
HETATM    8  C   UNL     1      39.486 -10.127   7.461  1.00  0.00     0.235 C 
ENDROOT
BRANCH   1   9
HETATM    9  C   UNL     1      39.443 -12.161   5.941  1.00  0.00     0.276 C 
BRANCH   9  10
HETATM   10  C   UNL     1      40.109 -13.348   5.305  1.00  0.00     0.009 A 
HETATM   11  C   UNL     1      40.100 -13.573   3.923  1.00  0.00     0.136 A 
HETATM   12  N   UNL     1      40.695 -14.590   3.270  1.00  0.00    -0.216 NA
HETATM   13 CL   UNL     1      39.246 -12.540   2.836  1.00  0.00    -0.062 Cl
HETATM   14  C   UNL     1      41.387 -15.417   4.076  1.00  0.00     0.159 A 
HETATM   15  N   UNL     1      42.149 -16.502   3.712  1.00  0.00    -0.248 N 
HETATM   16  C   UNL     1      41.495 -15.321   5.456  1.00  0.00     0.031 A 
HETATM   17  N   UNL     1      42.691 -17.141   4.775  1.00  0.00    -0.182 NA
HETATM   18  C   UNL     1      42.312 -16.410   5.823  1.00  0.00     0.154 A 
HETATM   19  C   UNL     1      40.840 -14.256   6.097  1.00  0.00     0.029 A 
BRANCH  15  20
HETATM   20  C   UNL     1      42.428 -16.958   2.354  1.00  0.00     0.104 C 
HETATM   21  C   UNL     1      42.956 -18.391   2.344  1.00  0.00     0.034 C 
HETATM   22  C   UNL     1      43.384 -16.007   1.633  1.00  0.00     0.034 C 
ENDBRANCH  15  20
ENDBRANCH   9  10
ENDBRANCH   1   9
BRANCH   4  23
HETATM   23  N   UNL     1      43.295 -10.716   7.870  1.00  0.00    -0.065 N 
HETATM   24  H   UNL     1      42.664 -10.870   8.665  1.00  0.00     0.280 HD
HETATM   25  C   UNL     1      44.532 -10.018   8.471  1.00  0.00     0.235 C 
HETATM   26  C   UNL     1      45.687 -10.422   7.573  1.00  0.00     0.029 C 
HETATM   27  C   UNL     1      45.242 -11.684   6.849  1.00  0.00     0.029 C 
HETATM   28  C   UNL     1      43.906 -12.051   7.456  1.00  0.00     0.235 C 
ENDBRANCH   4  23
TORSDOF 4
ENDMDL
MODEL 4
REMARK VINA RESULT:      -7.7      2.063      7.411
REMARK  4 active torsions:
REMARK  status: ('A' for Active; 'I' for Inactive)
REMARK    1  A    between atoms: C_2  and  N_3 
REMARK    2  A    between atoms: C_11  and  C_12 
REMARK    3  A    between atoms: C_12  and  N_13 
REMARK    4  A    between atoms: C_16  and  N_17 
ROOT
HETATM    1  N   UNL     1      41.693 -12.178   4.961  1.00  0.00    -0.065 N 
HETATM    2  H   UNL     1      41.912 -12.789   5.756  1.00  0.00     0.280 HD
HETATM    3  C   UNL     1      42.640 -10.989   4.971  1.00  0.00     0.268 C 
HETATM    4  C   UNL     1      42.646 -10.113   6.273  1.00  0.00     0.214 C 
HETATM    5  C   UNL     1      41.307  -9.375   6.422  1.00  0.00     0.035 C 
HETATM    6  C   UNL     1      40.131 -10.138   7.026  1.00  0.00     0.004 C 
HETATM    7  C   UNL     1      39.849 -11.547   6.511  1.00  0.00     0.028 C 
HETATM    8  C   UNL     1      40.216 -11.826   5.062  1.00  0.00     0.235 C 
ENDROOT
BRANCH   1   9
HETATM    9  C   UNL     1      41.967 -13.122   3.757  1.00  0.00     0.276 C 
BRANCH   9  10
HETATM   10  C   UNL     1      42.392 -14.532   4.055  1.00  0.00     0.009 A 
HETATM   11  C   UNL     1      42.964 -15.372   3.091  1.00  0.00     0.136 A 
HETATM   12  N   UNL     1      43.399 -16.632   3.280  1.00  0.00    -0.216 NA
HETATM   13 CL   UNL     1      43.156 -14.878   1.449  1.00  0.00    -0.062 Cl
HETATM   14  C   UNL     1      43.283 -17.058   4.552  1.00  0.00     0.159 A 
HETATM   15  N   UNL     1      43.691 -18.263   5.075  1.00  0.00    -0.248 N 
HETATM   16  C   UNL     1      42.745 -16.345   5.613  1.00  0.00     0.031 A 
HETATM   17  N   UNL     1      43.397 -18.389   6.390  1.00  0.00    -0.182 NA
HETATM   18  C   UNL     1      42.848 -17.218   6.714  1.00  0.00     0.154 A 
HETATM   19  C   UNL     1      42.285 -15.040   5.364  1.00  0.00     0.029 A 
BRANCH  15  20
HETATM   20  C   UNL     1      44.404 -19.325   4.372  1.00  0.00     0.104 C 
HETATM   21  C   UNL     1      43.839 -19.545   2.970  1.00  0.00     0.034 C 
HETATM   22  C   UNL     1      44.407 -20.622   5.181  1.00  0.00     0.034 C 
ENDBRANCH  15  20
ENDBRANCH   9  10
ENDBRANCH   1   9
BRANCH   4  23
HETATM   23  N   UNL     1      43.020 -10.873   7.562  1.00  0.00    -0.065 N 
HETATM   24  H   UNL     1      42.204 -11.346   7.967  1.00  0.00     0.280 HD
HETATM   25  C   UNL     1      43.544  -9.951   8.682  1.00  0.00     0.235 C 
HETATM   26  C   UNL     1      45.034  -9.825   8.422  1.00  0.00     0.029 C 
HETATM   27  C   UNL     1      45.418 -11.015   7.556  1.00  0.00     0.029 C 
HETATM   28  C   UNL     1      44.172 -11.868   7.462  1.00  0.00     0.235 C 
ENDBRANCH   4  23
TORSDOF 4
ENDMDL
MODEL 5
REMARK VINA RESULT:      -7.4      3.684      7.113
REMARK  4 active torsions:
REMARK  status: ('A' for Active; 'I' for Inactive)
REMARK    1  A    between atoms: C_2  and  N_3 
REMARK    2  A    between atoms: C_11  and  C_12 
REMARK    3  A    between atoms: C_12  and  N_13 
REMARK    4  A    between atoms: C_16  and  N_17 
ROOT
HETATM    1  N   UNL     1      41.135 -16.006   2.946  1.00  0.00    -0.065 N 
HETATM    2  H   UNL     1      41.733 -15.207   2.709  1.00  0.00     0.280 HD
HETATM    3  C   UNL     1      40.967 -16.073   4.455  1.00  0.00     0.268 C 
HETATM    4  C   UNL     1      42.285 -16.183   5.299  1.00  0.00     0.214 C 
HETATM    5  C   UNL     1      42.959 -17.542   5.056  1.00  0.00     0.035 C 
HETATM    6  C   UNL     1      43.828 -17.699   3.812  1.00  0.00     0.004 C 
HETATM    7  C   UNL     1      43.276 -17.191   2.481  1.00  0.00     0.028 C 
HETATM    8  C   UNL     1      41.765 -17.238   2.312  1.00  0.00     0.235 C 
ENDROOT
BRANCH   1   9
HETATM    9  C   UNL     1      39.807 -15.623   2.235  1.00  0.00     0.276 C 
BRANCH   9  10
HETATM   10  C   UNL     1      39.862 -14.564   1.171  1.00  0.00     0.009 A 
HETATM   11  C   UNL     1      39.842 -13.194   1.461  1.00  0.00     0.136 A 
HETATM   12  N   UNL     1      39.918 -12.183   0.575  1.00  0.00    -0.216 NA
HETATM   13 CL   UNL     1      39.670 -12.606   3.074  1.00  0.00    -0.062 Cl
HETATM   14  C   UNL     1      40.068 -12.593  -0.699  1.00  0.00     0.159 A 
HETATM   15  N   UNL     1      40.236 -11.812  -1.818  1.00  0.00    -0.248 N 
HETATM   16  C   UNL     1      40.111 -13.907  -1.141  1.00  0.00     0.031 A 
HETATM   17  N   UNL     1      40.327 -12.540  -2.956  1.00  0.00    -0.182 NA
HETATM   18  C   UNL     1      40.275 -13.805  -2.537  1.00  0.00     0.154 A 
HETATM   19  C   UNL     1      40.007 -14.929  -0.182  1.00  0.00     0.029 A 
BRANCH  15  20
HETATM   20  C   UNL     1      40.356 -10.358  -1.861  1.00  0.00     0.104 C 
HETATM   21  C   UNL     1      39.981  -9.806  -3.235  1.00  0.00     0.034 C 
HETATM   22  C   UNL     1      41.753  -9.902  -1.440  1.00  0.00     0.034 C 
ENDBRANCH  15  20
ENDBRANCH   9  10
ENDBRANCH   1   9
BRANCH   4  23
HETATM   23  N   UNL     1      43.276 -15.017   5.106  1.00  0.00    -0.065 N 
HETATM   24  H   UNL     1      43.973 -15.235   4.385  1.00  0.00     0.280 HD
HETATM   25  C   UNL     1      44.097 -14.699   6.372  1.00  0.00     0.235 C 
HETATM   26  C   UNL     1      43.238 -13.730   7.165  1.00  0.00     0.029 C 
HETATM   27  C   UNL     1      42.258 -13.120   6.173  1.00  0.00     0.029 C 
HETATM   28  C   UNL     1      42.674 -13.646   4.816  1.00  0.00     0.235 C 
ENDBRANCH   4  23
TORSDOF 4
ENDMDL
MODEL 6
REMARK VINA RESULT:      -7.3      2.511      7.806
REMARK  4 active torsions:
REMARK  status: ('A' for Active; 'I' for Inactive)
REMARK    1  A    between atoms: C_2  and  N_3 
REMARK    2  A    between atoms: C_11  and  C_12 
REMARK    3  A    between atoms: C_12  and  N_13 
REMARK    4  A    between atoms: C_16  and  N_17 
ROOT
HETATM    1  N   UNL     1      41.300 -10.157   7.395  1.00  0.00    -0.065 N 
HETATM    2  H   UNL     1      41.529 -10.982   7.960  1.00  0.00     0.280 HD
HETATM    3  C   UNL     1      41.957  -8.933   8.012  1.00  0.00     0.268 C 
HETATM    4  C   UNL     1      41.588  -8.621   9.504  1.00  0.00     0.214 C 
HETATM    5  C   UNL     1      40.114  -8.200   9.609  1.00  0.00     0.035 C 
HETATM    6  C   UNL     1      39.056  -9.299   9.652  1.00  0.00     0.004 C 
HETATM    7  C   UNL     1      39.160 -10.437   8.639  1.00  0.00     0.028 C 
HETATM    8  C   UNL     1      39.783 -10.092   7.295  1.00  0.00     0.235 C 
ENDROOT
BRANCH   1   9
HETATM    9  C   UNL     1      41.940 -10.528   6.029  1.00  0.00     0.276 C 
BRANCH   9  10
HETATM   10  C   UNL     1      42.265 -11.972   5.775  1.00  0.00     0.009 A 
HETATM   11  C   UNL     1      43.379 -12.610   6.336  1.00  0.00     0.136 A 
HETATM   12  N   UNL     1      43.726 -13.902   6.187  1.00  0.00    -0.216 NA
HETATM   13 CL   UNL     1      44.524 -11.759   7.308  1.00  0.00    -0.062 Cl
HETATM   14  C   UNL     1      42.853 -14.613   5.447  1.00  0.00     0.159 A 
HETATM   15  N   UNL     1      42.891 -15.958   5.165  1.00  0.00    -0.248 N 
HETATM   16  C   UNL     1      41.708 -14.127   4.833  1.00  0.00     0.031 A 
HETATM   17  N   UNL     1      41.875 -16.354   4.363  1.00  0.00    -0.182 NA
HETATM   18  C   UNL     1      41.151 -15.248   4.186  1.00  0.00     0.154 A 
HETATM   19  C   UNL     1      41.398 -12.766   4.999  1.00  0.00     0.029 A 
BRANCH  15  20
HETATM   20  C   UNL     1      43.857 -16.930   5.667  1.00  0.00     0.104 C 
HETATM   21  C   UNL     1      44.164 -18.002   4.623  1.00  0.00     0.034 C 
HETATM   22  C   UNL     1      43.390 -17.552   6.983  1.00  0.00     0.034 C 
ENDBRANCH  15  20
ENDBRANCH   9  10
ENDBRANCH   1   9
BRANCH   4  23
HETATM   23  N   UNL     1      41.928  -9.745  10.504  1.00  0.00    -0.065 N 
HETATM   24  H   UNL     1      41.259 -10.520  10.436  1.00  0.00     0.280 HD
HETATM   25  C   UNL     1      41.864  -9.290  11.976  1.00  0.00     0.235 C 
HETATM   26  C   UNL     1      43.241  -8.723  12.272  1.00  0.00     0.029 C 
HETATM   27  C   UNL     1      44.178  -9.309  11.226  1.00  0.00     0.029 C 
HETATM   28  C   UNL     1      43.346 -10.306  10.449  1.00  0.00     0.235 C 
ENDBRANCH   4  23
TORSDOF 4
ENDMDL
MODEL 7
REMARK VINA RESULT:      -7.2      1.747      3.446
REMARK  4 active torsions:
REMARK  status: ('A' for Active; 'I' for Inactive)
REMARK    1  A    between atoms: C_2  and  N_3 
REMARK    2  A    between atoms: C_11  and  C_12 
REMARK    3  A    between atoms: C_12  and  N_13 
REMARK    4  A    between atoms: C_16  and  N_17 
ROOT
HETATM    1  N   UNL     1      42.881 -13.299   3.993  1.00  0.00    -0.065 N 
HETATM    2  H   UNL     1      41.901 -13.002   4.073  1.00  0.00     0.280 HD
HETATM    3  C   UNL     1      43.103 -13.916   2.622  1.00  0.00     0.268 C 
HETATM    4  C   UNL     1      42.191 -15.137   2.251  1.00  0.00     0.214 C 
HETATM    5  C   UNL     1      42.536 -16.346   3.135  1.00  0.00     0.035 C 
HETATM    6  C   UNL     1      41.929 -16.408   4.533  1.00  0.00     0.004 C 
HETATM    7  C   UNL     1      41.982 -15.150   5.396  1.00  0.00     0.028 C 
HETATM    8  C   UNL     1      43.165 -14.222   5.169  1.00  0.00     0.235 C 
ENDROOT
BRANCH   1   9
HETATM    9  C   UNL     1      43.629 -11.945   4.144  1.00  0.00     0.276 C 
BRANCH   9  10
HETATM   10  C   UNL     1      43.695 -11.329   5.512  1.00  0.00     0.009 A 
HETATM   11  C   UNL     1      42.564 -10.843   6.181  1.00  0.00     0.136 A 
HETATM   12  N   UNL     1      42.530 -10.306   7.415  1.00  0.00    -0.216 NA
HETATM   13 CL   UNL     1      41.002 -10.840   5.448  1.00  0.00    -0.062 Cl
HETATM   14  C   UNL     1      43.726 -10.299   8.034  1.00  0.00     0.159 A 
HETATM   15  N   UNL     1      44.007  -9.879   9.313  1.00  0.00    -0.248 N 
HETATM   16  C   UNL     1      44.928 -10.748   7.507  1.00  0.00     0.031 A 
HETATM   17  N   UNL     1      45.322  -9.977   9.618  1.00  0.00    -0.182 NA
HETATM   18  C   UNL     1      45.868 -10.525   8.533  1.00  0.00     0.154 A 
HETATM   19  C   UNL     1      44.919 -11.281   6.207  1.00  0.00     0.029 A 
BRANCH  15  20
HETATM   20  C   UNL     1      43.051  -9.406  10.308  1.00  0.00     0.104 C 
HETATM   21  C   UNL     1      43.216  -7.911  10.577  1.00  0.00     0.034 C 
HETATM   22  C   UNL     1      43.146 -10.217  11.601  1.00  0.00     0.034 C 
ENDBRANCH  15  20
ENDBRANCH   9  10
ENDBRANCH   1   9
BRANCH   4  23
HETATM   23  N   UNL     1      40.677 -14.842   2.263  1.00  0.00    -0.065 N 
HETATM   24  H   UNL     1      40.269 -15.020   3.188  1.00  0.00     0.280 HD
HETATM   25  C   UNL     1      39.874 -15.734   1.294  1.00  0.00     0.235 C 
HETATM   26  C   UNL     1      39.922 -15.008  -0.039  1.00  0.00     0.029 C 
HETATM   27  C   UNL     1      40.253 -13.557   0.278  1.00  0.00     0.029 C 
HETATM   28  C   UNL     1      40.244 -13.459   1.788  1.00  0.00     0.235 C 
ENDBRANCH   4  23
TORSDOF 4
ENDMDL
MODEL 8
REMARK VINA RESULT:      -7.1      4.056      7.202
REMARK  4 active torsions:
REMARK  status: ('A' for Active; 'I' for Inactive)
REMARK    1  A    between atoms: C_2  and  N_3 
REMARK    2  A    between atoms: C_11  and  C_12 
REMARK    3  A    between atoms: C_12  and  N_13 
REMARK    4  A    between atoms: C_16  and  N_17 
ROOT
HETATM    1  N   UNL     1      40.425 -14.042   4.791  1.00  0.00    -0.065 N 
HETATM    2  H   UNL     1      39.942 -14.836   4.354  1.00  0.00     0.280 HD
HETATM    3  C   UNL     1      41.880 -14.042   4.351  1.00  0.00     0.268 C 
HETATM    4  C   UNL     1      42.701 -15.343   4.659  1.00  0.00     0.214 C 
HETATM    5  C   UNL     1      42.892 -15.506   6.175  1.00  0.00     0.035 C 
HETATM    6  C   UNL     1      41.751 -16.122   6.979  1.00  0.00     0.004 C 
HETATM    7  C   UNL     1      40.334 -15.611   6.724  1.00  0.00     0.028 C 
HETATM    8  C   UNL     1      40.205 -14.158   6.293  1.00  0.00     0.235 C 
ENDROOT
BRANCH   1   9
HETATM    9  C   UNL     1      39.644 -12.837   4.198  1.00  0.00     0.276 C 
BRANCH   9  10
HETATM   10  C   UNL     1      39.630 -12.677   2.704  1.00  0.00     0.009 A 
HETATM   11  C   UNL     1      39.634 -11.425   2.075  1.00  0.00     0.136 A 
HETATM   12  N   UNL     1      39.654 -11.193   0.749  1.00  0.00    -0.216 NA
HETATM   13 CL   UNL     1      39.572  -9.953   2.972  1.00  0.00    -0.062 Cl
HETATM   14  C   UNL     1      39.717 -12.314   0.005  1.00  0.00     0.159 A 
HETATM   15  N   UNL     1      39.813 -12.410  -1.363  1.00  0.00    -0.248 N 
HETATM   16  C   UNL     1      39.726 -13.617   0.480  1.00  0.00     0.031 A 
HETATM   17  N   UNL     1      39.825 -13.691  -1.799  1.00  0.00    -0.182 NA
HETATM   18  C   UNL     1      39.797 -14.415  -0.679  1.00  0.00     0.154 A 
HETATM   19  C   UNL     1      39.683 -13.812   1.871  1.00  0.00     0.029 A 
BRANCH  15  20
HETATM   20  C   UNL     1      39.934 -11.307  -2.311  1.00  0.00     0.104 C 
HETATM   21  C   UNL     1      38.604 -11.018  -3.005  1.00  0.00     0.034 C 
HETATM   22  C   UNL     1      41.047 -11.565  -3.326  1.00  0.00     0.034 C 
ENDBRANCH  15  20
ENDBRANCH   9  10
ENDBRANCH   1   9
BRANCH   4  23
HETATM   23  N   UNL     1      42.139 -16.629   4.018  1.00  0.00    -0.065 N 
HETATM   24  H   UNL     1      41.345 -16.997   4.554  1.00  0.00     0.280 HD
HETATM   25  C   UNL     1      43.161 -17.784   3.975  1.00  0.00     0.235 C 
HETATM   26  C   UNL     1      43.934 -17.578   2.685  1.00  0.00     0.029 C 
HETATM   27  C   UNL     1      43.059 -16.702   1.800  1.00  0.00     0.029 C 
HETATM   28  C   UNL     1      41.751 -16.549   2.546  1.00  0.00     0.235 C 
ENDBRANCH   4  23
TORSDOF 4
ENDMDL
MODEL 9
REMARK VINA RESULT:      -7.1      3.621      6.796
REMARK  4 active torsions:
REMARK  status: ('A' for Active; 'I' for Inactive)
REMARK    1  A    between atoms: C_2  and  N_3 
REMARK    2  A    between atoms: C_11  and  C_12 
REMARK    3  A    between atoms: C_12  and  N_13 
REMARK    4  A    between atoms: C_16  and  N_17 
ROOT
HETATM    1  N   UNL     1      39.695 -14.286  -0.193  1.00  0.00    -0.065 N 
HETATM    2  H   UNL     1      38.980 -13.710   0.265  1.00  0.00     0.280 HD
HETATM    3  C   UNL     1      41.007 -13.519  -0.221  1.00  0.00     0.268 C 
HETATM    4  C   UNL     1      40.981 -12.119  -0.927  1.00  0.00     0.214 C 
HETATM    5  C   UNL     1      40.752 -12.288  -2.437  1.00  0.00     0.035 C 
HETATM    6  C   UNL     1      39.320 -12.482  -2.927  1.00  0.00     0.004 C 
HETATM    7  C   UNL     1      38.438 -13.487  -2.190  1.00  0.00     0.028 C 
HETATM    8  C   UNL     1      39.147 -14.675  -1.558  1.00  0.00     0.235 C 
ENDROOT
BRANCH   1   9
HETATM    9  C   UNL     1      39.765 -15.512   0.758  1.00  0.00     0.276 C 
BRANCH   9  10
HETATM   10  C   UNL     1      40.600 -15.390   2.000  1.00  0.00     0.009 A 
HETATM   11  C   UNL     1      40.290 -14.504   3.040  1.00  0.00     0.136 A 
HETATM   12  N   UNL     1      40.964 -14.353   4.195  1.00  0.00    -0.216 NA
HETATM   13 CL   UNL     1      38.958 -13.412   2.941  1.00  0.00    -0.062 Cl
HETATM   14  C   UNL     1      42.007 -15.196   4.326  1.00  0.00     0.159 A 
HETATM   15  N   UNL     1      42.847 -15.332   5.406  1.00  0.00    -0.248 N 
HETATM   16  C   UNL     1      42.433 -16.128   3.391  1.00  0.00     0.031 A 
HETATM   17  N   UNL     1      43.818 -16.253   5.201  1.00  0.00    -0.182 NA
HETATM   18  C   UNL     1      43.548 -16.747   3.992  1.00  0.00     0.154 A 
HETATM   19  C   UNL     1      41.711 -16.235   2.190  1.00  0.00     0.029 A 
BRANCH  15  20
HETATM   20  C   UNL     1      42.749 -14.634   6.683  1.00  0.00     0.104 C 
HETATM   21  C   UNL     1      43.714 -13.451   6.749  1.00  0.00     0.034 C 
HETATM   22  C   UNL     1      42.959 -15.590   7.858  1.00  0.00     0.034 C 
ENDBRANCH  15  20
ENDBRANCH   9  10
ENDBRANCH   1   9
BRANCH   4  23
HETATM   23  N   UNL     1      39.994 -11.104  -0.315  1.00  0.00    -0.065 N 
HETATM   24  H   UNL     1      39.021 -11.360  -0.519  1.00  0.00     0.280 HD
HETATM   25  C   UNL     1      40.158  -9.678  -0.879  1.00  0.00     0.235 C 
HETATM   26  C   UNL     1      41.227  -9.034  -0.015  1.00  0.00     0.029 C 
HETATM   27  C   UNL     1      41.272  -9.837   1.277  1.00  0.00     0.029 C 
HETATM   28  C   UNL     1      40.132 -10.828   1.179  1.00  0.00     0.235 C 
ENDBRANCH   4  23
TORSDOF 4
ENDMDL
MODEL 10
REMARK VINA RESULT:      -7.1      2.221      7.789
REMARK  4 active torsions:
REMARK  status: ('A' for Active; 'I' for Inactive)
REMARK    1  A    between atoms: C_2  and  N_3 
REMARK    2  A    between atoms: C_11  and  C_12 
REMARK    3  A    between atoms: C_12  and  N_13 
REMARK    4  A    between atoms: C_16  and  N_17 
ROOT
HETATM    1  N   UNL     1      42.270 -10.338   7.144  1.00  0.00    -0.065 N 
HETATM    2  H   UNL     1      42.268 -11.124   7.804  1.00  0.00     0.280 HD
HETATM    3  C   UNL     1      42.737  -9.084   7.866  1.00  0.00     0.268 C 
HETATM    4  C   UNL     1      41.910  -8.659   9.130  1.00  0.00     0.214 C 
HETATM    5  C   UNL     1      40.501  -8.207   8.716  1.00  0.00     0.035 C 
HETATM    6  C   UNL     1      39.446  -9.282   8.476  1.00  0.00     0.004 C 
HETATM    7  C   UNL     1      39.831 -10.491   7.628  1.00  0.00     0.028 C 
HETATM    8  C   UNL     1      40.874 -10.255   6.545  1.00  0.00     0.235 C 
ENDROOT
BRANCH   1   9
HETATM    9  C   UNL     1      43.308 -10.817   6.092  1.00  0.00     0.276 C 
BRANCH   9  10
HETATM   10  C   UNL     1      43.200 -12.229   5.592  1.00  0.00     0.009 A 
HETATM   11  C   UNL     1      43.059 -12.546   4.235  1.00  0.00     0.136 A 
HETATM   12  N   UNL     1      42.986 -13.780   3.701  1.00  0.00    -0.216 NA
HETATM   13 CL   UNL     1      42.916 -11.325   3.024  1.00  0.00    -0.062 Cl
HETATM   14  C   UNL     1      43.108 -14.768   4.608  1.00  0.00     0.159 A 
HETATM   15  N   UNL     1      43.137 -16.123   4.374  1.00  0.00    -0.248 N 
HETATM   16  C   UNL     1      43.258 -14.614   5.978  1.00  0.00     0.031 A 
HETATM   17  N   UNL     1      43.239 -16.848   5.513  1.00  0.00    -0.182 NA
HETATM   18  C   UNL     1      43.336 -15.930   6.475  1.00  0.00     0.154 A 
HETATM   19  C   UNL     1      43.308 -13.307   6.493  1.00  0.00     0.029 A 
BRANCH  15  20
HETATM   20  C   UNL     1      43.109 -16.787   3.076  1.00  0.00     0.104 C 
HETATM   21  C   UNL     1      41.708 -16.767   2.468  1.00  0.00     0.034 C 
HETATM   22  C   UNL     1      43.655 -18.213   3.168  1.00  0.00     0.034 C 
ENDBRANCH  15  20
ENDBRANCH   9  10
ENDBRANCH   1   9
BRANCH   4  23
HETATM   23  N   UNL     1      41.859  -9.714  10.254  1.00  0.00    -0.065 N 
HETATM   24  H   UNL     1      41.194 -10.463  10.033  1.00  0.00     0.280 HD
HETATM   25  C   UNL     1      41.383  -9.141  11.605  1.00  0.00     0.235 C 
HETATM   26  C   UNL     1      42.639  -8.611  12.273  1.00  0.00     0.029 C 
HETATM   27  C   UNL     1      43.808  -9.317  11.602  1.00  0.00     0.029 C 
HETATM   28  C   UNL     1      43.188 -10.336  10.671  1.00  0.00     0.235 C 
ENDBRANCH   4  23
TORSDOF 4
ENDMDL
