MODEL 1
REMARK VINA RESULT:      -9.0      0.000      0.000
REMARK  9 active torsions:
REMARK  status: ('A' for Active; 'I' for Inactive)
REMARK    1  A    between atoms: C_2  and  C_3 
REMARK    2  A    between atoms: C_3  and  O_4 
REMARK    3  A    between atoms: O_4  and  C_5 
REMARK    4  A    between atoms: C_8  and  C_9 
REMARK       I    between atoms: C_9  and  N_10 
REMARK    5  A    between atoms: N_10  and  C_11 
REMARK    6  A    between atoms: C_11  and  N_12 
REMARK    7  A    between atoms: N_12  and  C_13 
REMARK    8  A    between atoms: C_15  and  C_16 
REMARK    9  A    between atoms: C_25  and  O_26 
ROOT
HETATM    1  C   UNL     1      42.537 -12.542   5.320  1.00  0.00     0.035 A 
HETATM    2  C   UNL     1      42.768 -13.916   5.177  1.00  0.00     0.046 A 
HETATM    3  C   UNL     1      42.789 -14.532   3.910  1.00  0.00     0.036 A 
HETATM    4  C   UNL     1      42.553 -13.729   2.779  1.00  0.00     0.084 A 
HETATM    5  C   UNL     1      42.275 -12.359   2.909  1.00  0.00    -0.026 A 
HETATM    6  C   UNL     1      41.968 -11.507   1.707  1.00  0.00     0.051 C 
HETATM    7  C   UNL     1      42.246 -11.783   4.187  1.00  0.00     0.039 A 
ENDROOT
BRANCH   1   8
HETATM    8  N   UNL     1      42.601 -12.002   6.622  1.00  0.00    -0.333 N 
HETATM    9  H   UNL     1      42.596 -12.673   7.386  1.00  0.00     0.168 HD
BRANCH   8  10
HETATM   10  C   UNL     1      42.820 -10.711   7.056  1.00  0.00     0.179 C 
HETATM   11  S   UNL     1      41.496  -9.696   7.096  1.00  0.00    -0.040 SA
BRANCH  10  12
HETATM   12  N   UNL     1      44.099 -10.438   7.519  1.00  0.00    -0.299 N 
HETATM   13  C   UNL     1      44.684 -10.414   8.778  1.00  0.00     0.257 C 
HETATM   14  O   UNL     1      45.820 -10.874   8.903  1.00  0.00    -0.267 OA
HETATM   15  H   UNL     1      44.799 -10.805   6.886  1.00  0.00     0.171 HD
BRANCH  13  16
HETATM   16  C   UNL     1      43.995  -9.886   9.973  1.00  0.00     0.032 A 
HETATM   17  C   UNL     1      43.726 -10.794  11.005  1.00  0.00     0.020 A 
HETATM   18  C   UNL     1      43.181 -10.353  12.212  1.00  0.00     0.038 A 
HETATM   19  C   UNL     1      42.926  -8.996  12.408  1.00  0.00     0.068 A 
HETATM   20  C   UNL     1      43.182  -8.092  11.370  1.00  0.00     0.038 A 
HETATM   21  C   UNL     1      43.727  -8.529  10.153  1.00  0.00     0.020 A 
BRANCH  19  22
HETATM   22  O   UNL     1      42.441  -8.441  13.564  1.00  0.00    -0.351 OA
BRANCH  22  23
HETATM   23  C   UNL     1      41.301  -9.081  14.144  1.00  0.00     0.175 C 
BRANCH  23  24
HETATM   24  C   UNL     1      40.097  -8.918  13.220  1.00  0.00     0.022 C 
HETATM   25  C   UNL     1      39.553 -10.256  12.740  1.00  0.00     0.007 C 
ENDBRANCH  23  24
ENDBRANCH  22  23
ENDBRANCH  19  22
ENDBRANCH  13  16
ENDBRANCH  10  12
ENDBRANCH   8  10
ENDBRANCH   1   8
BRANCH   3  26
HETATM   26  C   UNL     1      43.125 -15.965   3.855  1.00  0.00     0.112 A 
HETATM   27  S   UNL     1      43.845 -16.768   5.197  1.00  0.00    -0.067 SA
HETATM   28  C   UNL     1      43.815 -18.257   4.337  1.00  0.00     0.035 A 
HETATM   29  C   UNL     1      43.300 -18.031   3.061  1.00  0.00     0.075 A 
HETATM   30  C   UNL     1      44.216 -19.535   4.761  1.00  0.00     0.021 A 
HETATM   31  N   UNL     1      42.936 -16.722   2.793  1.00  0.00    -0.239 NA
HETATM   32  C   UNL     1      43.186 -19.120   2.173  1.00  0.00     0.033 A 
HETATM   33  C   UNL     1      43.579 -20.398   2.586  1.00  0.00     0.002 A 
HETATM   34  C   UNL     1      44.086 -20.601   3.865  1.00  0.00     0.002 A 
ENDBRANCH   3  26
BRANCH   4  35
HETATM   35  O   UNL     1      42.606 -14.211   1.496  1.00  0.00    -0.359 OA
HETATM   36  H   UNL     1      43.344 -13.799   1.017  1.00  0.00     0.218 HD
ENDBRANCH   4  35
TORSDOF 9
ENDMDL
MODEL 2
REMARK VINA RESULT:      -8.9      4.143      6.345
REMARK  9 active torsions:
REMARK  status: ('A' for Active; 'I' for Inactive)
REMARK    1  A    between atoms: C_2  and  C_3 
REMARK    2  A    between atoms: C_3  and  O_4 
REMARK    3  A    between atoms: O_4  and  C_5 
REMARK    4  A    between atoms: C_8  and  C_9 
REMARK       I    between atoms: C_9  and  N_10 
REMARK    5  A    between atoms: N_10  and  C_11 
REMARK    6  A    between atoms: C_11  and  N_12 
REMARK    7  A    between atoms: N_12  and  C_13 
REMARK    8  A    between atoms: C_15  and  C_16 
REMARK    9  A    between atoms: C_25  and  O_26 
ROOT
HETATM    1  C   UNL     1      38.984 -12.488   3.033  1.00  0.00     0.035 A 
HETATM    2  C   UNL     1      39.853 -13.580   2.926  1.00  0.00     0.046 A 
HETATM    3  C   UNL     1      40.559 -14.074   4.041  1.00  0.00     0.036 A 
HETATM    4  C   UNL     1      40.382 -13.425   5.277  1.00  0.00     0.084 A 
HETATM    5  C   UNL     1      39.551 -12.300   5.392  1.00  0.00    -0.026 A 
HETATM    6  C   UNL     1      39.401 -11.569   6.698  1.00  0.00     0.051 C 
HETATM    7  C   UNL     1      38.876 -11.826   4.257  1.00  0.00     0.039 A 
ENDROOT
BRANCH   1   8
HETATM    8  N   UNL     1      38.270 -12.106   1.878  1.00  0.00    -0.333 N 
HETATM    9  H   UNL     1      37.263 -12.241   1.910  1.00  0.00     0.168 HD
BRANCH   8  10
HETATM   10  C   UNL     1      38.676 -11.436   0.743  1.00  0.00     0.179 C 
HETATM   11  S   UNL     1      38.655 -12.296  -0.688  1.00  0.00    -0.040 SA
BRANCH  10  12
HETATM   12  N   UNL     1      38.949 -10.085   0.904  1.00  0.00    -0.299 N 
HETATM   13  C   UNL     1      40.096  -9.362   1.201  1.00  0.00     0.257 C 
HETATM   14  O   UNL     1      40.293  -8.305   0.600  1.00  0.00    -0.267 OA
HETATM   15  H   UNL     1      38.425  -9.528   0.240  1.00  0.00     0.171 HD
BRANCH  13  16
HETATM   16  C   UNL     1      41.100  -9.818   2.184  1.00  0.00     0.032 A 
HETATM   17  C   UNL     1      41.042  -9.250   3.463  1.00  0.00     0.020 A 
HETATM   18  C   UNL     1      41.881  -9.708   4.481  1.00  0.00     0.038 A 
HETATM   19  C   UNL     1      42.767 -10.757   4.235  1.00  0.00     0.068 A 
HETATM   20  C   UNL     1      42.834 -11.313   2.952  1.00  0.00     0.038 A 
HETATM   21  C   UNL     1      41.996 -10.856   1.925  1.00  0.00     0.020 A 
BRANCH  19  22
HETATM   22  O   UNL     1      43.600 -11.322   5.165  1.00  0.00    -0.351 OA
BRANCH  22  23
HETATM   23  C   UNL     1      43.248 -11.120   6.536  1.00  0.00     0.175 C 
BRANCH  23  24
HETATM   24  C   UNL     1      44.508 -11.145   7.397  1.00  0.00     0.022 C 
HETATM   25  C   UNL     1      45.774 -11.276   6.562  1.00  0.00     0.007 C 
ENDBRANCH  23  24
ENDBRANCH  22  23
ENDBRANCH  19  22
ENDBRANCH  13  16
ENDBRANCH  10  12
ENDBRANCH   8  10
ENDBRANCH   1   8
BRANCH   3  26
HETATM   26  C   UNL     1      41.381 -15.280   3.847  1.00  0.00     0.112 A 
HETATM   27  S   UNL     1      41.246 -16.237   2.423  1.00  0.00    -0.067 SA
HETATM   28  C   UNL     1      42.495 -17.275   2.987  1.00  0.00     0.035 A 
HETATM   29  C   UNL     1      42.900 -16.849   4.252  1.00  0.00     0.075 A 
HETATM   30  C   UNL     1      43.077 -18.387   2.355  1.00  0.00     0.021 A 
HETATM   31  N   UNL     1      42.242 -15.731   4.737  1.00  0.00    -0.239 NA
HETATM   32  C   UNL     1      43.920 -17.562   4.913  1.00  0.00     0.033 A 
HETATM   33  C   UNL     1      44.511 -18.669   4.293  1.00  0.00     0.002 A 
HETATM   34  C   UNL     1      44.094 -19.073   3.028  1.00  0.00     0.002 A 
ENDBRANCH   3  26
BRANCH   4  35
HETATM   35  O   UNL     1      40.974 -13.853   6.438  1.00  0.00    -0.359 OA
HETATM   36  H   UNL     1      40.734 -13.261   7.170  1.00  0.00     0.218 HD
ENDBRANCH   4  35
TORSDOF 9
ENDMDL
MODEL 3
REMARK VINA RESULT:      -8.8      3.562      9.485
REMARK  9 active torsions:
REMARK  status: ('A' for Active; 'I' for Inactive)
REMARK    1  A    between atoms: C_2  and  C_3 
REMARK    2  A    between atoms: C_3  and  O_4 
REMARK    3  A    between atoms: O_4  and  C_5 
REMARK    4  A    between atoms: C_8  and  C_9 
REMARK       I    between atoms: C_9  and  N_10 
REMARK    5  A    between atoms: N_10  and  C_11 
REMARK    6  A    between atoms: C_11  and  N_12 
REMARK    7  A    between atoms: N_12  and  C_13 
REMARK    8  A    between atoms: C_15  and  C_16 
REMARK    9  A    between atoms: C_25  and  O_26 
ROOT
HETATM    1  C   UNL     1      40.352 -13.297   4.089  1.00  0.00     0.035 A 
HETATM    2  C   UNL     1      41.088 -12.339   4.796  1.00  0.00     0.046 A 
HETATM    3  C   UNL     1      41.861 -12.686   5.923  1.00  0.00     0.036 A 
HETATM    4  C   UNL     1      41.862 -14.031   6.336  1.00  0.00     0.084 A 
HETATM    5  C   UNL     1      41.093 -14.995   5.665  1.00  0.00    -0.026 A 
HETATM    6  C   UNL     1      41.048 -16.424   6.136  1.00  0.00     0.051 C 
HETATM    7  C   UNL     1      40.324 -14.611   4.558  1.00  0.00     0.039 A 
ENDROOT
BRANCH   1   8
HETATM    8  N   UNL     1      39.662 -12.869   2.935  1.00  0.00    -0.333 N 
HETATM    9  H   UNL     1      38.647 -12.884   2.989  1.00  0.00     0.168 HD
BRANCH   8  10
HETATM   10  C   UNL     1      40.120 -12.285   1.772  1.00  0.00     0.179 C 
HETATM   11  S   UNL     1      40.683 -10.717   1.888  1.00  0.00    -0.040 SA
BRANCH  10  12
HETATM   12  N   UNL     1      40.163 -13.110   0.659  1.00  0.00    -0.299 N 
HETATM   13  C   UNL     1      40.353 -14.473   0.475  1.00  0.00     0.257 C 
HETATM   14  O   UNL     1      39.664 -15.052  -0.366  1.00  0.00    -0.267 OA
HETATM   15  H   UNL     1      39.481 -12.823  -0.033  1.00  0.00     0.171 HD
BRANCH  13  16
HETATM   16  C   UNL     1      41.325 -15.261   1.262  1.00  0.00     0.032 A 
HETATM   17  C   UNL     1      42.551 -14.651   1.554  1.00  0.00     0.020 A 
HETATM   18  C   UNL     1      43.476 -15.283   2.386  1.00  0.00     0.038 A 
HETATM   19  C   UNL     1      43.172 -16.519   2.955  1.00  0.00     0.068 A 
HETATM   20  C   UNL     1      41.952 -17.134   2.650  1.00  0.00     0.038 A 
HETATM   21  C   UNL     1      41.019 -16.506   1.813  1.00  0.00     0.020 A 
BRANCH  19  22
HETATM   22  O   UNL     1      43.977 -17.209   3.824  1.00  0.00    -0.351 OA
BRANCH  22  23
HETATM   23  C   UNL     1      43.967 -18.634   3.701  1.00  0.00     0.175 C 
BRANCH  23  24
HETATM   24  C   UNL     1      44.063 -19.267   5.087  1.00  0.00     0.022 C 
HETATM   25  C   UNL     1      43.995 -20.787   5.031  1.00  0.00     0.007 C 
ENDBRANCH  23  24
ENDBRANCH  22  23
ENDBRANCH  19  22
ENDBRANCH  13  16
ENDBRANCH  10  12
ENDBRANCH   8  10
ENDBRANCH   1   8
BRANCH   3  26
HETATM   26  C   UNL     1      42.668 -11.625   6.548  1.00  0.00     0.112 A 
HETATM   27  S   UNL     1      41.969 -10.120   7.006  1.00  0.00    -0.067 SA
HETATM   28  C   UNL     1      43.480  -9.598   7.641  1.00  0.00     0.035 A 
HETATM   29  C   UNL     1      44.432 -10.592   7.416  1.00  0.00     0.075 A 
HETATM   30  C   UNL     1      43.800  -8.395   8.293  1.00  0.00     0.021 A 
HETATM   31  N   UNL     1      43.962 -11.726   6.774  1.00  0.00    -0.239 NA
HETATM   32  C   UNL     1      45.753 -10.376   7.855  1.00  0.00     0.033 A 
HETATM   33  C   UNL     1      46.084  -9.184   8.509  1.00  0.00     0.002 A 
HETATM   34  C   UNL     1      45.116  -8.208   8.726  1.00  0.00     0.002 A 
ENDBRANCH   3  26
BRANCH   4  35
HETATM   35  O   UNL     1      42.620 -14.491   7.382  1.00  0.00    -0.359 OA
HETATM   36  H   UNL     1      43.020 -13.743   7.856  1.00  0.00     0.218 HD
ENDBRANCH   4  35
TORSDOF 9
ENDMDL
MODEL 4
REMARK VINA RESULT:      -8.6      2.904     10.211
REMARK  9 active torsions:
REMARK  status: ('A' for Active; 'I' for Inactive)
REMARK    1  A    between atoms: C_2  and  C_3 
REMARK    2  A    between atoms: C_3  and  O_4 
REMARK    3  A    between atoms: O_4  and  C_5 
REMARK    4  A    between atoms: C_8  and  C_9 
REMARK       I    between atoms: C_9  and  N_10 
REMARK    5  A    between atoms: N_10  and  C_11 
REMARK    6  A    between atoms: C_11  and  N_12 
REMARK    7  A    between atoms: N_12  and  C_13 
REMARK    8  A    between atoms: C_15  and  C_16 
REMARK    9  A    between atoms: C_25  and  O_26 
ROOT
HETATM    1  C   UNL     1      42.265 -11.916   4.013  1.00  0.00     0.035 A 
HETATM    2  C   UNL     1      42.182 -10.858   4.927  1.00  0.00     0.046 A 
HETATM    3  C   UNL     1      42.630 -10.995   6.256  1.00  0.00     0.036 A 
HETATM    4  C   UNL     1      43.152 -12.239   6.655  1.00  0.00     0.084 A 
HETATM    5  C   UNL     1      43.199 -13.323   5.764  1.00  0.00    -0.026 A 
HETATM    6  C   UNL     1      43.705 -14.671   6.200  1.00  0.00     0.051 C 
HETATM    7  C   UNL     1      42.730 -13.155   4.453  1.00  0.00     0.039 A 
ENDROOT
BRANCH   1   8
HETATM    8  N   UNL     1      41.855 -11.666   2.687  1.00  0.00    -0.333 N 
HETATM    9  H   UNL     1      42.556 -11.266   2.069  1.00  0.00     0.168 HD
BRANCH   8  10
HETATM   10  C   UNL     1      40.695 -12.003   2.019  1.00  0.00     0.179 C 
HETATM   11  S   UNL     1      39.290 -11.259   2.528  1.00  0.00    -0.040 SA
BRANCH  10  12
HETATM   12  N   UNL     1      40.851 -12.840   0.925  1.00  0.00    -0.299 N 
HETATM   13  C   UNL     1      40.894 -14.218   0.763  1.00  0.00     0.257 C 
HETATM   14  O   UNL     1      40.316 -14.712  -0.206  1.00  0.00    -0.267 OA
HETATM   15  H   UNL     1      40.363 -12.474   0.116  1.00  0.00     0.171 HD
BRANCH  13  16
HETATM   16  C   UNL     1      41.580 -15.117   1.715  1.00  0.00     0.032 A 
HETATM   17  C   UNL     1      40.815 -15.629   2.770  1.00  0.00     0.020 A 
HETATM   18  C   UNL     1      41.357 -16.572   3.645  1.00  0.00     0.038 A 
HETATM   19  C   UNL     1      42.660 -17.031   3.456  1.00  0.00     0.068 A 
HETATM   20  C   UNL     1      43.427 -16.507   2.409  1.00  0.00     0.038 A 
HETATM   21  C   UNL     1      42.890 -15.558   1.528  1.00  0.00     0.020 A 
BRANCH  19  22
HETATM   22  O   UNL     1      43.279 -17.988   4.218  1.00  0.00    -0.351 OA
BRANCH  22  23
HETATM   23  C   UNL     1      44.316 -18.735   3.576  1.00  0.00     0.175 C 
BRANCH  23  24
HETATM   24  C   UNL     1      43.822 -20.150   3.285  1.00  0.00     0.022 C 
HETATM   25  C   UNL     1      43.299 -20.296   1.863  1.00  0.00     0.007 C 
ENDBRANCH  23  24
ENDBRANCH  22  23
ENDBRANCH  19  22
ENDBRANCH  13  16
ENDBRANCH  10  12
ENDBRANCH   8  10
ENDBRANCH   1   8
BRANCH   3  26
HETATM   26  C   UNL     1      42.582  -9.801   7.117  1.00  0.00     0.112 A 
HETATM   27  S   UNL     1      41.855  -8.337   6.578  1.00  0.00    -0.067 SA
HETATM   28  C   UNL     1      42.172  -7.605   8.102  1.00  0.00     0.035 A 
HETATM   29  C   UNL     1      42.857  -8.514   8.906  1.00  0.00     0.075 A 
HETATM   30  C   UNL     1      41.836  -6.317   8.554  1.00  0.00     0.021 A 
HETATM   31  N   UNL     1      43.103  -9.748   8.326  1.00  0.00    -0.239 NA
HETATM   32  C   UNL     1      43.225  -8.124  10.209  1.00  0.00     0.033 A 
HETATM   33  C   UNL     1      42.894  -6.846  10.673  1.00  0.00     0.002 A 
HETATM   34  C   UNL     1      42.206  -5.956   9.854  1.00  0.00     0.002 A 
ENDBRANCH   3  26
BRANCH   4  35
HETATM   35  O   UNL     1      43.668 -12.468   7.904  1.00  0.00    -0.359 OA
HETATM   36  H   UNL     1      43.730 -11.632   8.396  1.00  0.00     0.218 HD
ENDBRANCH   4  35
TORSDOF 9
ENDMDL
MODEL 5
REMARK VINA RESULT:      -8.6      1.527      2.003
REMARK  9 active torsions:
REMARK  status: ('A' for Active; 'I' for Inactive)
REMARK    1  A    between atoms: C_2  and  C_3 
REMARK    2  A    between atoms: C_3  and  O_4 
REMARK    3  A    between atoms: O_4  and  C_5 
REMARK    4  A    between atoms: C_8  and  C_9 
REMARK       I    between atoms: C_9  and  N_10 
REMARK    5  A    between atoms: N_10  and  C_11 
REMARK    6  A    between atoms: C_11  and  N_12 
REMARK    7  A    between atoms: N_12  and  C_13 
REMARK    8  A    between atoms: C_15  and  C_16 
REMARK    9  A    between atoms: C_25  and  O_26 
ROOT
HETATM    1  C   UNL     1      42.917 -12.377   3.936  1.00  0.00     0.035 A 
HETATM    2  C   UNL     1      43.130 -13.753   4.078  1.00  0.00     0.046 A 
HETATM    3  C   UNL     1      42.760 -14.664   3.068  1.00  0.00     0.036 A 
HETATM    4  C   UNL     1      42.148 -14.155   1.908  1.00  0.00     0.084 A 
HETATM    5  C   UNL     1      41.886 -12.783   1.771  1.00  0.00    -0.026 A 
HETATM    6  C   UNL     1      41.183 -12.240   0.556  1.00  0.00     0.051 C 
HETATM    7  C   UNL     1      42.254 -11.907   2.802  1.00  0.00     0.039 A 
ENDROOT
BRANCH   1   8
HETATM    8  N   UNL     1      43.381 -11.535   4.969  1.00  0.00    -0.333 N 
HETATM    9  H   UNL     1      43.056 -10.572   4.942  1.00  0.00     0.168 HD
BRANCH   8  10
HETATM   10  C   UNL     1      44.095 -11.818   6.115  1.00  0.00     0.179 C 
HETATM   11  S   UNL     1      43.490 -13.021   7.101  1.00  0.00    -0.040 SA
BRANCH  10  12
HETATM   12  N   UNL     1      45.299 -11.145   6.258  1.00  0.00    -0.299 N 
HETATM   13  C   UNL     1      45.984 -10.616   7.344  1.00  0.00     0.257 C 
HETATM   14  O   UNL     1      47.207 -10.756   7.388  1.00  0.00    -0.267 OA
HETATM   15  H   UNL     1      46.002 -11.523   5.635  1.00  0.00     0.171 HD
BRANCH  13  16
HETATM   16  C   UNL     1      45.309  -9.916   8.456  1.00  0.00     0.032 A 
HETATM   17  C   UNL     1      44.735  -8.671   8.170  1.00  0.00     0.020 A 
HETATM   18  C   UNL     1      43.982  -8.000   9.135  1.00  0.00     0.038 A 
HETATM   19  C   UNL     1      43.774  -8.580  10.386  1.00  0.00     0.068 A 
HETATM   20  C   UNL     1      44.360  -9.819  10.674  1.00  0.00     0.038 A 
HETATM   21  C   UNL     1      45.120 -10.497   9.710  1.00  0.00     0.020 A 
BRANCH  19  22
HETATM   22  O   UNL     1      43.015  -8.041  11.391  1.00  0.00    -0.351 OA
BRANCH  22  23
HETATM   23  C   UNL     1      43.420  -8.350  12.727  1.00  0.00     0.175 C 
BRANCH  23  24
HETATM   24  C   UNL     1      42.667  -7.457  13.710  1.00  0.00     0.022 C 
HETATM   25  C   UNL     1      41.955  -8.261  14.788  1.00  0.00     0.007 C 
ENDBRANCH  23  24
ENDBRANCH  22  23
ENDBRANCH  19  22
ENDBRANCH  13  16
ENDBRANCH  10  12
ENDBRANCH   8  10
ENDBRANCH   1   8
BRANCH   3  26
HETATM   26  C   UNL     1      43.103 -16.082   3.272  1.00  0.00     0.112 A 
HETATM   27  S   UNL     1      43.716 -16.648   4.777  1.00  0.00    -0.067 SA
HETATM   28  C   UNL     1      43.757 -18.256   4.169  1.00  0.00     0.035 A 
HETATM   29  C   UNL     1      43.345 -18.246   2.837  1.00  0.00     0.075 A 
HETATM   30  C   UNL     1      44.127 -19.443   4.824  1.00  0.00     0.021 A 
HETATM   31  N   UNL     1      43.000 -17.002   2.335  1.00  0.00    -0.239 NA
HETATM   32  C   UNL     1      43.304 -19.465   2.131  1.00  0.00     0.033 A 
HETATM   33  C   UNL     1      43.666 -20.654   2.774  1.00  0.00     0.002 A 
HETATM   34  C   UNL     1      44.070 -20.641   4.105  1.00  0.00     0.002 A 
ENDBRANCH   3  26
BRANCH   4  35
HETATM   35  O   UNL     1      41.799 -14.942   0.840  1.00  0.00    -0.359 OA
HETATM   36  H   UNL     1      41.236 -15.675   1.139  1.00  0.00     0.218 HD
ENDBRANCH   4  35
TORSDOF 9
ENDMDL
MODEL 6
REMARK VINA RESULT:      -8.6      3.937      6.214
REMARK  9 active torsions:
REMARK  status: ('A' for Active; 'I' for Inactive)
REMARK    1  A    between atoms: C_2  and  C_3 
REMARK    2  A    between atoms: C_3  and  O_4 
REMARK    3  A    between atoms: O_4  and  C_5 
REMARK    4  A    between atoms: C_8  and  C_9 
REMARK       I    between atoms: C_9  and  N_10 
REMARK    5  A    between atoms: N_10  and  C_11 
REMARK    6  A    between atoms: C_11  and  N_12 
REMARK    7  A    between atoms: N_12  and  C_13 
REMARK    8  A    between atoms: C_15  and  C_16 
REMARK    9  A    between atoms: C_25  and  O_26 
ROOT
HETATM    1  C   UNL     1      42.633 -13.422   6.694  1.00  0.00     0.035 A 
HETATM    2  C   UNL     1      43.001 -14.685   6.215  1.00  0.00     0.046 A 
HETATM    3  C   UNL     1      42.160 -15.423   5.358  1.00  0.00     0.036 A 
HETATM    4  C   UNL     1      40.920 -14.862   5.003  1.00  0.00     0.084 A 
HETATM    5  C   UNL     1      40.516 -13.617   5.511  1.00  0.00    -0.026 A 
HETATM    6  C   UNL     1      39.168 -13.038   5.178  1.00  0.00     0.051 C 
HETATM    7  C   UNL     1      41.372 -12.918   6.374  1.00  0.00     0.039 A 
ENDROOT
BRANCH   1   8
HETATM    8  N   UNL     1      43.567 -12.730   7.492  1.00  0.00    -0.333 N 
HETATM    9  H   UNL     1      43.725 -13.105   8.424  1.00  0.00     0.168 HD
BRANCH   8  10
HETATM   10  C   UNL     1      44.431 -11.699   7.186  1.00  0.00     0.179 C 
HETATM   11  S   UNL     1      44.481 -10.416   8.253  1.00  0.00    -0.040 SA
BRANCH  10  12
HETATM   12  N   UNL     1      45.246 -11.901   6.082  1.00  0.00    -0.299 N 
HETATM   13  C   UNL     1      45.173 -11.522   4.748  1.00  0.00     0.257 C 
HETATM   14  O   UNL     1      46.206 -11.151   4.188  1.00  0.00    -0.267 OA
HETATM   15  H   UNL     1      46.224 -11.852   6.339  1.00  0.00     0.171 HD
BRANCH  13  16
HETATM   16  C   UNL     1      43.909 -11.519   3.982  1.00  0.00     0.032 A 
HETATM   17  C   UNL     1      43.678 -12.608   3.133  1.00  0.00     0.020 A 
HETATM   18  C   UNL     1      42.460 -12.736   2.461  1.00  0.00     0.038 A 
HETATM   19  C   UNL     1      41.454 -11.791   2.655  1.00  0.00     0.068 A 
HETATM   20  C   UNL     1      41.693 -10.696   3.494  1.00  0.00     0.038 A 
HETATM   21  C   UNL     1      42.914 -10.559   4.169  1.00  0.00     0.020 A 
BRANCH  19  22
HETATM   22  O   UNL     1      40.205 -11.839   2.092  1.00  0.00    -0.351 OA
BRANCH  22  23
HETATM   23  C   UNL     1      40.156 -12.035   0.677  1.00  0.00     0.175 C 
BRANCH  23  24
HETATM   24  C   UNL     1      39.409 -13.329   0.365  1.00  0.00     0.022 C 
HETATM   25  C   UNL     1      40.310 -14.373  -0.281  1.00  0.00     0.007 C 
ENDBRANCH  23  24
ENDBRANCH  22  23
ENDBRANCH  19  22
ENDBRANCH  13  16
ENDBRANCH  10  12
ENDBRANCH   8  10
ENDBRANCH   1   8
BRANCH   3  26
HETATM   26  C   UNL     1      42.672 -16.703   4.838  1.00  0.00     0.112 A 
HETATM   27  S   UNL     1      43.445 -17.843   5.870  1.00  0.00    -0.067 SA
HETATM   28  C   UNL     1      43.623 -18.933   4.552  1.00  0.00     0.035 A 
HETATM   29  C   UNL     1      43.123 -18.331   3.398  1.00  0.00     0.075 A 
HETATM   30  C   UNL     1      44.166 -20.229   4.539  1.00  0.00     0.021 A 
HETATM   31  N   UNL     1      42.608 -17.057   3.571  1.00  0.00    -0.239 NA
HETATM   32  C   UNL     1      43.170 -19.048   2.185  1.00  0.00     0.033 A 
HETATM   33  C   UNL     1      43.704 -20.341   2.160  1.00  0.00     0.002 A 
HETATM   34  C   UNL     1      44.194 -20.922   3.325  1.00  0.00     0.002 A 
ENDBRANCH   3  26
BRANCH   4  35
HETATM   35  O   UNL     1      40.049 -15.464   4.131  1.00  0.00    -0.359 OA
HETATM   36  H   UNL     1      39.745 -16.311   4.498  1.00  0.00     0.218 HD
ENDBRANCH   4  35
TORSDOF 9
ENDMDL
MODEL 7
REMARK VINA RESULT:      -8.5      4.639      8.642
REMARK  9 active torsions:
REMARK  status: ('A' for Active; 'I' for Inactive)
REMARK    1  A    between atoms: C_2  and  C_3 
REMARK    2  A    between atoms: C_3  and  O_4 
REMARK    3  A    between atoms: O_4  and  C_5 
REMARK    4  A    between atoms: C_8  and  C_9 
REMARK       I    between atoms: C_9  and  N_10 
REMARK    5  A    between atoms: N_10  and  C_11 
REMARK    6  A    between atoms: C_11  and  N_12 
REMARK    7  A    between atoms: N_12  and  C_13 
REMARK    8  A    between atoms: C_15  and  C_16 
REMARK    9  A    between atoms: C_25  and  O_26 
ROOT
HETATM    1  C   UNL     1      42.281 -12.317   3.232  1.00  0.00     0.035 A 
HETATM    2  C   UNL     1      41.274 -11.886   2.360  1.00  0.00     0.046 A 
HETATM    3  C   UNL     1      40.922 -12.628   1.214  1.00  0.00     0.036 A 
HETATM    4  C   UNL     1      41.627 -13.817   0.954  1.00  0.00     0.084 A 
HETATM    5  C   UNL     1      42.671 -14.239   1.792  1.00  0.00    -0.026 A 
HETATM    6  C   UNL     1      43.463 -15.481   1.488  1.00  0.00     0.051 C 
HETATM    7  C   UNL     1      43.004 -13.468   2.915  1.00  0.00     0.039 A 
ENDROOT
BRANCH   1   8
HETATM    8  N   UNL     1      42.518 -11.545   4.388  1.00  0.00    -0.333 N 
HETATM    9  H   UNL     1      43.136 -10.745   4.273  1.00  0.00     0.168 HD
BRANCH   8  10
HETATM   10  C   UNL     1      41.940 -11.589   5.640  1.00  0.00     0.179 C 
HETATM   11  S   UNL     1      42.535 -10.525   6.781  1.00  0.00    -0.040 SA
BRANCH  10  12
HETATM   12  N   UNL     1      40.851 -12.437   5.773  1.00  0.00    -0.299 N 
HETATM   13  C   UNL     1      40.694 -13.740   6.228  1.00  0.00     0.257 C 
HETATM   14  O   UNL     1      39.712 -14.001   6.924  1.00  0.00    -0.267 OA
HETATM   15  H   UNL     1      40.031 -11.928   6.078  1.00  0.00     0.171 HD
BRANCH  13  16
HETATM   16  C   UNL     1      41.664 -14.815   5.935  1.00  0.00     0.032 A 
HETATM   17  C   UNL     1      41.251 -15.822   5.055  1.00  0.00     0.020 A 
HETATM   18  C   UNL     1      42.145 -16.810   4.639  1.00  0.00     0.038 A 
HETATM   19  C   UNL     1      43.468 -16.784   5.080  1.00  0.00     0.068 A 
HETATM   20  C   UNL     1      43.875 -15.784   5.971  1.00  0.00     0.038 A 
HETATM   21  C   UNL     1      42.981 -14.790   6.394  1.00  0.00     0.020 A 
BRANCH  19  22
HETATM   22  O   UNL     1      44.445 -17.668   4.701  1.00  0.00    -0.351 OA
BRANCH  22  23
HETATM   23  C   UNL     1      43.998 -18.946   4.240  1.00  0.00     0.175 C 
BRANCH  23  24
HETATM   24  C   UNL     1      43.939 -18.948   2.715  1.00  0.00     0.022 C 
HETATM   25  C   UNL     1      43.671 -20.336   2.151  1.00  0.00     0.007 C 
ENDBRANCH  23  24
ENDBRANCH  22  23
ENDBRANCH  19  22
ENDBRANCH  13  16
ENDBRANCH  10  12
ENDBRANCH   8  10
ENDBRANCH   1   8
BRANCH   3  26
HETATM   26  C   UNL     1      39.792 -12.138   0.406  1.00  0.00     0.112 A 
HETATM   27  S   UNL     1      38.995 -10.660   0.784  1.00  0.00    -0.067 SA
HETATM   28  C   UNL     1      37.971 -10.849  -0.584  1.00  0.00     0.035 A 
HETATM   29  C   UNL     1      38.274 -12.057  -1.212  1.00  0.00     0.075 A 
HETATM   30  C   UNL     1      36.970  -9.990  -1.068  1.00  0.00     0.021 A 
HETATM   31  N   UNL     1      39.293 -12.789  -0.625  1.00  0.00    -0.239 NA
HETATM   32  C   UNL     1      37.549 -12.423  -2.363  1.00  0.00     0.033 A 
HETATM   33  C   UNL     1      36.553 -11.574  -2.858  1.00  0.00     0.002 A 
HETATM   34  C   UNL     1      36.270 -10.372  -2.217  1.00  0.00     0.002 A 
ENDBRANCH   3  26
BRANCH   4  35
HETATM   35  O   UNL     1      41.332 -14.646  -0.099  1.00  0.00    -0.359 OA
HETATM   36  H   UNL     1      41.475 -14.179  -0.939  1.00  0.00     0.218 HD
ENDBRANCH   4  35
TORSDOF 9
ENDMDL
MODEL 8
REMARK VINA RESULT:      -8.4      3.312      5.475
REMARK  9 active torsions:
REMARK  status: ('A' for Active; 'I' for Inactive)
REMARK    1  A    between atoms: C_2  and  C_3 
REMARK    2  A    between atoms: C_3  and  O_4 
REMARK    3  A    between atoms: O_4  and  C_5 
REMARK    4  A    between atoms: C_8  and  C_9 
REMARK       I    between atoms: C_9  and  N_10 
REMARK    5  A    between atoms: N_10  and  C_11 
REMARK    6  A    between atoms: C_11  and  N_12 
REMARK    7  A    between atoms: N_12  and  C_13 
REMARK    8  A    between atoms: C_15  and  C_16 
REMARK    9  A    between atoms: C_25  and  O_26 
ROOT
HETATM    1  C   UNL     1      42.433 -11.103   3.036  1.00  0.00     0.035 A 
HETATM    2  C   UNL     1      42.675 -12.477   2.924  1.00  0.00     0.046 A 
HETATM    3  C   UNL     1      42.925 -13.277   4.058  1.00  0.00     0.036 A 
HETATM    4  C   UNL     1      42.944 -12.652   5.318  1.00  0.00     0.084 A 
HETATM    5  C   UNL     1      42.749 -11.267   5.442  1.00  0.00    -0.026 A 
HETATM    6  C   UNL     1      42.822 -10.585   6.781  1.00  0.00     0.051 C 
HETATM    7  C   UNL     1      42.518 -10.501   4.291  1.00  0.00     0.039 A 
ENDROOT
BRANCH   1   8
HETATM    8  N   UNL     1      42.125 -10.397   1.854  1.00  0.00    -0.333 N 
HETATM    9  H   UNL     1      42.904 -10.216   1.225  1.00  0.00     0.168 HD
BRANCH   8  10
HETATM   10  C   UNL     1      40.913 -10.024   1.312  1.00  0.00     0.179 C 
HETATM   11  S   UNL     1      40.844  -8.524   0.582  1.00  0.00    -0.040 SA
BRANCH  10  12
HETATM   12  N   UNL     1      39.917 -10.989   1.337  1.00  0.00    -0.299 N 
HETATM   13  C   UNL     1      38.864 -11.266   2.198  1.00  0.00     0.257 C 
HETATM   14  O   UNL     1      37.782 -11.596   1.711  1.00  0.00    -0.267 OA
HETATM   15  H   UNL     1      39.580 -11.186   0.402  1.00  0.00     0.171 HD
BRANCH  13  16
HETATM   16  C   UNL     1      38.978 -11.156   3.667  1.00  0.00     0.032 A 
HETATM   17  C   UNL     1      38.672  -9.914   4.237  1.00  0.00     0.020 A 
HETATM   18  C   UNL     1      38.646  -9.759   5.624  1.00  0.00     0.038 A 
HETATM   19  C   UNL     1      38.898 -10.851   6.454  1.00  0.00     0.068 A 
HETATM   20  C   UNL     1      39.217 -12.088   5.881  1.00  0.00     0.038 A 
HETATM   21  C   UNL     1      39.248 -12.251   4.488  1.00  0.00     0.020 A 
BRANCH  19  22
HETATM   22  O   UNL     1      38.851 -10.832   7.823  1.00  0.00    -0.351 OA
BRANCH  22  23
HETATM   23  C   UNL     1      39.168  -9.586   8.450  1.00  0.00     0.175 C 
BRANCH  23  24
HETATM   24  C   UNL     1      39.270  -9.784   9.960  1.00  0.00     0.022 C 
HETATM   25  C   UNL     1      40.659  -9.460  10.491  1.00  0.00     0.007 C 
ENDBRANCH  23  24
ENDBRANCH  22  23
ENDBRANCH  19  22
ENDBRANCH  13  16
ENDBRANCH  10  12
ENDBRANCH   8  10
ENDBRANCH   1   8
BRANCH   3  26
HETATM   26  C   UNL     1      43.083 -14.726   3.848  1.00  0.00     0.112 A 
HETATM   27  S   UNL     1      42.672 -15.464   2.348  1.00  0.00    -0.067 SA
HETATM   28  C   UNL     1      43.192 -16.991   2.942  1.00  0.00     0.035 A 
HETATM   29  C   UNL     1      43.601 -16.844   4.267  1.00  0.00     0.075 A 
HETATM   30  C   UNL     1      43.237 -18.231   2.283  1.00  0.00     0.021 A 
HETATM   31  N   UNL     1      43.510 -15.559   4.775  1.00  0.00    -0.239 NA
HETATM   32  C   UNL     1      44.067 -17.978   4.962  1.00  0.00     0.033 A 
HETATM   33  C   UNL     1      44.121 -19.218   4.315  1.00  0.00     0.002 A 
HETATM   34  C   UNL     1      43.712 -19.339   2.991  1.00  0.00     0.002 A 
ENDBRANCH   3  26
BRANCH   4  35
HETATM   35  O   UNL     1      43.121 -13.340   6.491  1.00  0.00    -0.359 OA
HETATM   36  H   UNL     1      43.908 -13.906   6.428  1.00  0.00     0.218 HD
ENDBRANCH   4  35
TORSDOF 9
ENDMDL
MODEL 9
REMARK VINA RESULT:      -8.3      4.365      9.035
REMARK  9 active torsions:
REMARK  status: ('A' for Active; 'I' for Inactive)
REMARK    1  A    between atoms: C_2  and  C_3 
REMARK    2  A    between atoms: C_3  and  O_4 
REMARK    3  A    between atoms: O_4  and  C_5 
REMARK    4  A    between atoms: C_8  and  C_9 
REMARK       I    between atoms: C_9  and  N_10 
REMARK    5  A    between atoms: N_10  and  C_11 
REMARK    6  A    between atoms: C_11  and  N_12 
REMARK    7  A    between atoms: N_12  and  C_13 
REMARK    8  A    between atoms: C_15  and  C_16 
REMARK    9  A    between atoms: C_25  and  O_26 
ROOT
HETATM    1  C   UNL     1      42.306 -12.551   4.265  1.00  0.00     0.035 A 
HETATM    2  C   UNL     1      41.334 -11.837   3.556  1.00  0.00     0.046 A 
HETATM    3  C   UNL     1      41.013 -12.154   2.220  1.00  0.00     0.036 A 
HETATM    4  C   UNL     1      41.714 -13.206   1.603  1.00  0.00     0.084 A 
HETATM    5  C   UNL     1      42.724 -13.902   2.286  1.00  0.00    -0.026 A 
HETATM    6  C   UNL     1      43.514 -14.992   1.613  1.00  0.00     0.051 C 
HETATM    7  C   UNL     1      43.027 -13.549   3.608  1.00  0.00     0.039 A 
ENDROOT
BRANCH   1   8
HETATM    8  N   UNL     1      42.512 -12.206   5.617  1.00  0.00    -0.333 N 
HETATM    9  H   UNL     1      41.842 -11.557   6.021  1.00  0.00     0.168 HD
BRANCH   8  10
HETATM   10  C   UNL     1      43.389 -12.709   6.557  1.00  0.00     0.179 C 
HETATM   11  S   UNL     1      44.906 -12.017   6.617  1.00  0.00    -0.040 SA
BRANCH  10  12
HETATM   12  N   UNL     1      42.867 -13.660   7.421  1.00  0.00    -0.299 N 
HETATM   13  C   UNL     1      43.109 -15.011   7.628  1.00  0.00     0.257 C 
HETATM   14  O   UNL     1      43.139 -15.430   8.786  1.00  0.00    -0.267 OA
HETATM   15  H   UNL     1      42.689 -13.260   8.335  1.00  0.00     0.171 HD
BRANCH  13  16
HETATM   16  C   UNL     1      43.358 -15.960   6.523  1.00  0.00     0.032 A 
HETATM   17  C   UNL     1      42.275 -16.264   5.689  1.00  0.00     0.020 A 
HETATM   18  C   UNL     1      42.454 -17.061   4.557  1.00  0.00     0.038 A 
HETATM   19  C   UNL     1      43.724 -17.540   4.235  1.00  0.00     0.068 A 
HETATM   20  C   UNL     1      44.802 -17.247   5.078  1.00  0.00     0.038 A 
HETATM   21  C   UNL     1      44.629 -16.449   6.218  1.00  0.00     0.020 A 
BRANCH  19  22
HETATM   22  O   UNL     1      44.029 -18.287   3.127  1.00  0.00    -0.351 OA
BRANCH  22  23
HETATM   23  C   UNL     1      42.936 -18.617   2.265  1.00  0.00     0.175 C 
BRANCH  23  24
HETATM   24  C   UNL     1      42.969 -20.110   1.946  1.00  0.00     0.022 C 
HETATM   25  C   UNL     1      43.848 -20.887   2.917  1.00  0.00     0.007 C 
ENDBRANCH  23  24
ENDBRANCH  22  23
ENDBRANCH  19  22
ENDBRANCH  13  16
ENDBRANCH  10  12
ENDBRANCH   8  10
ENDBRANCH   1   8
BRANCH   3  26
HETATM   26  C   UNL     1      39.917 -11.403   1.586  1.00  0.00     0.112 A 
HETATM   27  S   UNL     1      38.269 -11.751   1.943  1.00  0.00    -0.067 SA
HETATM   28  C   UNL     1      37.763 -10.474   0.909  1.00  0.00     0.035 A 
HETATM   29  C   UNL     1      38.887  -9.897   0.320  1.00  0.00     0.075 A 
HETATM   30  C   UNL     1      36.463 -10.014   0.638  1.00  0.00     0.021 A 
HETATM   31  N   UNL     1      40.101 -10.450   0.696  1.00  0.00    -0.239 NA
HETATM   32  C   UNL     1      38.708  -8.823  -0.575  1.00  0.00     0.033 A 
HETATM   33  C   UNL     1      37.419  -8.353  -0.850  1.00  0.00     0.002 A 
HETATM   34  C   UNL     1      36.312  -8.942  -0.247  1.00  0.00     0.002 A 
ENDBRANCH   3  26
BRANCH   4  35
HETATM   35  O   UNL     1      41.446 -13.637   0.329  1.00  0.00    -0.359 OA
HETATM   36  H   UNL     1      41.246 -12.878  -0.243  1.00  0.00     0.218 HD
ENDBRANCH   4  35
TORSDOF 9
ENDMDL
MODEL 10
REMARK VINA RESULT:      -8.2      3.919      6.100
REMARK  9 active torsions:
REMARK  status: ('A' for Active; 'I' for Inactive)
REMARK    1  A    between atoms: C_2  and  C_3 
REMARK    2  A    between atoms: C_3  and  O_4 
REMARK    3  A    between atoms: O_4  and  C_5 
REMARK    4  A    between atoms: C_8  and  C_9 
REMARK       I    between atoms: C_9  and  N_10 
REMARK    5  A    between atoms: N_10  and  C_11 
REMARK    6  A    between atoms: C_11  and  N_12 
REMARK    7  A    between atoms: N_12  and  C_13 
REMARK    8  A    between atoms: C_15  and  C_16 
REMARK    9  A    between atoms: C_25  and  O_26 
ROOT
HETATM    1  C   UNL     1      42.170 -13.031   1.636  1.00  0.00     0.035 A 
HETATM    2  C   UNL     1      42.468 -14.372   1.903  1.00  0.00     0.046 A 
HETATM    3  C   UNL     1      42.947 -14.784   3.163  1.00  0.00     0.036 A 
HETATM    4  C   UNL     1      43.138 -13.802   4.152  1.00  0.00     0.084 A 
HETATM    5  C   UNL     1      42.888 -12.447   3.885  1.00  0.00    -0.026 A 
HETATM    6  C   UNL     1      43.143 -11.386   4.922  1.00  0.00     0.051 C 
HETATM    7  C   UNL     1      42.427 -12.071   2.615  1.00  0.00     0.039 A 
ENDROOT
BRANCH   1   8
HETATM    8  N   UNL     1      41.632 -12.723   0.369  1.00  0.00    -0.333 N 
HETATM    9  H   UNL     1      41.837 -13.383  -0.377  1.00  0.00     0.168 HD
BRANCH   8  10
HETATM   10  C   UNL     1      40.740 -11.746  -0.023  1.00  0.00     0.179 C 
HETATM   11  S   UNL     1      41.382 -10.389  -0.753  1.00  0.00    -0.040 SA
BRANCH  10  12
HETATM   12  N   UNL     1      39.398 -12.056   0.134  1.00  0.00    -0.299 N 
HETATM   13  C   UNL     1      38.428 -11.699   1.062  1.00  0.00     0.257 C 
HETATM   14  O   UNL     1      37.292 -11.452   0.654  1.00  0.00    -0.267 OA
HETATM   15  H   UNL     1      38.930 -12.105  -0.762  1.00  0.00     0.171 HD
BRANCH  13  16
HETATM   16  C   UNL     1      38.706 -11.579   2.508  1.00  0.00     0.032 A 
HETATM   17  C   UNL     1      38.998 -12.760   3.200  1.00  0.00     0.020 A 
HETATM   18  C   UNL     1      39.382 -12.719   4.542  1.00  0.00     0.038 A 
HETATM   19  C   UNL     1      39.504 -11.493   5.195  1.00  0.00     0.068 A 
HETATM   20  C   UNL     1      39.198 -10.314   4.504  1.00  0.00     0.038 A 
HETATM   21  C   UNL     1      38.809 -10.348   3.158  1.00  0.00     0.020 A 
BRANCH  19  22
HETATM   22  O   UNL     1      39.919 -11.325   6.490  1.00  0.00    -0.351 OA
BRANCH  22  23
HETATM   23  C   UNL     1      39.277 -10.285   7.232  1.00  0.00     0.175 C 
BRANCH  23  24
HETATM   24  C   UNL     1      40.315  -9.524   8.052  1.00  0.00     0.022 C 
HETATM   25  C   UNL     1      41.412  -8.928   7.180  1.00  0.00     0.007 C 
ENDBRANCH  23  24
ENDBRANCH  22  23
ENDBRANCH  19  22
ENDBRANCH  13  16
ENDBRANCH  10  12
ENDBRANCH   8  10
ENDBRANCH   1   8
BRANCH   3  26
HETATM   26  C   UNL     1      43.150 -16.227   3.377  1.00  0.00     0.112 A 
HETATM   27  S   UNL     1      43.025 -17.350   2.078  1.00  0.00    -0.067 SA
HETATM   28  C   UNL     1      43.438 -18.640   3.138  1.00  0.00     0.035 A 
HETATM   29  C   UNL     1      43.596 -18.132   4.427  1.00  0.00     0.075 A 
HETATM   30  C   UNL     1      43.611 -20.004   2.851  1.00  0.00     0.021 A 
HETATM   31  N   UNL     1      43.406 -16.765   4.551  1.00  0.00    -0.239 NA
HETATM   32  C   UNL     1      43.935 -19.019   5.468  1.00  0.00     0.033 A 
HETATM   33  C   UNL     1      44.114 -20.379   5.194  1.00  0.00     0.002 A 
HETATM   34  C   UNL     1      43.955 -20.863   3.899  1.00  0.00     0.002 A 
ENDBRANCH   3  26
BRANCH   4  35
HETATM   35  O   UNL     1      43.545 -14.096   5.429  1.00  0.00    -0.359 OA
HETATM   36  H   UNL     1      44.136 -13.397   5.757  1.00  0.00     0.218 HD
ENDBRANCH   4  35
TORSDOF 9
ENDMDL
