MODEL 1
REMARK VINA RESULT:      -8.6      0.000      0.000
REMARK  3 active torsions:
REMARK  status: ('A' for Active; 'I' for Inactive)
REMARK    1  A    between atoms: C_9  and  C_10 
REMARK       I    between atoms: C_10  and  N_11 
REMARK    2  A    between atoms: N_11  and  C_12 
REMARK    3  A    between atoms: C_19  and  C_20 
REMARK       I    between atoms: C_20  and  N_21 
ROOT
HETATM    1  C   UNL     1      43.728 -11.807   6.714  1.00  0.00     0.035 A 
HETATM    2  C   UNL     1      43.121 -10.621   7.142  1.00  0.00     0.046 A 
HETATM    3  C   UNL     1      43.922  -9.593   7.688  1.00  0.00     0.030 A 
HETATM    4  C   UNL     1      45.297  -9.779   7.761  1.00  0.00     0.063 A 
HETATM    5  N   UNL     1      45.786  -8.638   8.333  1.00  0.00    -0.277 N 
HETATM    6  H   UNL     1      46.755  -8.427   8.545  1.00  0.00     0.189 HD
HETATM    7  N   UNL     1      44.851  -7.728   8.651  1.00  0.00    -0.168 NA
HETATM    8  C   UNL     1      43.692  -8.305   8.259  1.00  0.00     0.156 A 
HETATM    9  C   UNL     1      45.935 -10.937   7.318  1.00  0.00     0.034 A 
HETATM   10  C   UNL     1      45.120 -11.950   6.801  1.00  0.00     0.032 A 
ENDROOT
BRANCH   1  11
HETATM   11  N   UNL     1      43.008 -12.932   6.276  1.00  0.00    -0.325 N 
HETATM   12  C   UNL     1      42.284 -13.076   5.106  1.00  0.00     0.252 C 
HETATM   13  O   UNL     1      42.419 -12.407   4.085  1.00  0.00    -0.270 OA
HETATM   14  H   UNL     1      42.899 -13.690   6.941  1.00  0.00     0.169 HD
BRANCH  12  15
HETATM   15  C   UNL     1      41.159 -14.130   5.217  1.00  0.00     0.225 C 
HETATM   16  C   UNL     1      41.566 -15.177   6.267  1.00  0.00     0.083 C 
HETATM   17  C   UNL     1      42.121 -16.203   5.353  1.00  0.00    -0.021 A 
HETATM   18  C   UNL     1      41.647 -15.973   4.074  1.00  0.00     0.076 A 
HETATM   19  C   UNL     1      42.983 -17.250   5.610  1.00  0.00     0.017 A 
HETATM   20  C   UNL     1      41.988 -16.779   3.009  1.00  0.00     0.044 A 
HETATM   21  O   UNL     1      40.904 -14.822   3.966  1.00  0.00    -0.336 OA
HETATM   22  C   UNL     1      42.877 -17.842   3.235  1.00  0.00    -0.053 A 
HETATM   23  C   UNL     1      43.388 -18.072   4.542  1.00  0.00    -0.055 A 
HETATM   24  C   UNL     1      43.304 -18.694   2.069  1.00  0.00     0.049 C 
HETATM   25  C   UNL     1      44.393 -19.162   4.803  1.00  0.00     0.049 C 
ENDBRANCH  12  15
ENDBRANCH   1  11
BRANCH   8  26
HETATM   26  C   UNL     1      42.403  -7.627   8.453  1.00  0.00     0.270 C 
HETATM   27  N   UNL     1      42.110  -6.700   7.490  1.00  0.00    -0.365 N 
HETATM   28  H   UNL     1      42.782  -6.544   6.748  1.00  0.00     0.159 HD
HETATM   29  H   UNL     1      41.254  -6.173   7.550  1.00  0.00     0.159 HD
HETATM   30  O   UNL     1      41.635  -7.837   9.386  1.00  0.00    -0.266 OA
ENDBRANCH   8  26
TORSDOF 3
ENDMDL
MODEL 2
REMARK VINA RESULT:      -8.5      5.817      8.379
REMARK  3 active torsions:
REMARK  status: ('A' for Active; 'I' for Inactive)
REMARK    1  A    between atoms: C_9  and  C_10 
REMARK       I    between atoms: C_10  and  N_11 
REMARK    2  A    between atoms: N_11  and  C_12 
REMARK    3  A    between atoms: C_19  and  C_20 
REMARK       I    between atoms: C_20  and  N_21 
ROOT
HETATM    1  C   UNL     1      39.918 -13.976  -0.568  1.00  0.00     0.035 A 
HETATM    2  C   UNL     1      39.228 -12.760  -0.495  1.00  0.00     0.046 A 
HETATM    3  C   UNL     1      38.208 -12.487  -1.433  1.00  0.00     0.030 A 
HETATM    4  C   UNL     1      37.898 -13.446  -2.389  1.00  0.00     0.063 A 
HETATM    5  N   UNL     1      36.900 -12.898  -3.143  1.00  0.00    -0.277 N 
HETATM    6  H   UNL     1      36.431 -13.318  -3.938  1.00  0.00     0.189 HD
HETATM    7  N   UNL     1      36.537 -11.659  -2.772  1.00  0.00    -0.168 NA
HETATM    8  C   UNL     1      37.338 -11.390  -1.715  1.00  0.00     0.156 A 
HETATM    9  C   UNL     1      38.547 -14.679  -2.472  1.00  0.00     0.034 A 
HETATM   10  C   UNL     1      39.569 -14.919  -1.546  1.00  0.00     0.032 A 
ENDROOT
BRANCH   1  11
HETATM   11  N   UNL     1      41.028 -14.288   0.236  1.00  0.00    -0.325 N 
HETATM   12  C   UNL     1      41.125 -14.222   1.614  1.00  0.00     0.252 C 
HETATM   13  O   UNL     1      40.187 -14.229   2.407  1.00  0.00    -0.270 OA
HETATM   14  H   UNL     1      41.902 -14.466  -0.246  1.00  0.00     0.169 HD
BRANCH  12  15
HETATM   15  C   UNL     1      42.577 -14.025   2.108  1.00  0.00     0.225 C 
HETATM   16  C   UNL     1      43.468 -15.098   1.463  1.00  0.00     0.083 C 
HETATM   17  C   UNL     1      43.469 -16.081   2.572  1.00  0.00    -0.021 A 
HETATM   18  C   UNL     1      43.087 -15.446   3.739  1.00  0.00     0.076 A 
HETATM   19  C   UNL     1      43.767 -17.429   2.565  1.00  0.00     0.017 A 
HETATM   20  C   UNL     1      43.007 -16.110   4.944  1.00  0.00     0.044 A 
HETATM   21  O   UNL     1      42.705 -14.138   3.550  1.00  0.00    -0.336 OA
HETATM   22  C   UNL     1      43.288 -17.486   4.967  1.00  0.00    -0.053 A 
HETATM   23  C   UNL     1      43.657 -18.152   3.767  1.00  0.00    -0.055 A 
HETATM   24  C   UNL     1      43.146 -18.236   6.264  1.00  0.00     0.049 C 
HETATM   25  C   UNL     1      43.900 -19.638   3.746  1.00  0.00     0.049 C 
ENDBRANCH  12  15
ENDBRANCH   1  11
BRANCH   8  26
HETATM   26  C   UNL     1      37.268 -10.099  -1.017  1.00  0.00     0.270 C 
HETATM   27  N   UNL     1      36.638 -10.154   0.196  1.00  0.00    -0.365 N 
HETATM   28  H   UNL     1      36.270 -11.045   0.510  1.00  0.00     0.159 HD
HETATM   29  H   UNL     1      36.529  -9.313   0.739  1.00  0.00     0.159 HD
HETATM   30  O   UNL     1      37.711  -9.042  -1.455  1.00  0.00    -0.266 OA
ENDBRANCH   8  26
TORSDOF 3
ENDMDL
MODEL 3
REMARK VINA RESULT:      -8.1      2.741      8.794
REMARK  3 active torsions:
REMARK  status: ('A' for Active; 'I' for Inactive)
REMARK    1  A    between atoms: C_9  and  C_10 
REMARK       I    between atoms: C_10  and  N_11 
REMARK    2  A    between atoms: N_11  and  C_12 
REMARK    3  A    between atoms: C_19  and  C_20 
REMARK       I    between atoms: C_20  and  N_21 
ROOT
HETATM    1  C   UNL     1      43.412 -13.392   6.851  1.00  0.00     0.035 A 
HETATM    2  C   UNL     1      43.240 -13.424   5.462  1.00  0.00     0.046 A 
HETATM    3  C   UNL     1      42.808 -14.619   4.847  1.00  0.00     0.030 A 
HETATM    4  C   UNL     1      42.540 -15.726   5.642  1.00  0.00     0.063 A 
HETATM    5  N   UNL     1      42.160 -16.711   4.775  1.00  0.00    -0.277 N 
HETATM    6  H   UNL     1      41.894 -17.662   5.006  1.00  0.00     0.189 HD
HETATM    7  N   UNL     1      42.167 -16.350   3.482  1.00  0.00    -0.168 NA
HETATM    8  C   UNL     1      42.567 -15.057   3.510  1.00  0.00     0.156 A 
HETATM    9  C   UNL     1      42.674 -15.720   7.030  1.00  0.00     0.034 A 
HETATM   10  C   UNL     1      43.124 -14.531   7.617  1.00  0.00     0.032 A 
ENDROOT
BRANCH   1  11
HETATM   11  N   UNL     1      43.956 -12.295   7.541  1.00  0.00    -0.325 N 
HETATM   12  C   UNL     1      43.615 -10.959   7.418  1.00  0.00     0.252 C 
HETATM   13  O   UNL     1      42.560 -10.520   6.969  1.00  0.00    -0.270 OA
HETATM   14  H   UNL     1      44.778 -12.475   8.107  1.00  0.00     0.169 HD
BRANCH  12  15
HETATM   15  C   UNL     1      44.764 -10.004   7.815  1.00  0.00     0.225 C 
HETATM   16  C   UNL     1      45.233 -10.360   9.235  1.00  0.00     0.083 C 
HETATM   17  C   UNL     1      44.446  -9.353   9.987  1.00  0.00    -0.021 A 
HETATM   18  C   UNL     1      44.044  -8.354   9.120  1.00  0.00     0.076 A 
HETATM   19  C   UNL     1      44.095  -9.315  11.322  1.00  0.00     0.017 A 
HETATM   20  C   UNL     1      43.302  -7.272   9.540  1.00  0.00     0.044 A 
HETATM   21  O   UNL     1      44.368  -8.607   7.808  1.00  0.00    -0.336 OA
HETATM   22  C   UNL     1      42.914  -7.213  10.889  1.00  0.00    -0.053 A 
HETATM   23  C   UNL     1      43.302  -8.248  11.783  1.00  0.00    -0.055 A 
HETATM   24  C   UNL     1      42.052  -6.067  11.349  1.00  0.00     0.049 C 
HETATM   25  C   UNL     1      42.848  -8.247  13.218  1.00  0.00     0.049 C 
ENDBRANCH  12  15
ENDBRANCH   1  11
BRANCH   8  26
HETATM   26  C   UNL     1      42.725 -14.284   2.270  1.00  0.00     0.270 C 
HETATM   27  N   UNL     1      42.684 -15.041   1.131  1.00  0.00    -0.365 N 
HETATM   28  H   UNL     1      42.562 -16.043   1.220  1.00  0.00     0.159 HD
HETATM   29  H   UNL     1      42.800 -14.598   0.235  1.00  0.00     0.159 HD
HETATM   30  O   UNL     1      42.893 -13.070   2.219  1.00  0.00    -0.266 OA
ENDBRANCH   8  26
TORSDOF 3
ENDMDL
MODEL 4
REMARK VINA RESULT:      -8.1      2.760      8.819
REMARK  3 active torsions:
REMARK  status: ('A' for Active; 'I' for Inactive)
REMARK    1  A    between atoms: C_9  and  C_10 
REMARK       I    between atoms: C_10  and  N_11 
REMARK    2  A    between atoms: N_11  and  C_12 
REMARK    3  A    between atoms: C_19  and  C_20 
REMARK       I    between atoms: C_20  and  N_21 
ROOT
HETATM    1  C   UNL     1      43.882 -12.129   5.807  1.00  0.00     0.035 A 
HETATM    2  C   UNL     1      43.184 -13.329   5.989  1.00  0.00     0.046 A 
HETATM    3  C   UNL     1      42.619 -13.976   4.868  1.00  0.00     0.030 A 
HETATM    4  C   UNL     1      42.796 -13.417   3.608  1.00  0.00     0.063 A 
HETATM    5  N   UNL     1      42.138 -14.250   2.747  1.00  0.00    -0.277 N 
HETATM    6  H   UNL     1      42.053 -14.148   1.742  1.00  0.00     0.189 HD
HETATM    7  N   UNL     1      41.538 -15.298   3.334  1.00  0.00    -0.168 NA
HETATM    8  C   UNL     1      41.825 -15.142   4.647  1.00  0.00     0.156 A 
HETATM    9  C   UNL     1      43.509 -12.239   3.390  1.00  0.00     0.034 A 
HETATM   10  C   UNL     1      44.042 -11.603   4.517  1.00  0.00     0.032 A 
ENDROOT
BRANCH   1  11
HETATM   11  N   UNL     1      44.371 -11.348   6.868  1.00  0.00    -0.325 N 
HETATM   12  C   UNL     1      43.818 -10.197   7.401  1.00  0.00     0.252 C 
HETATM   13  O   UNL     1      42.646  -9.843   7.302  1.00  0.00    -0.270 OA
HETATM   14  H   UNL     1      45.298 -11.574   7.211  1.00  0.00     0.169 HD
BRANCH  12  15
HETATM   15  C   UNL     1      44.864  -9.285   8.083  1.00  0.00     0.225 C 
HETATM   16  C   UNL     1      45.242  -9.897   9.441  1.00  0.00     0.083 C 
HETATM   17  C   UNL     1      44.331  -9.106  10.302  1.00  0.00    -0.021 A 
HETATM   18  C   UNL     1      43.932  -7.973   9.617  1.00  0.00     0.076 A 
HETATM   19  C   UNL     1      43.874  -9.358  11.581  1.00  0.00     0.017 A 
HETATM   20  C   UNL     1      43.087  -7.038  10.173  1.00  0.00     0.044 A 
HETATM   21  O   UNL     1      44.376  -7.937   8.316  1.00  0.00    -0.336 OA
HETATM   22  C   UNL     1      42.590  -7.273  11.466  1.00  0.00    -0.053 A 
HETATM   23  C   UNL     1      42.976  -8.447  12.169  1.00  0.00    -0.055 A 
HETATM   24  C   UNL     1      41.619  -6.291  12.063  1.00  0.00     0.049 C 
HETATM   25  C   UNL     1      42.410  -8.761  13.529  1.00  0.00     0.049 C 
ENDBRANCH  12  15
ENDBRANCH   1  11
BRANCH   8  26
HETATM   26  C   UNL     1      41.326 -16.091   5.652  1.00  0.00     0.270 C 
HETATM   27  N   UNL     1      39.982 -16.335   5.569  1.00  0.00    -0.365 N 
HETATM   28  H   UNL     1      39.446 -15.854   4.856  1.00  0.00     0.159 HD
HETATM   29  H   UNL     1      39.549 -16.960   6.228  1.00  0.00     0.159 HD
HETATM   30  O   UNL     1      42.017 -16.629   6.510  1.00  0.00    -0.266 OA
ENDBRANCH   8  26
TORSDOF 3
ENDMDL
MODEL 5
REMARK VINA RESULT:      -8.0      1.562      2.547
REMARK  3 active torsions:
REMARK  status: ('A' for Active; 'I' for Inactive)
REMARK    1  A    between atoms: C_9  and  C_10 
REMARK       I    between atoms: C_10  and  N_11 
REMARK    2  A    between atoms: N_11  and  C_12 
REMARK    3  A    between atoms: C_19  and  C_20 
REMARK       I    between atoms: C_20  and  N_21 
ROOT
HETATM    1  C   UNL     1      41.629 -10.684   6.912  1.00  0.00     0.035 A 
HETATM    2  C   UNL     1      42.876 -10.446   7.500  1.00  0.00     0.046 A 
HETATM    3  C   UNL     1      43.227  -9.128   7.866  1.00  0.00     0.030 A 
HETATM    4  C   UNL     1      42.312  -8.105   7.656  1.00  0.00     0.063 A 
HETATM    5  N   UNL     1      42.932  -6.968   8.092  1.00  0.00    -0.277 N 
HETATM    6  H   UNL     1      42.558  -6.026   8.085  1.00  0.00     0.189 HD
HETATM    7  N   UNL     1      44.176  -7.156   8.559  1.00  0.00    -0.168 NA
HETATM    8  C   UNL     1      44.374  -8.488   8.425  1.00  0.00     0.156 A 
HETATM    9  C   UNL     1      41.050  -8.312   7.097  1.00  0.00     0.034 A 
HETATM   10  C   UNL     1      40.732  -9.623   6.722  1.00  0.00     0.032 A 
ENDROOT
BRANCH   1  11
HETATM   11  N   UNL     1      41.238 -11.933   6.400  1.00  0.00    -0.325 N 
HETATM   12  C   UNL     1      41.082 -12.300   5.075  1.00  0.00     0.252 C 
HETATM   13  O   UNL     1      41.586 -11.738   4.105  1.00  0.00    -0.270 OA
HETATM   14  H   UNL     1      40.913 -12.619   7.073  1.00  0.00     0.169 HD
BRANCH  12  15
HETATM   15  C   UNL     1      40.090 -13.470   4.884  1.00  0.00     0.225 C 
HETATM   16  C   UNL     1      40.302 -14.486   6.018  1.00  0.00     0.083 C 
HETATM   17  C   UNL     1      41.194 -15.431   5.304  1.00  0.00    -0.021 A 
HETATM   18  C   UNL     1      41.069 -15.229   3.942  1.00  0.00     0.076 A 
HETATM   19  C   UNL     1      42.059 -16.385   5.802  1.00  0.00     0.017 A 
HETATM   20  C   UNL     1      41.774 -15.974   3.022  1.00  0.00     0.044 A 
HETATM   21  O   UNL     1      40.265 -14.161   3.619  1.00  0.00    -0.336 OA
HETATM   22  C   UNL     1      42.675 -16.941   3.497  1.00  0.00    -0.053 A 
HETATM   23  C   UNL     1      42.828 -17.139   4.896  1.00  0.00    -0.055 A 
HETATM   24  C   UNL     1      43.495 -17.721   2.505  1.00  0.00     0.049 C 
HETATM   25  C   UNL     1      43.832 -18.121   5.438  1.00  0.00     0.049 C 
ENDBRANCH  12  15
ENDBRANCH   1  11
BRANCH   8  26
HETATM   26  C   UNL     1      45.648  -9.109   8.814  1.00  0.00     0.270 C 
HETATM   27  N   UNL     1      46.557  -9.202   7.796  1.00  0.00    -0.365 N 
HETATM   28  H   UNL     1      46.293  -8.860   6.879  1.00  0.00     0.159 HD
HETATM   29  H   UNL     1      47.453  -9.630   7.966  1.00  0.00     0.159 HD
HETATM   30  O   UNL     1      45.908  -9.530   9.937  1.00  0.00    -0.266 OA
ENDBRANCH   8  26
TORSDOF 3
ENDMDL
MODEL 6
REMARK VINA RESULT:      -7.8      2.873      8.531
REMARK  3 active torsions:
REMARK  status: ('A' for Active; 'I' for Inactive)
REMARK    1  A    between atoms: C_9  and  C_10 
REMARK       I    between atoms: C_10  and  N_11 
REMARK    2  A    between atoms: N_11  and  C_12 
REMARK    3  A    between atoms: C_19  and  C_20 
REMARK       I    between atoms: C_20  and  N_21 
ROOT
HETATM    1  C   UNL     1      42.633 -12.547   5.324  1.00  0.00     0.035 A 
HETATM    2  C   UNL     1      42.974 -13.514   4.372  1.00  0.00     0.046 A 
HETATM    3  C   UNL     1      42.055 -14.543   4.071  1.00  0.00     0.030 A 
HETATM    4  C   UNL     1      40.822 -14.551   4.712  1.00  0.00     0.063 A 
HETATM    5  N   UNL     1      40.171 -15.651   4.230  1.00  0.00    -0.277 N 
HETATM    6  H   UNL     1      39.243 -15.973   4.483  1.00  0.00     0.189 HD
HETATM    7  N   UNL     1      40.873 -16.369   3.339  1.00  0.00    -0.168 NA
HETATM    8  C   UNL     1      42.042 -15.697   3.231  1.00  0.00     0.156 A 
HETATM    9  C   UNL     1      40.440 -13.587   5.645  1.00  0.00     0.034 A 
HETATM   10  C   UNL     1      41.375 -12.589   5.943  1.00  0.00     0.032 A 
ENDROOT
BRANCH   1  11
HETATM   11  N   UNL     1      43.524 -11.561   5.782  1.00  0.00    -0.325 N 
HETATM   12  C   UNL     1      44.251 -11.551   6.959  1.00  0.00     0.252 C 
HETATM   13  O   UNL     1      44.534 -12.532   7.642  1.00  0.00    -0.270 OA
HETATM   14  H   UNL     1      43.553 -10.694   5.255  1.00  0.00     0.169 HD
BRANCH  12  15
HETATM   15  C   UNL     1      44.615 -10.125   7.432  1.00  0.00     0.225 C 
HETATM   16  C   UNL     1      45.286 -10.220   8.812  1.00  0.00     0.083 C 
HETATM   17  C   UNL     1      44.098  -9.946   9.655  1.00  0.00    -0.021 A 
HETATM   18  C   UNL     1      43.126  -9.338   8.883  1.00  0.00     0.076 A 
HETATM   19  C   UNL     1      43.874 -10.217  10.991  1.00  0.00     0.017 A 
HETATM   20  C   UNL     1      41.908  -8.955   9.402  1.00  0.00     0.044 A 
HETATM   21  O   UNL     1      43.459  -9.254   7.551  1.00  0.00    -0.336 OA
HETATM   22  C   UNL     1      41.643  -9.232  10.753  1.00  0.00    -0.053 A 
HETATM   23  C   UNL     1      42.627  -9.880  11.549  1.00  0.00    -0.055 A 
HETATM   24  C   UNL     1      40.295  -8.874  11.318  1.00  0.00     0.049 C 
HETATM   25  C   UNL     1      42.349 -10.250  12.982  1.00  0.00     0.049 C 
ENDBRANCH  12  15
ENDBRANCH   1  11
BRANCH   8  26
HETATM   26  C   UNL     1      43.116 -16.176   2.350  1.00  0.00     0.270 C 
HETATM   27  N   UNL     1      43.562 -15.242   1.456  1.00  0.00    -0.365 N 
HETATM   28  H   UNL     1      43.130 -14.326   1.457  1.00  0.00     0.159 HD
HETATM   29  H   UNL     1      44.287 -15.487   0.800  1.00  0.00     0.159 HD
HETATM   30  O   UNL     1      43.588 -17.308   2.375  1.00  0.00    -0.266 OA
ENDBRANCH   8  26
TORSDOF 3
ENDMDL
MODEL 7
REMARK VINA RESULT:      -7.8      4.866      7.909
REMARK  3 active torsions:
REMARK  status: ('A' for Active; 'I' for Inactive)
REMARK    1  A    between atoms: C_9  and  C_10 
REMARK       I    between atoms: C_10  and  N_11 
REMARK    2  A    between atoms: N_11  and  C_12 
REMARK    3  A    between atoms: C_19  and  C_20 
REMARK       I    between atoms: C_20  and  N_21 
ROOT
HETATM    1  C   UNL     1      41.435 -15.058   4.568  1.00  0.00     0.035 A 
HETATM    2  C   UNL     1      42.143 -16.218   4.233  1.00  0.00     0.046 A 
HETATM    3  C   UNL     1      42.715 -16.999   5.261  1.00  0.00     0.030 A 
HETATM    4  C   UNL     1      42.537 -16.608   6.582  1.00  0.00     0.063 A 
HETATM    5  N   UNL     1      43.203 -17.538   7.328  1.00  0.00    -0.277 N 
HETATM    6  H   UNL     1      43.290 -17.565   8.338  1.00  0.00     0.189 HD
HETATM    7  N   UNL     1      43.811 -18.497   6.612  1.00  0.00    -0.168 NA
HETATM    8  C   UNL     1      43.519 -18.177   5.330  1.00  0.00     0.156 A 
HETATM    9  C   UNL     1      41.814 -15.473   6.951  1.00  0.00     0.034 A 
HETATM   10  C   UNL     1      41.274 -14.702   5.915  1.00  0.00     0.032 A 
ENDROOT
BRANCH   1  11
HETATM   11  N   UNL     1      40.938 -14.151   3.617  1.00  0.00    -0.325 N 
HETATM   12  C   UNL     1      41.483 -12.940   3.229  1.00  0.00     0.252 C 
HETATM   13  O   UNL     1      42.655 -12.597   3.366  1.00  0.00    -0.270 OA
HETATM   14  H   UNL     1      40.009 -14.336   3.253  1.00  0.00     0.169 HD
BRANCH  12  15
HETATM   15  C   UNL     1      40.431 -11.953   2.673  1.00  0.00     0.225 C 
HETATM   16  C   UNL     1      39.242 -12.758   2.124  1.00  0.00     0.083 C 
HETATM   17  C   UNL     1      39.634 -12.783   0.694  1.00  0.00    -0.021 A 
HETATM   18  C   UNL     1      40.557 -11.781   0.461  1.00  0.00     0.076 A 
HETATM   19  C   UNL     1      39.229 -13.624  -0.324  1.00  0.00     0.017 A 
HETATM   20  C   UNL     1      41.096 -11.555  -0.787  1.00  0.00     0.044 A 
HETATM   21  O   UNL     1      40.946 -11.119   1.602  1.00  0.00    -0.336 OA
HETATM   22  C   UNL     1      40.718 -12.404  -1.840  1.00  0.00    -0.053 A 
HETATM   23  C   UNL     1      39.787 -13.453  -1.604  1.00  0.00    -0.055 A 
HETATM   24  C   UNL     1      41.344 -12.207  -3.195  1.00  0.00     0.049 C 
HETATM   25  C   UNL     1      39.411 -14.419  -2.696  1.00  0.00     0.049 C 
ENDBRANCH  12  15
ENDBRANCH   1  11
BRANCH   8  26
HETATM   26  C   UNL     1      44.023 -18.986   4.211  1.00  0.00     0.270 C 
HETATM   27  N   UNL     1      44.140 -20.319   4.494  1.00  0.00    -0.365 N 
HETATM   28  H   UNL     1      43.890 -20.640   5.422  1.00  0.00     0.159 HD
HETATM   29  H   UNL     1      44.493 -20.948   3.792  1.00  0.00     0.159 HD
HETATM   30  O   UNL     1      44.334 -18.541   3.111  1.00  0.00    -0.266 OA
ENDBRANCH   8  26
TORSDOF 3
ENDMDL
MODEL 8
REMARK VINA RESULT:      -7.6      5.762      8.172
REMARK  3 active torsions:
REMARK  status: ('A' for Active; 'I' for Inactive)
REMARK    1  A    between atoms: C_9  and  C_10 
REMARK       I    between atoms: C_10  and  N_11 
REMARK    2  A    between atoms: N_11  and  C_12 
REMARK    3  A    between atoms: C_19  and  C_20 
REMARK       I    between atoms: C_20  and  N_21 
ROOT
HETATM    1  C   UNL     1      42.034 -14.814   1.514  1.00  0.00     0.035 A 
HETATM    2  C   UNL     1      42.201 -13.938   2.592  1.00  0.00     0.046 A 
HETATM    3  C   UNL     1      42.713 -14.433   3.812  1.00  0.00     0.030 A 
HETATM    4  C   UNL     1      43.062 -15.776   3.899  1.00  0.00     0.063 A 
HETATM    5  N   UNL     1      43.506 -15.952   5.179  1.00  0.00    -0.277 N 
HETATM    6  H   UNL     1      43.839 -16.813   5.599  1.00  0.00     0.189 HD
HETATM    7  N   UNL     1      43.468 -14.846   5.940  1.00  0.00    -0.168 NA
HETATM    8  C   UNL     1      42.979 -13.898   5.108  1.00  0.00     0.156 A 
HETATM    9  C   UNL     1      42.933 -16.668   2.835  1.00  0.00     0.034 A 
HETATM   10  C   UNL     1      42.404 -16.160   1.643  1.00  0.00     0.032 A 
ENDROOT
BRANCH   1  11
HETATM   11  N   UNL     1      41.417 -14.447   0.305  1.00  0.00    -0.325 N 
HETATM   12  C   UNL     1      40.148 -13.928   0.120  1.00  0.00     0.252 C 
HETATM   13  O   UNL     1      39.467 -13.363   0.971  1.00  0.00    -0.270 OA
HETATM   14  H   UNL     1      41.903 -14.700  -0.549  1.00  0.00     0.169 HD
BRANCH  12  15
HETATM   15  C   UNL     1      39.577 -14.216  -1.287  1.00  0.00     0.225 C 
HETATM   16  C   UNL     1      40.642 -13.859  -2.336  1.00  0.00     0.083 C 
HETATM   17  C   UNL     1      40.169 -12.496  -2.677  1.00  0.00    -0.021 A 
HETATM   18  C   UNL     1      38.853 -12.361  -2.274  1.00  0.00     0.076 A 
HETATM   19  C   UNL     1      40.837 -11.448  -3.279  1.00  0.00     0.017 A 
HETATM   20  C   UNL     1      38.141 -11.197  -2.471  1.00  0.00     0.044 A 
HETATM   21  O   UNL     1      38.379 -13.449  -1.581  1.00  0.00    -0.336 OA
HETATM   22  C   UNL     1      38.797 -10.107  -3.066  1.00  0.00    -0.053 A 
HETATM   23  C   UNL     1      40.158 -10.229  -3.460  1.00  0.00    -0.055 A 
HETATM   24  C   UNL     1      38.050  -8.811  -3.233  1.00  0.00     0.049 C 
HETATM   25  C   UNL     1      40.907  -9.059  -4.040  1.00  0.00     0.049 C 
ENDBRANCH  12  15
ENDBRANCH   1  11
BRANCH   8  26
HETATM   26  C   UNL     1      42.761 -12.520   5.571  1.00  0.00     0.270 C 
HETATM   27  N   UNL     1      41.678 -12.372   6.393  1.00  0.00    -0.365 N 
HETATM   28  H   UNL     1      41.118 -13.189   6.607  1.00  0.00     0.159 HD
HETATM   29  H   UNL     1      41.442 -11.459   6.746  1.00  0.00     0.159 HD
HETATM   30  O   UNL     1      43.459 -11.560   5.262  1.00  0.00    -0.266 OA
ENDBRANCH   8  26
TORSDOF 3
ENDMDL
MODEL 9
REMARK VINA RESULT:      -7.6     17.355     20.385
REMARK  3 active torsions:
REMARK  status: ('A' for Active; 'I' for Inactive)
REMARK    1  A    between atoms: C_9  and  C_10 
REMARK       I    between atoms: C_10  and  N_11 
REMARK    2  A    between atoms: N_11  and  C_12 
REMARK    3  A    between atoms: C_19  and  C_20 
REMARK       I    between atoms: C_20  and  N_21 
ROOT
HETATM    1  C   UNL     1      46.143 -29.070  -1.681  1.00  0.00     0.035 A 
HETATM    2  C   UNL     1      46.552 -30.186  -2.421  1.00  0.00     0.046 A 
HETATM    3  C   UNL     1      46.025 -30.388  -3.715  1.00  0.00     0.030 A 
HETATM    4  C   UNL     1      45.132 -29.457  -4.231  1.00  0.00     0.063 A 
HETATM    5  N   UNL     1      44.798 -29.923  -5.471  1.00  0.00    -0.277 N 
HETATM    6  H   UNL     1      44.160 -29.498  -6.134  1.00  0.00     0.189 HD
HETATM    7  N   UNL     1      45.385 -31.083  -5.807  1.00  0.00    -0.168 NA
HETATM    8  C   UNL     1      46.147 -31.384  -4.731  1.00  0.00     0.156 A 
HETATM    9  C   UNL     1      44.725 -28.321  -3.531  1.00  0.00     0.034 A 
HETATM   10  C   UNL     1      45.244 -28.152  -2.242  1.00  0.00     0.032 A 
ENDROOT
BRANCH   1  11
HETATM   11  N   UNL     1      46.512 -28.849  -0.343  1.00  0.00    -0.325 N 
HETATM   12  C   UNL     1      46.209 -29.625   0.762  1.00  0.00     0.252 C 
HETATM   13  O   UNL     1      45.882 -30.808   0.747  1.00  0.00    -0.270 OA
HETATM   14  H   UNL     1      46.946 -27.957  -0.133  1.00  0.00     0.169 HD
BRANCH  12  15
HETATM   15  C   UNL     1      46.214 -28.822   2.083  1.00  0.00     0.225 C 
HETATM   16  C   UNL     1      47.600 -28.183   2.267  1.00  0.00     0.083 C 
HETATM   17  C   UNL     1      48.199 -29.206   3.157  1.00  0.00    -0.021 A 
HETATM   18  C   UNL     1      47.188 -29.956   3.728  1.00  0.00     0.076 A 
HETATM   19  C   UNL     1      49.524 -29.473   3.438  1.00  0.00     0.017 A 
HETATM   20  C   UNL     1      47.444 -30.980   4.614  1.00  0.00     0.044 A 
HETATM   21  O   UNL     1      45.938 -29.644   3.248  1.00  0.00    -0.336 OA
HETATM   22  C   UNL     1      48.782 -31.288   4.907  1.00  0.00    -0.053 A 
HETATM   23  C   UNL     1      49.829 -30.538   4.306  1.00  0.00    -0.055 A 
HETATM   24  C   UNL     1      49.078 -32.443   5.826  1.00  0.00     0.049 C 
HETATM   25  C   UNL     1      51.274 -30.886   4.549  1.00  0.00     0.049 C 
ENDBRANCH  12  15
ENDBRANCH   1  11
BRANCH   8  26
HETATM   26  C   UNL     1      46.952 -32.613  -4.690  1.00  0.00     0.270 C 
HETATM   27  N   UNL     1      46.240 -33.755  -4.935  1.00  0.00    -0.365 N 
HETATM   28  H   UNL     1      45.245 -33.677  -5.110  1.00  0.00     0.159 HD
HETATM   29  H   UNL     1      46.707 -34.647  -4.911  1.00  0.00     0.159 HD
HETATM   30  O   UNL     1      48.154 -32.654  -4.450  1.00  0.00    -0.266 OA
ENDBRANCH   8  26
TORSDOF 3
ENDMDL
MODEL 10
REMARK VINA RESULT:      -7.5      2.142      2.903
REMARK  3 active torsions:
REMARK  status: ('A' for Active; 'I' for Inactive)
REMARK    1  A    between atoms: C_9  and  C_10 
REMARK       I    between atoms: C_10  and  N_11 
REMARK    2  A    between atoms: N_11  and  C_12 
REMARK    3  A    between atoms: C_19  and  C_20 
REMARK       I    between atoms: C_20  and  N_21 
ROOT
HETATM    1  C   UNL     1      43.941 -12.757   6.952  1.00  0.00     0.035 A 
HETATM    2  C   UNL     1      43.376 -11.914   7.917  1.00  0.00     0.046 A 
HETATM    3  C   UNL     1      44.034 -10.711   8.254  1.00  0.00     0.030 A 
HETATM    4  C   UNL     1      45.214 -10.383   7.598  1.00  0.00     0.063 A 
HETATM    5  N   UNL     1      45.610  -9.192   8.138  1.00  0.00    -0.277 N 
HETATM    6  H   UNL     1      46.437  -8.656   7.899  1.00  0.00     0.189 HD
HETATM    7  N   UNL     1      44.799  -8.718   9.097  1.00  0.00    -0.168 NA
HETATM    8  C   UNL     1      43.820  -9.647   9.182  1.00  0.00     0.156 A 
HETATM    9  C   UNL     1      45.788 -11.187   6.612  1.00  0.00     0.034 A 
HETATM   10  C   UNL     1      45.130 -12.384   6.310  1.00  0.00     0.032 A 
ENDROOT
BRANCH   1  11
HETATM   11  N   UNL     1      43.431 -14.029   6.640  1.00  0.00    -0.325 N 
HETATM   12  C   UNL     1      43.269 -15.112   7.485  1.00  0.00     0.252 C 
HETATM   13  O   UNL     1      43.198 -15.069   8.711  1.00  0.00    -0.270 OA
HETATM   14  H   UNL     1      43.274 -14.227   5.657  1.00  0.00     0.169 HD
BRANCH  12  15
HETATM   15  C   UNL     1      43.287 -16.467   6.741  1.00  0.00     0.225 C 
HETATM   16  C   UNL     1      44.206 -16.344   5.515  1.00  0.00     0.083 C 
HETATM   17  C   UNL     1      43.172 -16.060   4.491  1.00  0.00    -0.021 A 
HETATM   18  C   UNL     1      41.937 -16.450   4.975  1.00  0.00     0.076 A 
HETATM   19  C   UNL     1      43.294 -15.491   3.239  1.00  0.00     0.017 A 
HETATM   20  C   UNL     1      40.783 -16.316   4.235  1.00  0.00     0.044 A 
HETATM   21  O   UNL     1      41.973 -16.879   6.281  1.00  0.00    -0.336 OA
HETATM   22  C   UNL     1      40.871 -15.726   2.964  1.00  0.00    -0.053 A 
HETATM   23  C   UNL     1      42.133 -15.298   2.468  1.00  0.00    -0.055 A 
HETATM   24  C   UNL     1      39.610 -15.518   2.168  1.00  0.00     0.049 C 
HETATM   25  C   UNL     1      42.251 -14.603   1.138  1.00  0.00     0.049 C 
ENDBRANCH  12  15
ENDBRANCH   1  11
BRANCH   8  26
HETATM   26  C   UNL     1      42.722  -9.508  10.149  1.00  0.00     0.270 C 
HETATM   27  N   UNL     1      42.731 -10.449  11.142  1.00  0.00    -0.365 N 
HETATM   28  H   UNL     1      43.459 -11.154  11.134  1.00  0.00     0.159 HD
HETATM   29  H   UNL     1      42.006 -10.442  11.841  1.00  0.00     0.159 HD
HETATM   30  O   UNL     1      41.850  -8.647  10.098  1.00  0.00    -0.266 OA
ENDBRANCH   8  26
TORSDOF 3
ENDMDL
