MODEL 1
REMARK VINA RESULT:     -10.1      0.000      0.000
REMARK  7 active torsions:
REMARK  status: ('A' for Active; 'I' for Inactive)
REMARK    1  A    between atoms: C_9  and  C_10 
REMARK       I    between atoms: C_10  and  N_11 
REMARK    2  A    between atoms: N_11  and  C_12 
REMARK    3  A    between atoms: C_12  and  C_13 
REMARK    4  A    between atoms: C_12  and  C_22 
REMARK       I    between atoms: C_13  and  N_14 
REMARK    5  A    between atoms: N_14  and  C_15 
REMARK    6  A    between atoms: C_15  and  C_16 
REMARK    7  A    between atoms: C_22  and  C_23 
ROOT
HETATM    1  C   UNL     1      42.022 -14.733   3.231  1.00  0.00     0.180 C 
ENDROOT
BRANCH   1   2
HETATM    2  N   UNL     1      42.574 -13.488   3.804  1.00  0.00    -0.346 N 
HETATM    3  C   UNL     1      42.371 -13.152   5.120  1.00  0.00     0.249 C 
HETATM    4  O   UNL     1      41.589 -13.722   5.882  1.00  0.00    -0.271 OA
HETATM    5  H   UNL     1      43.442 -13.199   3.369  1.00  0.00     0.163 HD
BRANCH   3   6
HETATM    6  C   UNL     1      43.251 -12.028   5.677  1.00  0.00     0.281 C 
HETATM    7  N   UNL     1      44.397 -12.641   6.459  1.00  0.00    -0.058 N 
HETATM    8  C   UNL     1      45.408 -11.647   6.873  1.00  0.00     0.272 C 
HETATM    9  H   UNL     1      44.002 -13.123   7.278  1.00  0.00     0.278 HD
HETATM   10  H   UNL     1      44.799 -13.399   5.887  1.00  0.00     0.278 HD
HETATM   11  C   UNL     1      44.794 -10.413   7.475  1.00  0.00    -0.026 A 
HETATM   12  C   UNL     1      43.419 -10.127   7.326  1.00  0.00    -0.048 A 
HETATM   13  C   UNL     1      45.615  -9.501   8.155  1.00  0.00     0.009 A 
HETATM   14  C   UNL     1      42.892  -8.957   7.889  1.00  0.00     0.008 A 
HETATM   15  C   UNL     1      42.492 -11.083   6.607  1.00  0.00     0.082 C 
HETATM   16  C   UNL     1      43.720  -8.064   8.566  1.00  0.00     0.001 A 
HETATM   17  C   UNL     1      45.079  -8.334   8.696  1.00  0.00     0.001 A 
ENDBRANCH   3   6
ENDBRANCH   1   2
BRANCH   1  18
HETATM   18  C   UNL     1      40.883 -14.321   2.269  1.00  0.00     0.241 C 
HETATM   19  N   UNL     1      40.993 -14.746   0.971  1.00  0.00    -0.353 N 
HETATM   20  H   UNL     1      41.765 -15.320   0.651  1.00  0.00     0.162 HD
HETATM   21  O   UNL     1      39.883 -13.723   2.679  1.00  0.00    -0.271 OA
BRANCH  19  22
HETATM   22  C   UNL     1      39.913 -14.543   0.031  1.00  0.00     0.187 C 
BRANCH  22  23
HETATM   23  C   UNL     1      40.342 -13.653  -1.078  1.00  0.00     0.070 A 
HETATM   24  O   UNL     1      40.927 -12.460  -0.753  1.00  0.00    -0.325 OA
HETATM   25  C   UNL     1      41.220 -11.832  -1.922  1.00  0.00     0.142 A 
HETATM   26  C   UNL     1      40.843 -12.606  -2.994  1.00  0.00     0.027 A 
HETATM   27  C   UNL     1      40.278 -13.784  -2.451  1.00  0.00     0.036 A 
ENDBRANCH  22  23
ENDBRANCH  19  22
ENDBRANCH   1  18
BRANCH   1  28
HETATM   28  C   UNL     1      43.061 -15.697   2.633  1.00  0.00     0.075 C 
BRANCH  28  29
HETATM   29  C   UNL     1      43.451 -16.782   3.598  1.00  0.00    -0.028 A 
HETATM   30  C   UNL     1      43.520 -18.191   3.341  1.00  0.00    -0.002 A 
HETATM   31  C   UNL     1      43.959 -18.808   4.514  1.00  0.00     0.042 A 
HETATM   32  C   UNL     1      43.245 -19.006   2.222  1.00  0.00     0.014 A 
HETATM   33  C   UNL     1      44.152 -20.190   4.619  1.00  0.00     0.030 A 
HETATM   34  N   UNL     1      44.113 -17.822   5.459  1.00  0.00    -0.365 N 
HETATM   35  C   UNL     1      43.878 -20.972   3.493  1.00  0.00     0.002 A 
HETATM   36  C   UNL     1      43.426 -20.391   2.312  1.00  0.00     0.001 A 
HETATM   37  H   UNL     1      44.391 -17.987   6.418  1.00  0.00     0.165 HD
HETATM   38  C   UNL     1      43.814 -16.600   4.920  1.00  0.00     0.096 A 
ENDBRANCH  28  29
ENDBRANCH   1  28
TORSDOF 7
ENDMDL
MODEL 2
REMARK VINA RESULT:      -9.7      1.900      8.452
REMARK  7 active torsions:
REMARK  status: ('A' for Active; 'I' for Inactive)
REMARK    1  A    between atoms: C_9  and  C_10 
REMARK       I    between atoms: C_10  and  N_11 
REMARK    2  A    between atoms: N_11  and  C_12 
REMARK    3  A    between atoms: C_12  and  C_13 
REMARK    4  A    between atoms: C_12  and  C_22 
REMARK       I    between atoms: C_13  and  N_14 
REMARK    5  A    between atoms: N_14  and  C_15 
REMARK    6  A    between atoms: C_15  and  C_16 
REMARK    7  A    between atoms: C_22  and  C_23 
ROOT
HETATM    1  C   UNL     1      42.287 -12.410   4.761  1.00  0.00     0.180 C 
ENDROOT
BRANCH   1   2
HETATM    2  N   UNL     1      42.622 -13.835   4.558  1.00  0.00    -0.346 N 
HETATM    3  C   UNL     1      42.830 -14.683   5.619  1.00  0.00     0.249 C 
HETATM    4  O   UNL     1      42.941 -14.330   6.793  1.00  0.00    -0.271 OA
HETATM    5  H   UNL     1      42.222 -14.223   3.712  1.00  0.00     0.163 HD
BRANCH   3   6
HETATM    6  C   UNL     1      42.845 -16.181   5.298  1.00  0.00     0.281 C 
HETATM    7  N   UNL     1      43.956 -16.843   6.091  1.00  0.00    -0.058 N 
HETATM    8  C   UNL     1      43.929 -18.317   6.000  1.00  0.00     0.272 C 
HETATM    9  H   UNL     1      44.854 -16.472   5.752  1.00  0.00     0.278 HD
HETATM   10  H   UNL     1      43.893 -16.506   7.064  1.00  0.00     0.278 HD
HETATM   11  C   UNL     1      43.754 -18.806   4.587  1.00  0.00    -0.026 A 
HETATM   12  C   UNL     1      43.324 -17.942   3.557  1.00  0.00    -0.048 A 
HETATM   13  C   UNL     1      43.974 -20.161   4.300  1.00  0.00     0.009 A 
HETATM   14  C   UNL     1      43.157 -18.444   2.259  1.00  0.00     0.008 A 
HETATM   15  C   UNL     1      43.079 -16.471   3.817  1.00  0.00     0.082 C 
HETATM   16  C   UNL     1      43.386 -19.791   1.989  1.00  0.00     0.001 A 
HETATM   17  C   UNL     1      43.790 -20.649   3.007  1.00  0.00     0.001 A 
ENDBRANCH   3   6
ENDBRANCH   1   2
BRANCH   1  18
HETATM   18  C   UNL     1      43.618 -11.664   5.012  1.00  0.00     0.241 C 
HETATM   19  N   UNL     1      43.965 -11.451   6.319  1.00  0.00    -0.353 N 
HETATM   20  H   UNL     1      43.398 -11.780   7.093  1.00  0.00     0.162 HD
HETATM   21  O   UNL     1      44.369 -11.365   4.078  1.00  0.00    -0.271 OA
BRANCH  19  22
HETATM   22  C   UNL     1      45.256 -10.898   6.663  1.00  0.00     0.187 C 
BRANCH  22  23
HETATM   23  C   UNL     1      45.254 -10.387   8.057  1.00  0.00     0.070 A 
HETATM   24  O   UNL     1      44.499 -11.053   8.984  1.00  0.00    -0.325 OA
HETATM   25  C   UNL     1      44.655 -10.399  10.165  1.00  0.00     0.142 A 
HETATM   26  C   UNL     1      45.507  -9.330  10.016  1.00  0.00     0.027 A 
HETATM   27  C   UNL     1      45.897  -9.322   8.657  1.00  0.00     0.036 A 
ENDBRANCH  22  23
ENDBRANCH  19  22
ENDBRANCH   1  18
BRANCH   1  28
HETATM   28  C   UNL     1      41.385 -11.789   3.681  1.00  0.00     0.075 C 
BRANCH  28  29
HETATM   29  C   UNL     1      40.697 -12.832   2.845  1.00  0.00    -0.028 A 
HETATM   30  C   UNL     1      40.655 -12.910   1.414  1.00  0.00    -0.002 A 
HETATM   31  C   UNL     1      39.934 -14.059   1.081  1.00  0.00     0.042 A 
HETATM   32  C   UNL     1      41.154 -12.109   0.365  1.00  0.00     0.014 A 
HETATM   33  C   UNL     1      39.704 -14.455  -0.241  1.00  0.00     0.030 A 
HETATM   34  N   UNL     1      39.521 -14.636   2.258  1.00  0.00    -0.365 N 
HETATM   35  C   UNL     1      40.216 -13.646  -1.260  1.00  0.00     0.002 A 
HETATM   36  C   UNL     1      40.927 -12.487  -0.964  1.00  0.00     0.001 A 
HETATM   37  H   UNL     1      38.949 -15.468   2.318  1.00  0.00     0.165 HD
HETATM   38  C   UNL     1      39.976 -13.910   3.325  1.00  0.00     0.096 A 
ENDBRANCH  28  29
ENDBRANCH   1  28
TORSDOF 7
ENDMDL
MODEL 3
REMARK VINA RESULT:      -9.7      2.503      8.519
REMARK  7 active torsions:
REMARK  status: ('A' for Active; 'I' for Inactive)
REMARK    1  A    between atoms: C_9  and  C_10 
REMARK       I    between atoms: C_10  and  N_11 
REMARK    2  A    between atoms: N_11  and  C_12 
REMARK    3  A    between atoms: C_12  and  C_13 
REMARK    4  A    between atoms: C_12  and  C_22 
REMARK       I    between atoms: C_13  and  N_14 
REMARK    5  A    between atoms: N_14  and  C_15 
REMARK    6  A    between atoms: C_15  and  C_16 
REMARK    7  A    between atoms: C_22  and  C_23 
ROOT
HETATM    1  C   UNL     1      42.685 -12.447   6.022  1.00  0.00     0.180 C 
ENDROOT
BRANCH   1   2
HETATM    2  N   UNL     1      42.940 -13.900   5.938  1.00  0.00    -0.346 N 
HETATM    3  C   UNL     1      41.973 -14.819   6.263  1.00  0.00     0.249 C 
HETATM    4  O   UNL     1      40.903 -14.554   6.812  1.00  0.00    -0.271 OA
HETATM    5  H   UNL     1      43.607 -14.147   5.216  1.00  0.00     0.163 HD
BRANCH   3   6
HETATM    6  C   UNL     1      42.237 -16.266   5.831  1.00  0.00     0.281 C 
HETATM    7  N   UNL     1      43.370 -16.830   6.667  1.00  0.00    -0.058 N 
HETATM    8  C   UNL     1      43.571 -18.278   6.461  1.00  0.00     0.272 C 
HETATM    9  H   UNL     1      44.226 -16.306   6.439  1.00  0.00     0.278 HD
HETATM   10  H   UNL     1      43.182 -16.593   7.653  1.00  0.00     0.278 HD
HETATM   11  C   UNL     1      43.581 -18.660   5.005  1.00  0.00    -0.026 A 
HETATM   12  C   UNL     1      43.107 -17.778   4.010  1.00  0.00    -0.048 A 
HETATM   13  C   UNL     1      44.024 -19.939   4.636  1.00  0.00     0.009 A 
HETATM   14  C   UNL     1      43.119 -18.181   2.667  1.00  0.00     0.008 A 
HETATM   15  C   UNL     1      42.626 -16.386   4.358  1.00  0.00     0.082 C 
HETATM   16  C   UNL     1      43.567 -19.452   2.316  1.00  0.00     0.001 A 
HETATM   17  C   UNL     1      44.015 -20.330   3.298  1.00  0.00     0.001 A 
ENDBRANCH   3   6
ENDBRANCH   1   2
BRANCH   1  18
HETATM   18  C   UNL     1      43.895 -11.817   6.750  1.00  0.00     0.241 C 
HETATM   19  N   UNL     1      43.656 -10.664   7.450  1.00  0.00    -0.353 N 
HETATM   20  H   UNL     1      42.734 -10.248   7.514  1.00  0.00     0.162 HD
HETATM   21  O   UNL     1      44.993 -12.381   6.772  1.00  0.00    -0.271 OA
BRANCH  19  22
HETATM   22  C   UNL     1      44.681 -10.079   8.285  1.00  0.00     0.187 C 
BRANCH  22  23
HETATM   23  C   UNL     1      44.226  -9.995   9.696  1.00  0.00     0.070 A 
HETATM   24  O   UNL     1      43.979 -11.165  10.361  1.00  0.00    -0.325 OA
HETATM   25  C   UNL     1      43.575 -10.831  11.614  1.00  0.00     0.142 A 
HETATM   26  C   UNL     1      43.568  -9.464  11.770  1.00  0.00     0.027 A 
HETATM   27  C   UNL     1      43.991  -8.923  10.534  1.00  0.00     0.036 A 
ENDBRANCH  22  23
ENDBRANCH  19  22
ENDBRANCH   1  18
BRANCH   1  28
HETATM   28  C   UNL     1      42.301 -11.772   4.694  1.00  0.00     0.075 C 
BRANCH  28  29
HETATM   29  C   UNL     1      41.203 -12.509   3.978  1.00  0.00    -0.028 A 
HETATM   30  C   UNL     1      41.343 -13.446   2.902  1.00  0.00    -0.002 A 
HETATM   31  C   UNL     1      40.064 -13.902   2.576  1.00  0.00     0.042 A 
HETATM   32  C   UNL     1      42.437 -13.948   2.164  1.00  0.00     0.014 A 
HETATM   33  C   UNL     1      39.826 -14.842   1.568  1.00  0.00     0.030 A 
HETATM   34  N   UNL     1      39.177 -13.242   3.392  1.00  0.00    -0.365 N 
HETATM   35  C   UNL     1      40.928 -15.327   0.858  1.00  0.00     0.002 A 
HETATM   36  C   UNL     1      42.216 -14.884   1.146  1.00  0.00     0.001 A 
HETATM   37  H   UNL     1      38.172 -13.352   3.354  1.00  0.00     0.165 HD
HETATM   38  C   UNL     1      39.849 -12.405   4.242  1.00  0.00     0.096 A 
ENDBRANCH  28  29
ENDBRANCH   1  28
TORSDOF 7
ENDMDL
MODEL 4
REMARK VINA RESULT:      -9.6      1.993      7.867
REMARK  7 active torsions:
REMARK  status: ('A' for Active; 'I' for Inactive)
REMARK    1  A    between atoms: C_9  and  C_10 
REMARK       I    between atoms: C_10  and  N_11 
REMARK    2  A    between atoms: N_11  and  C_12 
REMARK    3  A    between atoms: C_12  and  C_13 
REMARK    4  A    between atoms: C_12  and  C_22 
REMARK       I    between atoms: C_13  and  N_14 
REMARK    5  A    between atoms: N_14  and  C_15 
REMARK    6  A    between atoms: C_15  and  C_16 
REMARK    7  A    between atoms: C_22  and  C_23 
ROOT
HETATM    1  C   UNL     1      42.233 -13.015   4.311  1.00  0.00     0.180 C 
ENDROOT
BRANCH   1   2
HETATM    2  N   UNL     1      41.613 -12.636   3.024  1.00  0.00    -0.346 N 
HETATM    3  C   UNL     1      41.986 -13.233   1.844  1.00  0.00     0.249 C 
HETATM    4  O   UNL     1      42.959 -13.974   1.704  1.00  0.00    -0.271 OA
HETATM    5  H   UNL     1      40.651 -12.332   3.119  1.00  0.00     0.163 HD
BRANCH   3   6
HETATM    6  C   UNL     1      41.061 -13.001   0.644  1.00  0.00     0.281 C 
HETATM    7  N   UNL     1      39.828 -12.250   1.111  1.00  0.00    -0.058 N 
HETATM    8  C   UNL     1      38.967 -11.809  -0.005  1.00  0.00     0.272 C 
HETATM    9  H   UNL     1      39.307 -12.861   1.754  1.00  0.00     0.278 HD
HETATM   10  H   UNL     1      40.142 -11.465   1.702  1.00  0.00     0.278 HD
HETATM   11  C   UNL     1      38.725 -12.898  -1.015  1.00  0.00    -0.026 A 
HETATM   12  C   UNL     1      39.518 -14.066  -1.042  1.00  0.00    -0.048 A 
HETATM   13  C   UNL     1      37.724 -12.724  -1.982  1.00  0.00     0.009 A 
HETATM   14  C   UNL     1      39.269 -15.047  -2.012  1.00  0.00     0.008 A 
HETATM   15  C   UNL     1      40.605 -14.301  -0.017  1.00  0.00     0.082 C 
HETATM   16  C   UNL     1      38.267 -14.863  -2.962  1.00  0.00     0.001 A 
HETATM   17  C   UNL     1      37.498 -13.703  -2.949  1.00  0.00     0.001 A 
ENDBRANCH   3   6
ENDBRANCH   1   2
BRANCH   1  18
HETATM   18  C   UNL     1      42.284 -11.738   5.181  1.00  0.00     0.241 C 
HETATM   19  N   UNL     1      42.602 -11.909   6.503  1.00  0.00    -0.353 N 
HETATM   20  H   UNL     1      42.817 -12.818   6.897  1.00  0.00     0.162 HD
HETATM   21  O   UNL     1      42.138 -10.617   4.683  1.00  0.00    -0.271 OA
BRANCH  19  22
HETATM   22  C   UNL     1      42.821 -10.770   7.366  1.00  0.00     0.187 C 
BRANCH  22  23
HETATM   23  C   UNL     1      44.273 -10.509   7.533  1.00  0.00     0.070 A 
HETATM   24  O   UNL     1      44.649  -9.340   8.135  1.00  0.00    -0.325 OA
HETATM   25  C   UNL     1      46.007  -9.329   8.165  1.00  0.00     0.142 A 
HETATM   26  C   UNL     1      46.512 -10.477   7.601  1.00  0.00     0.027 A 
HETATM   27  C   UNL     1      45.394 -11.241   7.195  1.00  0.00     0.036 A 
ENDBRANCH  22  23
ENDBRANCH  19  22
ENDBRANCH   1  18
BRANCH   1  28
HETATM   28  C   UNL     1      41.618 -14.247   4.997  1.00  0.00     0.075 C 
BRANCH  28  29
HETATM   29  C   UNL     1      42.605 -15.372   5.139  1.00  0.00    -0.028 A 
HETATM   30  C   UNL     1      42.809 -16.468   4.238  1.00  0.00    -0.002 A 
HETATM   31  C   UNL     1      43.848 -17.245   4.756  1.00  0.00     0.042 A 
HETATM   32  C   UNL     1      42.204 -16.882   3.032  1.00  0.00     0.014 A 
HETATM   33  C   UNL     1      44.322 -18.399   4.121  1.00  0.00     0.030 A 
HETATM   34  N   UNL     1      44.235 -16.669   5.942  1.00  0.00    -0.365 N 
HETATM   35  C   UNL     1      43.708 -18.782   2.925  1.00  0.00     0.002 A 
HETATM   36  C   UNL     1      42.661 -18.039   2.389  1.00  0.00     0.001 A 
HETATM   37  H   UNL     1      44.951 -17.041   6.552  1.00  0.00     0.165 HD
HETATM   38  C   UNL     1      43.499 -15.540   6.181  1.00  0.00     0.096 A 
ENDBRANCH  28  29
ENDBRANCH   1  28
TORSDOF 7
ENDMDL
MODEL 5
REMARK VINA RESULT:      -9.5      2.677      5.781
REMARK  7 active torsions:
REMARK  status: ('A' for Active; 'I' for Inactive)
REMARK    1  A    between atoms: C_9  and  C_10 
REMARK       I    between atoms: C_10  and  N_11 
REMARK    2  A    between atoms: N_11  and  C_12 
REMARK    3  A    between atoms: C_12  and  C_13 
REMARK    4  A    between atoms: C_12  and  C_22 
REMARK       I    between atoms: C_13  and  N_14 
REMARK    5  A    between atoms: N_14  and  C_15 
REMARK    6  A    between atoms: C_15  and  C_16 
REMARK    7  A    between atoms: C_22  and  C_23 
ROOT
HETATM    1  C   UNL     1      43.071 -13.170   6.518  1.00  0.00     0.180 C 
ENDROOT
BRANCH   1   2
HETATM    2  N   UNL     1      43.429 -12.432   7.747  1.00  0.00    -0.346 N 
HETATM    3  C   UNL     1      44.044 -11.205   7.694  1.00  0.00     0.249 C 
HETATM    4  O   UNL     1      44.514 -10.694   6.677  1.00  0.00    -0.271 OA
HETATM    5  H   UNL     1      42.800 -12.614   8.520  1.00  0.00     0.163 HD
BRANCH   3   6
HETATM    6  C   UNL     1      44.067 -10.400   8.998  1.00  0.00     0.281 C 
HETATM    7  N   UNL     1      43.533 -11.268  10.122  1.00  0.00    -0.058 N 
HETATM    8  C   UNL     1      43.696 -10.649  11.453  1.00  0.00     0.272 C 
HETATM    9  H   UNL     1      42.542 -11.464   9.929  1.00  0.00     0.278 HD
HETATM   10  H   UNL     1      43.993 -12.189  10.055  1.00  0.00     0.278 HD
HETATM   11  C   UNL     1      43.263  -9.209  11.479  1.00  0.00    -0.026 A 
HETATM   12  C   UNL     1      43.064  -8.478  10.287  1.00  0.00    -0.048 A 
HETATM   13  C   UNL     1      43.104  -8.564  12.715  1.00  0.00     0.009 A 
HETATM   14  C   UNL     1      42.678  -7.133  10.357  1.00  0.00     0.008 A 
HETATM   15  C   UNL     1      43.218  -9.132   8.931  1.00  0.00     0.082 C 
HETATM   16  C   UNL     1      42.518  -6.508  11.593  1.00  0.00     0.001 A 
HETATM   17  C   UNL     1      42.733  -7.221  12.768  1.00  0.00     0.001 A 
ENDBRANCH   3   6
ENDBRANCH   1   2
BRANCH   1  18
HETATM   18  C   UNL     1      43.164 -14.677   6.854  1.00  0.00     0.241 C 
HETATM   19  N   UNL     1      43.534 -15.511   5.832  1.00  0.00    -0.353 N 
HETATM   20  H   UNL     1      43.761 -15.168   4.905  1.00  0.00     0.162 HD
HETATM   21  O   UNL     1      43.003 -15.087   8.008  1.00  0.00    -0.271 OA
BRANCH  19  22
HETATM   22  C   UNL     1      43.794 -16.912   6.076  1.00  0.00     0.187 C 
BRANCH  22  23
HETATM   23  C   UNL     1      43.758 -17.683   4.807  1.00  0.00     0.070 A 
HETATM   24  O   UNL     1      44.164 -18.989   4.838  1.00  0.00    -0.325 OA
HETATM   25  C   UNL     1      44.048 -19.469   3.573  1.00  0.00     0.142 A 
HETATM   26  C   UNL     1      43.562 -18.497   2.730  1.00  0.00     0.027 A 
HETATM   27  C   UNL     1      43.372 -17.344   3.526  1.00  0.00     0.036 A 
ENDBRANCH  22  23
ENDBRANCH  19  22
ENDBRANCH   1  18
BRANCH   1  28
HETATM   28  C   UNL     1      41.757 -12.732   5.849  1.00  0.00     0.075 C 
BRANCH  28  29
HETATM   29  C   UNL     1      41.837 -12.788   4.349  1.00  0.00    -0.028 A 
HETATM   30  C   UNL     1      41.286 -13.791   3.486  1.00  0.00    -0.002 A 
HETATM   31  C   UNL     1      41.576 -13.416   2.172  1.00  0.00     0.042 A 
HETATM   32  C   UNL     1      40.574 -14.992   3.694  1.00  0.00     0.014 A 
HETATM   33  C   UNL     1      41.175 -14.167   1.061  1.00  0.00     0.030 A 
HETATM   34  N   UNL     1      42.306 -12.253   2.233  1.00  0.00    -0.365 N 
HETATM   35  C   UNL     1      40.465 -15.348   1.297  1.00  0.00     0.002 A 
HETATM   36  C   UNL     1      40.172 -15.759   2.594  1.00  0.00     0.001 A 
HETATM   37  H   UNL     1      42.681 -11.770   1.427  1.00  0.00     0.165 HD
HETATM   38  C   UNL     1      42.466 -11.863   3.535  1.00  0.00     0.096 A 
ENDBRANCH  28  29
ENDBRANCH   1  28
TORSDOF 7
ENDMDL
MODEL 6
REMARK VINA RESULT:      -9.2      2.014      5.676
REMARK  7 active torsions:
REMARK  status: ('A' for Active; 'I' for Inactive)
REMARK    1  A    between atoms: C_9  and  C_10 
REMARK       I    between atoms: C_10  and  N_11 
REMARK    2  A    between atoms: N_11  and  C_12 
REMARK    3  A    between atoms: C_12  and  C_13 
REMARK    4  A    between atoms: C_12  and  C_22 
REMARK       I    between atoms: C_13  and  N_14 
REMARK    5  A    between atoms: N_14  and  C_15 
REMARK    6  A    between atoms: C_15  and  C_16 
REMARK    7  A    between atoms: C_22  and  C_23 
ROOT
HETATM    1  C   UNL     1      42.042 -14.470   4.445  1.00  0.00     0.180 C 
ENDROOT
BRANCH   1   2
HETATM    2  N   UNL     1      42.840 -13.556   5.288  1.00  0.00    -0.346 N 
HETATM    3  C   UNL     1      43.411 -12.418   4.772  1.00  0.00     0.249 C 
HETATM    4  O   UNL     1      43.480 -12.143   3.574  1.00  0.00    -0.271 OA
HETATM    5  H   UNL     1      42.538 -13.539   6.255  1.00  0.00     0.163 HD
BRANCH   3   6
HETATM    6  C   UNL     1      43.927 -11.395   5.790  1.00  0.00     0.281 C 
HETATM    7  N   UNL     1      45.140 -11.972   6.496  1.00  0.00    -0.058 N 
HETATM    8  C   UNL     1      45.826 -10.989   7.357  1.00  0.00     0.272 C 
HETATM    9  H   UNL     1      44.832 -12.786   7.045  1.00  0.00     0.278 HD
HETATM   10  H   UNL     1      45.763 -12.371   5.777  1.00  0.00     0.278 HD
HETATM   11  C   UNL     1      44.872 -10.215   8.226  1.00  0.00    -0.026 A 
HETATM   12  C   UNL     1      43.484 -10.209   7.971  1.00  0.00    -0.048 A 
HETATM   13  C   UNL     1      45.380  -9.442   9.281  1.00  0.00     0.009 A 
HETATM   14  C   UNL     1      42.633  -9.461   8.796  1.00  0.00     0.008 A 
HETATM   15  C   UNL     1      42.888 -11.032   6.850  1.00  0.00     0.082 C 
HETATM   16  C   UNL     1      43.152  -8.703   9.843  1.00  0.00     0.001 A 
HETATM   17  C   UNL     1      44.523  -8.691  10.083  1.00  0.00     0.001 A 
ENDBRANCH   3   6
ENDBRANCH   1   2
BRANCH   1  18
HETATM   18  C   UNL     1      42.444 -15.911   4.835  1.00  0.00     0.241 C 
HETATM   19  N   UNL     1      43.650 -16.360   4.364  1.00  0.00    -0.353 N 
HETATM   20  H   UNL     1      44.266 -15.779   3.806  1.00  0.00     0.162 HD
HETATM   21  O   UNL     1      41.754 -16.581   5.610  1.00  0.00    -0.271 OA
BRANCH  19  22
HETATM   22  C   UNL     1      44.185 -17.632   4.792  1.00  0.00     0.187 C 
BRANCH  22  23
HETATM   23  C   UNL     1      43.878 -18.693   3.800  1.00  0.00     0.070 A 
HETATM   24  O   UNL     1      44.108 -19.993   4.159  1.00  0.00    -0.325 OA
HETATM   25  C   UNL     1      43.760 -20.765   3.096  1.00  0.00     0.142 A 
HETATM   26  C   UNL     1      43.299 -19.983   2.062  1.00  0.00     0.027 A 
HETATM   27  C   UNL     1      43.372 -18.646   2.516  1.00  0.00     0.036 A 
ENDBRANCH  22  23
ENDBRANCH  19  22
ENDBRANCH   1  18
BRANCH   1  28
HETATM   28  C   UNL     1      40.528 -14.197   4.434  1.00  0.00     0.075 C 
BRANCH  28  29
HETATM   29  C   UNL     1      40.117 -13.313   3.289  1.00  0.00    -0.028 A 
HETATM   30  C   UNL     1      39.963 -13.687   1.914  1.00  0.00    -0.002 A 
HETATM   31  C   UNL     1      39.537 -12.553   1.219  1.00  0.00     0.042 A 
HETATM   32  C   UNL     1      40.151 -14.882   1.187  1.00  0.00     0.014 A 
HETATM   33  C   UNL     1      39.274 -12.558  -0.156  1.00  0.00     0.030 A 
HETATM   34  N   UNL     1      39.473 -11.521   2.125  1.00  0.00    -0.365 N 
HETATM   35  C   UNL     1      39.463 -13.757  -0.849  1.00  0.00     0.002 A 
HETATM   36  C   UNL     1      39.900 -14.903  -0.190  1.00  0.00     0.001 A 
HETATM   37  H   UNL     1      39.223 -10.569   1.891  1.00  0.00     0.165 HD
HETATM   38  C   UNL     1      39.815 -11.966   3.373  1.00  0.00     0.096 A 
ENDBRANCH  28  29
ENDBRANCH   1  28
TORSDOF 7
ENDMDL
MODEL 7
REMARK VINA RESULT:      -9.2      2.085      8.269
REMARK  7 active torsions:
REMARK  status: ('A' for Active; 'I' for Inactive)
REMARK    1  A    between atoms: C_9  and  C_10 
REMARK       I    between atoms: C_10  and  N_11 
REMARK    2  A    between atoms: N_11  and  C_12 
REMARK    3  A    between atoms: C_12  and  C_13 
REMARK    4  A    between atoms: C_12  and  C_22 
REMARK       I    between atoms: C_13  and  N_14 
REMARK    5  A    between atoms: N_14  and  C_15 
REMARK    6  A    between atoms: C_15  and  C_16 
REMARK    7  A    between atoms: C_22  and  C_23 
ROOT
HETATM    1  C   UNL     1      40.745 -12.296   2.419  1.00  0.00     0.180 C 
ENDROOT
BRANCH   1   2
HETATM    2  N   UNL     1      41.185 -13.511   3.136  1.00  0.00    -0.346 N 
HETATM    3  C   UNL     1      40.547 -14.715   2.967  1.00  0.00     0.249 C 
HETATM    4  O   UNL     1      39.477 -14.871   2.377  1.00  0.00    -0.271 OA
HETATM    5  H   UNL     1      42.180 -13.523   3.327  1.00  0.00     0.163 HD
BRANCH   3   6
HETATM    6  C   UNL     1      41.280 -15.953   3.496  1.00  0.00     0.281 C 
HETATM    7  N   UNL     1      42.443 -15.503   4.361  1.00  0.00    -0.058 N 
HETATM    8  C   UNL     1      43.095 -16.621   5.074  1.00  0.00     0.272 C 
HETATM    9  H   UNL     1      43.117 -15.012   3.758  1.00  0.00     0.278 HD
HETATM   10  H   UNL     1      42.096 -14.774   5.002  1.00  0.00     0.278 HD
HETATM   11  C   UNL     1      43.363 -17.800   4.180  1.00  0.00    -0.026 A 
HETATM   12  C   UNL     1      42.744 -17.923   2.917  1.00  0.00    -0.048 A 
HETATM   13  C   UNL     1      44.208 -18.824   4.633  1.00  0.00     0.009 A 
HETATM   14  C   UNL     1      43.010 -19.047   2.123  1.00  0.00     0.008 A 
HETATM   15  C   UNL     1      41.831 -16.841   2.382  1.00  0.00     0.082 C 
HETATM   16  C   UNL     1      43.856 -20.053   2.585  1.00  0.00     0.001 A 
HETATM   17  C   UNL     1      44.451 -19.944   3.838  1.00  0.00     0.001 A 
ENDBRANCH   3   6
ENDBRANCH   1   2
BRANCH   1  18
HETATM   18  C   UNL     1      41.207 -11.083   3.260  1.00  0.00     0.241 C 
HETATM   19  N   UNL     1      41.354 -11.290   4.606  1.00  0.00    -0.353 N 
HETATM   20  H   UNL     1      41.192 -12.193   5.038  1.00  0.00     0.162 HD
HETATM   21  O   UNL     1      41.518 -10.014   2.724  1.00  0.00    -0.271 OA
BRANCH  19  22
HETATM   22  C   UNL     1      41.922 -10.267   5.455  1.00  0.00     0.187 C 
BRANCH  22  23
HETATM   23  C   UNL     1      43.202 -10.729   6.050  1.00  0.00     0.070 A 
HETATM   24  O   UNL     1      44.235 -11.022   5.203  1.00  0.00    -0.325 OA
HETATM   25  C   UNL     1      45.278 -11.424   5.974  1.00  0.00     0.142 A 
HETATM   26  C   UNL     1      44.938 -11.384   7.306  1.00  0.00     0.027 A 
HETATM   27  C   UNL     1      43.598 -10.934   7.357  1.00  0.00     0.036 A 
ENDBRANCH  22  23
ENDBRANCH  19  22
ENDBRANCH   1  18
BRANCH   1  28
HETATM   28  C   UNL     1      41.128 -12.240   0.930  1.00  0.00     0.075 C 
BRANCH  28  29
HETATM   29  C   UNL     1      39.931 -12.035   0.043  1.00  0.00    -0.028 A 
HETATM   30  C   UNL     1      39.421 -12.934  -0.950  1.00  0.00    -0.002 A 
HETATM   31  C   UNL     1      38.280 -12.345  -1.500  1.00  0.00     0.042 A 
HETATM   32  C   UNL     1      39.823 -14.194  -1.442  1.00  0.00     0.014 A 
HETATM   33  C   UNL     1      37.515 -12.957  -2.499  1.00  0.00     0.030 A 
HETATM   34  N   UNL     1      38.124 -11.120  -0.896  1.00  0.00    -0.365 N 
HETATM   35  C   UNL     1      37.933 -14.207  -2.963  1.00  0.00     0.002 A 
HETATM   36  C   UNL     1      39.073 -14.817  -2.447  1.00  0.00     0.001 A 
HETATM   37  H   UNL     1      37.394 -10.458  -1.125  1.00  0.00     0.165 HD
HETATM   38  C   UNL     1      39.107 -10.924   0.036  1.00  0.00     0.096 A 
ENDBRANCH  28  29
ENDBRANCH   1  28
TORSDOF 7
ENDMDL
MODEL 8
REMARK VINA RESULT:      -9.1      2.574      7.739
REMARK  7 active torsions:
REMARK  status: ('A' for Active; 'I' for Inactive)
REMARK    1  A    between atoms: C_9  and  C_10 
REMARK       I    between atoms: C_10  and  N_11 
REMARK    2  A    between atoms: N_11  and  C_12 
REMARK    3  A    between atoms: C_12  and  C_13 
REMARK    4  A    between atoms: C_12  and  C_22 
REMARK       I    between atoms: C_13  and  N_14 
REMARK    5  A    between atoms: N_14  and  C_15 
REMARK    6  A    between atoms: C_15  and  C_16 
REMARK    7  A    between atoms: C_22  and  C_23 
ROOT
HETATM    1  C   UNL     1      40.588 -11.083   6.136  1.00  0.00     0.180 C 
ENDROOT
BRANCH   1   2
HETATM    2  N   UNL     1      41.325 -12.358   6.256  1.00  0.00    -0.346 N 
HETATM    3  C   UNL     1      40.669 -13.559   6.367  1.00  0.00     0.249 C 
HETATM    4  O   UNL     1      39.459 -13.688   6.559  1.00  0.00    -0.271 OA
HETATM    5  H   UNL     1      42.220 -12.348   5.781  1.00  0.00     0.163 HD
BRANCH   3   6
HETATM    6  C   UNL     1      41.516 -14.819   6.156  1.00  0.00     0.281 C 
HETATM    7  N   UNL     1      42.934 -14.541   6.621  1.00  0.00    -0.058 N 
HETATM    8  C   UNL     1      43.780 -15.751   6.640  1.00  0.00     0.272 C 
HETATM    9  H   UNL     1      43.337 -13.823   6.004  1.00  0.00     0.278 HD
HETATM   10  H   UNL     1      42.879 -14.082   7.543  1.00  0.00     0.278 HD
HETATM   11  C   UNL     1      43.653 -16.566   5.381  1.00  0.00    -0.026 A 
HETATM   12  C   UNL     1      42.593 -16.357   4.473  1.00  0.00    -0.048 A 
HETATM   13  C   UNL     1      44.580 -17.589   5.132  1.00  0.00     0.009 A 
HETATM   14  C   UNL     1      42.503 -17.151   3.321  1.00  0.00     0.008 A 
HETATM   15  C   UNL     1      41.573 -15.262   4.696  1.00  0.00     0.082 C 
HETATM   16  C   UNL     1      43.435 -18.159   3.085  1.00  0.00     0.001 A 
HETATM   17  C   UNL     1      44.469 -18.380   3.989  1.00  0.00     0.001 A 
ENDBRANCH   3   6
ENDBRANCH   1   2
BRANCH   1  18
HETATM   18  C   UNL     1      41.442 -10.000   6.836  1.00  0.00     0.241 C 
HETATM   19  N   UNL     1      42.066 -10.367   7.998  1.00  0.00    -0.353 N 
HETATM   20  H   UNL     1      41.998 -11.305   8.379  1.00  0.00     0.162 HD
HETATM   21  O   UNL     1      41.623  -8.894   6.317  1.00  0.00    -0.271 OA
BRANCH  19  22
HETATM   22  C   UNL     1      43.004  -9.480   8.649  1.00  0.00     0.187 C 
BRANCH  22  23
HETATM   23  C   UNL     1      44.397  -9.801   8.248  1.00  0.00     0.070 A 
HETATM   24  O   UNL     1      45.342  -8.820   8.371  1.00  0.00    -0.325 OA
HETATM   25  C   UNL     1      46.518  -9.346   7.940  1.00  0.00     0.142 A 
HETATM   26  C   UNL     1      46.348 -10.655   7.552  1.00  0.00     0.027 A 
HETATM   27  C   UNL     1      44.979 -10.951   7.753  1.00  0.00     0.036 A 
ENDBRANCH  22  23
ENDBRANCH  19  22
ENDBRANCH   1  18
BRANCH   1  28
HETATM   28  C   UNL     1      40.123 -10.726   4.714  1.00  0.00     0.075 C 
BRANCH  28  29
HETATM   29  C   UNL     1      40.973 -11.378   3.658  1.00  0.00    -0.028 A 
HETATM   30  C   UNL     1      40.636 -12.512   2.849  1.00  0.00    -0.002 A 
HETATM   31  C   UNL     1      41.710 -12.743   1.987  1.00  0.00     0.042 A 
HETATM   32  C   UNL     1      39.521 -13.374   2.770  1.00  0.00     0.014 A 
HETATM   33  C   UNL     1      41.718 -13.776   1.042  1.00  0.00     0.030 A 
HETATM   34  N   UNL     1      42.678 -11.813   2.284  1.00  0.00    -0.365 N 
HETATM   35  C   UNL     1      40.598 -14.610   0.982  1.00  0.00     0.002 A 
HETATM   36  C   UNL     1      39.516 -14.417   1.836  1.00  0.00     0.001 A 
HETATM   37  H   UNL     1      43.583 -11.765   1.835  1.00  0.00     0.165 HD
HETATM   38  C   UNL     1      42.245 -10.985   3.284  1.00  0.00     0.096 A 
ENDBRANCH  28  29
ENDBRANCH   1  28
TORSDOF 7
ENDMDL
MODEL 9
REMARK VINA RESULT:      -8.9      3.633      6.851
REMARK  7 active torsions:
REMARK  status: ('A' for Active; 'I' for Inactive)
REMARK    1  A    between atoms: C_9  and  C_10 
REMARK       I    between atoms: C_10  and  N_11 
REMARK    2  A    between atoms: N_11  and  C_12 
REMARK    3  A    between atoms: C_12  and  C_13 
REMARK    4  A    between atoms: C_12  and  C_22 
REMARK       I    between atoms: C_13  and  N_14 
REMARK    5  A    between atoms: N_14  and  C_15 
REMARK    6  A    between atoms: C_15  and  C_16 
REMARK    7  A    between atoms: C_22  and  C_23 
ROOT
HETATM    1  C   UNL     1      43.906 -13.197   6.389  1.00  0.00     0.180 C 
ENDROOT
BRANCH   1   2
HETATM    2  N   UNL     1      43.857 -12.323   7.580  1.00  0.00    -0.346 N 
HETATM    3  C   UNL     1      44.804 -11.352   7.797  1.00  0.00     0.249 C 
HETATM    4  O   UNL     1      45.851 -11.231   7.161  1.00  0.00    -0.271 OA
HETATM    5  H   UNL     1      42.915 -12.149   7.908  1.00  0.00     0.163 HD
BRANCH   3   6
HETATM    6  C   UNL     1      44.473 -10.309   8.870  1.00  0.00     0.281 C 
HETATM    7  N   UNL     1      43.393 -10.864   9.780  1.00  0.00    -0.058 N 
HETATM    8  C   UNL     1      43.142 -10.012  10.960  1.00  0.00     0.272 C 
HETATM    9  H   UNL     1      42.535 -10.977   9.223  1.00  0.00     0.278 HD
HETATM   10  H   UNL     1      43.660 -11.826  10.036  1.00  0.00     0.278 HD
HETATM   11  C   UNL     1      43.014  -8.555  10.607  1.00  0.00    -0.026 A 
HETATM   12  C   UNL     1      43.433  -8.063   9.352  1.00  0.00    -0.048 A 
HETATM   13  C   UNL     1      42.514  -7.660  11.565  1.00  0.00     0.009 A 
HETATM   14  C   UNL     1      43.310  -6.695   9.071  1.00  0.00     0.008 A 
HETATM   15  C   UNL     1      43.972  -8.990   8.285  1.00  0.00     0.082 C 
HETATM   16  C   UNL     1      42.807  -5.820  10.030  1.00  0.00     0.001 A 
HETATM   17  C   UNL     1      42.412  -6.300  11.275  1.00  0.00     0.001 A 
ENDBRANCH   3   6
ENDBRANCH   1   2
BRANCH   1  18
HETATM   18  C   UNL     1      43.519 -14.619   6.857  1.00  0.00     0.241 C 
HETATM   19  N   UNL     1      43.671 -15.628   5.942  1.00  0.00    -0.353 N 
HETATM   20  H   UNL     1      44.039 -15.466   5.011  1.00  0.00     0.162 HD
HETATM   21  O   UNL     1      43.182 -14.840   8.024  1.00  0.00    -0.271 OA
BRANCH  19  22
HETATM   22  C   UNL     1      43.480 -17.009   6.324  1.00  0.00     0.187 C 
BRANCH  22  23
HETATM   23  C   UNL     1      43.666 -17.907   5.156  1.00  0.00     0.070 A 
HETATM   24  O   UNL     1      43.429 -17.397   3.910  1.00  0.00    -0.325 OA
HETATM   25  C   UNL     1      43.657 -18.399   3.021  1.00  0.00     0.142 A 
HETATM   26  C   UNL     1      44.048 -19.544   3.675  1.00  0.00     0.027 A 
HETATM   27  C   UNL     1      44.056 -19.228   5.054  1.00  0.00     0.036 A 
ENDBRANCH  22  23
ENDBRANCH  19  22
ENDBRANCH   1  18
BRANCH   1  28
HETATM   28  C   UNL     1      43.131 -12.681   5.165  1.00  0.00     0.075 C 
BRANCH  28  29
HETATM   29  C   UNL     1      41.656 -12.568   5.432  1.00  0.00    -0.028 A 
HETATM   30  C   UNL     1      40.946 -11.426   5.927  1.00  0.00    -0.002 A 
HETATM   31  C   UNL     1      39.594 -11.767   5.986  1.00  0.00     0.042 A 
HETATM   32  C   UNL     1      41.325 -10.130   6.341  1.00  0.00     0.014 A 
HETATM   33  C   UNL     1      38.603 -10.878   6.417  1.00  0.00     0.030 A 
HETATM   34  N   UNL     1      39.487 -13.076   5.580  1.00  0.00    -0.365 N 
HETATM   35  C   UNL     1      39.006  -9.600   6.814  1.00  0.00     0.002 A 
HETATM   36  C   UNL     1      40.347  -9.231   6.783  1.00  0.00     0.001 A 
HETATM   37  H   UNL     1      38.621 -13.599   5.555  1.00  0.00     0.165 HD
HETATM   38  C   UNL     1      40.719 -13.568   5.241  1.00  0.00     0.096 A 
ENDBRANCH  28  29
ENDBRANCH   1  28
TORSDOF 7
ENDMDL
MODEL 10
REMARK VINA RESULT:      -8.8      2.825      9.021
REMARK  7 active torsions:
REMARK  status: ('A' for Active; 'I' for Inactive)
REMARK    1  A    between atoms: C_9  and  C_10 
REMARK       I    between atoms: C_10  and  N_11 
REMARK    2  A    between atoms: N_11  and  C_12 
REMARK    3  A    between atoms: C_12  and  C_13 
REMARK    4  A    between atoms: C_12  and  C_22 
REMARK       I    between atoms: C_13  and  N_14 
REMARK    5  A    between atoms: N_14  and  C_15 
REMARK    6  A    between atoms: C_15  and  C_16 
REMARK    7  A    between atoms: C_22  and  C_23 
ROOT
HETATM    1  C   UNL     1      42.024 -11.160   5.986  1.00  0.00     0.180 C 
ENDROOT
BRANCH   1   2
HETATM    2  N   UNL     1      42.437 -12.579   5.988  1.00  0.00    -0.346 N 
HETATM    3  C   UNL     1      41.513 -13.595   5.999  1.00  0.00     0.249 C 
HETATM    4  O   UNL     1      40.305 -13.450   6.189  1.00  0.00    -0.271 OA
HETATM    5  H   UNL     1      43.314 -12.740   5.509  1.00  0.00     0.163 HD
BRANCH   3   6
HETATM    6  C   UNL     1      42.041 -14.997   5.672  1.00  0.00     0.281 C 
HETATM    7  N   UNL     1      43.487 -15.094   6.119  1.00  0.00    -0.058 N 
HETATM    8  C   UNL     1      44.027 -16.465   6.025  1.00  0.00     0.272 C 
HETATM    9  H   UNL     1      44.042 -14.443   5.547  1.00  0.00     0.278 HD
HETATM   10  H   UNL     1      43.549 -14.709   7.074  1.00  0.00     0.278 HD
HETATM   11  C   UNL     1      43.703 -17.126   4.713  1.00  0.00    -0.026 A 
HETATM   12  C   UNL     1      42.714 -16.606   3.851  1.00  0.00    -0.048 A 
HETATM   13  C   UNL     1      44.363 -18.314   4.364  1.00  0.00     0.009 A 
HETATM   14  C   UNL     1      42.431 -17.263   2.646  1.00  0.00     0.008 A 
HETATM   15  C   UNL     1      41.980 -15.324   4.182  1.00  0.00     0.082 C 
HETATM   16  C   UNL     1      43.100 -18.439   2.310  1.00  0.00     0.001 A 
HETATM   17  C   UNL     1      44.061 -18.965   3.168  1.00  0.00     0.001 A 
ENDBRANCH   3   6
ENDBRANCH   1   2
BRANCH   1  18
HETATM   18  C   UNL     1      42.951 -10.418   6.977  1.00  0.00     0.241 C 
HETATM   19  N   UNL     1      43.883 -11.179   7.631  1.00  0.00    -0.353 N 
HETATM   20  H   UNL     1      43.985 -12.174   7.466  1.00  0.00     0.162 HD
HETATM   21  O   UNL     1      42.909  -9.190   7.096  1.00  0.00    -0.271 OA
BRANCH  19  22
HETATM   22  C   UNL     1      44.892 -10.562   8.463  1.00  0.00     0.187 C 
BRANCH  22  23
HETATM   23  C   UNL     1      44.340 -10.234   9.802  1.00  0.00     0.070 A 
HETATM   24  O   UNL     1      43.957 -11.269  10.610  1.00  0.00    -0.325 OA
HETATM   25  C   UNL     1      43.486 -10.720  11.760  1.00  0.00     0.142 A 
HETATM   26  C   UNL     1      43.570  -9.349  11.710  1.00  0.00     0.027 A 
HETATM   27  C   UNL     1      44.123  -9.033  10.448  1.00  0.00     0.036 A 
ENDBRANCH  22  23
ENDBRANCH  19  22
ENDBRANCH   1  18
BRANCH   1  28
HETATM   28  C   UNL     1      41.909 -10.513   4.595  1.00  0.00     0.075 C 
BRANCH  28  29
HETATM   29  C   UNL     1      40.488 -10.463   4.106  1.00  0.00    -0.028 A 
HETATM   30  C   UNL     1      39.984 -10.929   2.848  1.00  0.00    -0.002 A 
HETATM   31  C   UNL     1      38.605 -10.708   2.843  1.00  0.00     0.042 A 
HETATM   32  C   UNL     1      40.570 -11.512   1.704  1.00  0.00     0.014 A 
HETATM   33  C   UNL     1      37.783 -11.057   1.766  1.00  0.00     0.030 A 
HETATM   34  N   UNL     1      38.287 -10.098   4.033  1.00  0.00    -0.365 N 
HETATM   35  C   UNL     1      38.389 -11.639   0.648  1.00  0.00     0.002 A 
HETATM   36  C   UNL     1      39.763 -11.859   0.613  1.00  0.00     0.001 A 
HETATM   37  H   UNL     1      37.357  -9.792   4.288  1.00  0.00     0.165 HD
HETATM   38  C   UNL     1      39.409  -9.949   4.802  1.00  0.00     0.096 A 
ENDBRANCH  28  29
ENDBRANCH   1  28
TORSDOF 7
ENDMDL
