MODEL 1
REMARK VINA RESULT:      -9.0      0.000      0.000
REMARK  7 active torsions:
REMARK  status: ('A' for Active; 'I' for Inactive)
REMARK       I    between atoms: C_2  and  N_3 
REMARK    1  A    between atoms: N_3  and  C_4 
REMARK    2  A    between atoms: N_9  and  C_10 
REMARK    3  A    between atoms: C_10  and  C_11 
REMARK    4  A    between atoms: C_11  and  C_12 
REMARK    5  A    between atoms: C_12  and  O_13 
REMARK    6  A    between atoms: O_13  and  C_14 
REMARK    7  A    between atoms: C_17  and  C_18 
REMARK       I    between atoms: N_30  and  C_31 
ROOT
HETATM    1  C   UNL     1      41.236 -12.192   1.908  1.00  0.00     0.191 C 
HETATM    2  S   UNL     1      42.194 -13.516   2.493  1.00  0.00    -0.042 SA
HETATM    3  C   UNL     1      41.885 -12.883   4.191  1.00  0.00     0.224 A 
HETATM    4  C   UNL     1      43.128 -12.049   4.610  1.00  0.00     0.271 A 
HETATM    5  O   UNL     1      43.501 -11.014   4.072  1.00  0.00    -0.269 OA
HETATM    6  N   UNL     1      43.734 -12.725   5.686  1.00  0.00    -0.314 N 
HETATM    7  C   UNL     1      42.957 -13.842   6.059  1.00  0.00     0.047 A 
HETATM    8  C   UNL     1      41.848 -13.976   5.212  1.00  0.00     0.019 A 
HETATM    9  C   UNL     1      43.171 -14.723   7.105  1.00  0.00     0.030 A 
HETATM   10  C   UNL     1      42.248 -15.756   7.293  1.00  0.00     0.002 A 
HETATM   11  C   UNL     1      41.137 -15.892   6.446  1.00  0.00     0.001 A 
HETATM   12  C   UNL     1      40.928 -14.998   5.394  1.00  0.00     0.013 A 
HETATM   13  N   UNL     1      40.728 -12.006   4.036  1.00  0.00    -0.201 N 
HETATM   14  C   UNL     1      40.136 -11.375   5.117  1.00  0.00     0.238 C 
HETATM   15  C   UNL     1      39.037 -10.398   4.778  1.00  0.00     0.119 C 
HETATM   16  O   UNL     1      40.470 -11.572   6.285  1.00  0.00    -0.272 OA
HETATM   17  N   UNL     1      40.497 -11.545   2.745  1.00  0.00    -0.141 NA
ENDROOT
BRANCH   6  18
HETATM   18  C   UNL     1      44.887 -12.276   6.457  1.00  0.00     0.134 C 
BRANCH  18  19
HETATM   19  C   UNL     1      44.788 -10.859   7.013  1.00  0.00     0.047 C 
BRANCH  19  20
HETATM   20  C   UNL     1      46.057 -10.411   7.728  1.00  0.00     0.177 C 
BRANCH  20  21
HETATM   21  O   UNL     1      45.866  -9.037   8.062  1.00  0.00    -0.351 OA
BRANCH  21  22
HETATM   22  C   UNL     1      45.008  -8.742   9.078  1.00  0.00     0.068 A 
HETATM   23  C   UNL     1      44.021  -7.764   9.062  1.00  0.00     0.037 A 
HETATM   24  C   UNL     1      43.198  -7.571  10.182  1.00  0.00     0.011 A 
HETATM   25  C   UNL     1      43.340  -8.353  11.342  1.00  0.00    -0.050 A 
HETATM   26  C   UNL     1      44.343  -9.338  11.332  1.00  0.00     0.011 A 
HETATM   27  C   UNL     1      45.160  -9.530  10.215  1.00  0.00     0.037 A 
BRANCH  25  28
HETATM   28  C   UNL     1      42.454  -8.170  12.586  1.00  0.00    -0.024 C 
HETATM   29  C   UNL     1      41.175  -7.343  12.326  1.00  0.00     0.019 C 
HETATM   30  C   UNL     1      42.007  -9.551  13.111  1.00  0.00     0.019 C 
HETATM   31  C   UNL     1      43.253  -7.442  13.689  1.00  0.00     0.019 C 
ENDBRANCH  25  28
ENDBRANCH  21  22
ENDBRANCH  20  21
ENDBRANCH  19  20
ENDBRANCH  18  19
ENDBRANCH   6  18
BRANCH   1  32
HETATM   32  N   UNL     1      41.362 -11.960   0.570  1.00  0.00    -0.305 N 
HETATM   33  C   UNL     1      40.747 -12.569  -0.497  1.00  0.00     0.219 C 
HETATM   34  C   UNL     1      39.647 -13.558  -0.229  1.00  0.00     0.117 C 
HETATM   35  O   UNL     1      41.101 -12.286  -1.642  1.00  0.00    -0.274 OA
HETATM   36  H   UNL     1      41.996 -11.220   0.302  1.00  0.00     0.171 HD
ENDBRANCH   1  32
TORSDOF 7
ENDMDL
MODEL 2
REMARK VINA RESULT:      -8.8      4.489      8.935
REMARK  7 active torsions:
REMARK  status: ('A' for Active; 'I' for Inactive)
REMARK       I    between atoms: C_2  and  N_3 
REMARK    1  A    between atoms: N_3  and  C_4 
REMARK    2  A    between atoms: N_9  and  C_10 
REMARK    3  A    between atoms: C_10  and  C_11 
REMARK    4  A    between atoms: C_11  and  C_12 
REMARK    5  A    between atoms: C_12  and  O_13 
REMARK    6  A    between atoms: O_13  and  C_14 
REMARK    7  A    between atoms: C_17  and  C_18 
REMARK       I    between atoms: N_30  and  C_31 
ROOT
HETATM    1  C   UNL     1      40.867 -12.815   6.015  1.00  0.00     0.191 C 
HETATM    2  S   UNL     1      40.495 -14.489   5.749  1.00  0.00    -0.042 SA
HETATM    3  C   UNL     1      41.512 -14.388   4.221  1.00  0.00     0.224 A 
HETATM    4  C   UNL     1      40.540 -14.180   3.027  1.00  0.00     0.271 A 
HETATM    5  O   UNL     1      39.823 -13.200   2.859  1.00  0.00    -0.269 OA
HETATM    6  N   UNL     1      40.629 -15.328   2.218  1.00  0.00    -0.314 N 
HETATM    7  C   UNL     1      41.624 -16.197   2.713  1.00  0.00     0.047 A 
HETATM    8  C   UNL     1      42.183 -15.684   3.892  1.00  0.00     0.019 A 
HETATM    9  C   UNL     1      42.064 -17.392   2.172  1.00  0.00     0.030 A 
HETATM   10  C   UNL     1      43.083 -18.080   2.837  1.00  0.00     0.002 A 
HETATM   11  C   UNL     1      43.645 -17.568   4.018  1.00  0.00     0.001 A 
HETATM   12  C   UNL     1      43.196 -16.360   4.556  1.00  0.00     0.013 A 
HETATM   13  N   UNL     1      42.323 -13.189   4.415  1.00  0.00    -0.201 N 
HETATM   14  C   UNL     1      43.283 -12.796   3.497  1.00  0.00     0.238 C 
HETATM   15  C   UNL     1      43.940 -11.466   3.773  1.00  0.00     0.119 C 
HETATM   16  O   UNL     1      43.592 -13.462   2.510  1.00  0.00    -0.272 OA
HETATM   17  N   UNL     1      41.832 -12.281   5.346  1.00  0.00    -0.141 NA
ENDROOT
BRANCH   6  18
HETATM   18  C   UNL     1      39.955 -15.550   0.944  1.00  0.00     0.134 C 
BRANCH  18  19
HETATM   19  C   UNL     1      40.506 -14.752  -0.234  1.00  0.00     0.047 C 
BRANCH  19  20
HETATM   20  C   UNL     1      39.421 -14.035  -1.027  1.00  0.00     0.177 C 
BRANCH  20  21
HETATM   21  O   UNL     1      39.134 -12.830  -0.316  1.00  0.00    -0.351 OA
BRANCH  21  22
HETATM   22  C   UNL     1      39.821 -11.706  -0.664  1.00  0.00     0.068 A 
HETATM   23  C   UNL     1      40.961 -11.214  -0.040  1.00  0.00     0.037 A 
HETATM   24  C   UNL     1      41.574 -10.043  -0.510  1.00  0.00     0.011 A 
HETATM   25  C   UNL     1      41.065  -9.338  -1.614  1.00  0.00    -0.050 A 
HETATM   26  C   UNL     1      39.912  -9.858  -2.230  1.00  0.00     0.011 A 
HETATM   27  C   UNL     1      39.304 -11.026  -1.763  1.00  0.00     0.037 A 
BRANCH  25  28
HETATM   28  C   UNL     1      41.712  -8.053  -2.157  1.00  0.00    -0.024 C 
HETATM   29  C   UNL     1      40.963  -6.761  -1.757  1.00  0.00     0.019 C 
HETATM   30  C   UNL     1      43.153  -7.931  -1.618  1.00  0.00     0.019 C 
HETATM   31  C   UNL     1      41.748  -8.101  -3.699  1.00  0.00     0.019 C 
ENDBRANCH  25  28
ENDBRANCH  21  22
ENDBRANCH  20  21
ENDBRANCH  19  20
ENDBRANCH  18  19
ENDBRANCH   6  18
BRANCH   1  32
HETATM   32  N   UNL     1      40.073 -12.208   6.944  1.00  0.00    -0.305 N 
HETATM   33  C   UNL     1      39.151 -11.199   6.799  1.00  0.00     0.219 C 
HETATM   34  C   UNL     1      38.800 -10.734   5.413  1.00  0.00     0.117 C 
HETATM   35  O   UNL     1      38.628 -10.710   7.801  1.00  0.00    -0.274 OA
HETATM   36  H   UNL     1      40.156 -12.547   7.892  1.00  0.00     0.171 HD
ENDBRANCH   1  32
TORSDOF 7
ENDMDL
MODEL 3
REMARK VINA RESULT:      -8.5      5.404      9.689
REMARK  7 active torsions:
REMARK  status: ('A' for Active; 'I' for Inactive)
REMARK       I    between atoms: C_2  and  N_3 
REMARK    1  A    between atoms: N_3  and  C_4 
REMARK    2  A    between atoms: N_9  and  C_10 
REMARK    3  A    between atoms: C_10  and  C_11 
REMARK    4  A    between atoms: C_11  and  C_12 
REMARK    5  A    between atoms: C_12  and  O_13 
REMARK    6  A    between atoms: O_13  and  C_14 
REMARK    7  A    between atoms: C_17  and  C_18 
REMARK       I    between atoms: N_30  and  C_31 
ROOT
HETATM    1  C   UNL     1      42.521 -17.366   2.733  1.00  0.00     0.191 C 
HETATM    2  S   UNL     1      43.032 -16.032   1.746  1.00  0.00    -0.042 SA
HETATM    3  C   UNL     1      41.839 -14.990   2.680  1.00  0.00     0.224 A 
HETATM    4  C   UNL     1      40.547 -14.880   1.824  1.00  0.00     0.271 A 
HETATM    5  O   UNL     1      39.812 -15.815   1.527  1.00  0.00    -0.269 OA
HETATM    6  N   UNL     1      40.415 -13.531   1.447  1.00  0.00    -0.314 N 
HETATM    7  C   UNL     1      41.426 -12.755   2.053  1.00  0.00     0.047 A 
HETATM    8  C   UNL     1      42.290 -13.568   2.799  1.00  0.00     0.019 A 
HETATM    9  C   UNL     1      41.607 -11.385   1.990  1.00  0.00     0.030 A 
HETATM   10  C   UNL     1      42.682 -10.831   2.693  1.00  0.00     0.002 A 
HETATM   11  C   UNL     1      43.548 -11.644   3.441  1.00  0.00     0.001 A 
HETATM   12  C   UNL     1      43.357 -13.025   3.500  1.00  0.00     0.013 A 
HETATM   13  N   UNL     1      41.568 -15.762   3.890  1.00  0.00    -0.201 N 
HETATM   14  C   UNL     1      40.751 -15.280   4.899  1.00  0.00     0.238 C 
HETATM   15  C   UNL     1      40.463 -16.248   6.020  1.00  0.00     0.119 C 
HETATM   16  O   UNL     1      40.272 -14.147   4.903  1.00  0.00    -0.272 OA
HETATM   17  N   UNL     1      41.852 -17.120   3.807  1.00  0.00    -0.141 NA
ENDROOT
BRANCH   6  18
HETATM   18  C   UNL     1      39.311 -12.939   0.702  1.00  0.00     0.134 C 
BRANCH  18  19
HETATM   19  C   UNL     1      39.208 -13.363  -0.760  1.00  0.00     0.047 C 
BRANCH  19  20
HETATM   20  C   UNL     1      39.446 -12.214  -1.731  1.00  0.00     0.177 C 
BRANCH  20  21
HETATM   21  O   UNL     1      40.832 -11.888  -1.636  1.00  0.00    -0.351 OA
BRANCH  21  22
HETATM   22  C   UNL     1      41.216 -10.628  -1.985  1.00  0.00     0.068 A 
HETATM   23  C   UNL     1      41.948  -9.746  -1.200  1.00  0.00     0.037 A 
HETATM   24  C   UNL     1      42.283  -8.474  -1.690  1.00  0.00     0.011 A 
HETATM   25  C   UNL     1      41.896  -8.056  -2.975  1.00  0.00    -0.050 A 
HETATM   26  C   UNL     1      41.158  -8.969  -3.751  1.00  0.00     0.011 A 
HETATM   27  C   UNL     1      40.829 -10.235  -3.262  1.00  0.00     0.037 A 
BRANCH  25  28
HETATM   28  C   UNL     1      42.246  -6.671  -3.545  1.00  0.00    -0.024 C 
HETATM   29  C   UNL     1      42.995  -6.723  -4.896  1.00  0.00     0.019 C 
HETATM   30  C   UNL     1      40.952  -5.861  -3.770  1.00  0.00     0.019 C 
HETATM   31  C   UNL     1      43.152  -5.915  -2.549  1.00  0.00     0.019 C 
ENDBRANCH  25  28
ENDBRANCH  21  22
ENDBRANCH  20  21
ENDBRANCH  19  20
ENDBRANCH  18  19
ENDBRANCH   6  18
BRANCH   1  32
HETATM   32  N   UNL     1      42.896 -18.588   2.256  1.00  0.00    -0.305 N 
HETATM   33  C   UNL     1      43.766 -19.514   2.780  1.00  0.00     0.219 C 
HETATM   34  C   UNL     1      44.324 -19.284   4.157  1.00  0.00     0.117 C 
HETATM   35  O   UNL     1      44.058 -20.511   2.118  1.00  0.00    -0.274 OA
HETATM   36  H   UNL     1      42.471 -18.879   1.388  1.00  0.00     0.171 HD
ENDBRANCH   1  32
TORSDOF 7
ENDMDL
MODEL 4
REMARK VINA RESULT:      -8.5      3.867      9.513
REMARK  7 active torsions:
REMARK  status: ('A' for Active; 'I' for Inactive)
REMARK       I    between atoms: C_2  and  N_3 
REMARK    1  A    between atoms: N_3  and  C_4 
REMARK    2  A    between atoms: N_9  and  C_10 
REMARK    3  A    between atoms: C_10  and  C_11 
REMARK    4  A    between atoms: C_11  and  C_12 
REMARK    5  A    between atoms: C_12  and  O_13 
REMARK    6  A    between atoms: O_13  and  C_14 
REMARK    7  A    between atoms: C_17  and  C_18 
REMARK       I    between atoms: N_30  and  C_31 
ROOT
HETATM    1  C   UNL     1      42.145  -8.460  12.170  1.00  0.00     0.191 C 
HETATM    2  S   UNL     1      42.691  -9.949  11.465  1.00  0.00    -0.042 SA
HETATM    3  C   UNL     1      42.889  -9.033   9.884  1.00  0.00     0.224 A 
HETATM    4  C   UNL     1      41.626  -9.311   9.022  1.00  0.00     0.271 A 
HETATM    5  O   UNL     1      40.483  -8.973   9.311  1.00  0.00    -0.269 OA
HETATM    6  N   UNL     1      42.048 -10.033   7.891  1.00  0.00    -0.314 N 
HETATM    7  C   UNL     1      43.454 -10.158   7.889  1.00  0.00     0.047 A 
HETATM    8  C   UNL     1      44.000  -9.576   9.041  1.00  0.00     0.019 A 
HETATM    9  C   UNL     1      44.260 -10.737   6.926  1.00  0.00     0.030 A 
HETATM   10  C   UNL     1      45.643 -10.729   7.135  1.00  0.00     0.002 A 
HETATM   11  C   UNL     1      46.193 -10.147   8.289  1.00  0.00     0.001 A 
HETATM   12  C   UNL     1      45.371  -9.564   9.255  1.00  0.00     0.013 A 
HETATM   13  N   UNL     1      42.915  -7.630  10.289  1.00  0.00    -0.201 N 
HETATM   14  C   UNL     1      43.118  -6.607   9.378  1.00  0.00     0.238 C 
HETATM   15  C   UNL     1      42.983  -5.209   9.930  1.00  0.00     0.119 C 
HETATM   16  O   UNL     1      43.382  -6.796   8.192  1.00  0.00    -0.272 OA
HETATM   17  N   UNL     1      42.359  -7.359  11.534  1.00  0.00    -0.141 NA
ENDROOT
BRANCH   6  18
HETATM   18  C   UNL     1      41.221 -10.447   6.764  1.00  0.00     0.134 C 
BRANCH  18  19
HETATM   19  C   UNL     1      40.829  -9.334   5.798  1.00  0.00     0.047 C 
BRANCH  19  20
HETATM   20  C   UNL     1      41.662  -9.332   4.523  1.00  0.00     0.177 C 
BRANCH  20  21
HETATM   21  O   UNL     1      40.978 -10.173   3.594  1.00  0.00    -0.351 OA
BRANCH  21  22
HETATM   22  C   UNL     1      41.473 -11.424   3.381  1.00  0.00     0.068 A 
HETATM   23  C   UNL     1      42.813 -11.763   3.237  1.00  0.00     0.037 A 
HETATM   24  C   UNL     1      43.185 -13.100   3.029  1.00  0.00     0.011 A 
HETATM   25  C   UNL     1      42.229 -14.128   2.963  1.00  0.00    -0.050 A 
HETATM   26  C   UNL     1      40.880 -13.759   3.115  1.00  0.00     0.011 A 
HETATM   27  C   UNL     1      40.512 -12.428   3.325  1.00  0.00     0.037 A 
BRANCH  25  28
HETATM   28  C   UNL     1      42.602 -15.603   2.738  1.00  0.00    -0.024 C 
HETATM   29  C   UNL     1      41.384 -16.524   2.497  1.00  0.00     0.019 C 
HETATM   30  C   UNL     1      43.518 -15.723   1.502  1.00  0.00     0.019 C 
HETATM   31  C   UNL     1      43.347 -16.145   3.977  1.00  0.00     0.019 C 
ENDBRANCH  25  28
ENDBRANCH  21  22
ENDBRANCH  20  21
ENDBRANCH  19  20
ENDBRANCH  18  19
ENDBRANCH   6  18
BRANCH   1  32
HETATM   32  N   UNL     1      41.524  -8.608  13.376  1.00  0.00    -0.305 N 
HETATM   33  C   UNL     1      41.846  -8.093  14.608  1.00  0.00     0.219 C 
HETATM   34  C   UNL     1      42.958  -7.085  14.702  1.00  0.00     0.117 C 
HETATM   35  O   UNL     1      41.212  -8.456  15.599  1.00  0.00    -0.274 OA
HETATM   36  H   UNL     1      40.688  -9.175  13.381  1.00  0.00     0.171 HD
ENDBRANCH   1  32
TORSDOF 7
ENDMDL
MODEL 5
REMARK VINA RESULT:      -8.5      4.472      9.300
REMARK  7 active torsions:
REMARK  status: ('A' for Active; 'I' for Inactive)
REMARK       I    between atoms: C_2  and  N_3 
REMARK    1  A    between atoms: N_3  and  C_4 
REMARK    2  A    between atoms: N_9  and  C_10 
REMARK    3  A    between atoms: C_10  and  C_11 
REMARK    4  A    between atoms: C_11  and  C_12 
REMARK    5  A    between atoms: C_12  and  O_13 
REMARK    6  A    between atoms: O_13  and  C_14 
REMARK    7  A    between atoms: C_17  and  C_18 
REMARK       I    between atoms: N_30  and  C_31 
ROOT
HETATM    1  C   UNL     1      40.851 -12.616   5.993  1.00  0.00     0.191 C 
HETATM    2  S   UNL     1      40.474 -14.298   5.783  1.00  0.00    -0.042 SA
HETATM    3  C   UNL     1      41.496 -14.252   4.256  1.00  0.00     0.224 A 
HETATM    4  C   UNL     1      40.527 -14.082   3.052  1.00  0.00     0.271 A 
HETATM    5  O   UNL     1      39.814 -13.107   2.849  1.00  0.00    -0.269 OA
HETATM    6  N   UNL     1      40.615 -15.257   2.283  1.00  0.00    -0.314 N 
HETATM    7  C   UNL     1      41.606 -16.113   2.811  1.00  0.00     0.047 A 
HETATM    8  C   UNL     1      42.163 -15.561   3.973  1.00  0.00     0.019 A 
HETATM    9  C   UNL     1      42.043 -17.327   2.313  1.00  0.00     0.030 A 
HETATM   10  C   UNL     1      43.058 -17.994   3.004  1.00  0.00     0.002 A 
HETATM   11  C   UNL     1      43.618 -17.444   4.168  1.00  0.00     0.001 A 
HETATM   12  C   UNL     1      43.172 -16.218   4.663  1.00  0.00     0.013 A 
HETATM   13  N   UNL     1      42.310 -13.050   4.411  1.00  0.00    -0.201 N 
HETATM   14  C   UNL     1      43.274 -12.692   3.483  1.00  0.00     0.238 C 
HETATM   15  C   UNL     1      43.935 -11.356   3.715  1.00  0.00     0.119 C 
HETATM   16  O   UNL     1      43.583 -13.392   2.520  1.00  0.00    -0.272 OA
HETATM   17  N   UNL     1      41.819 -12.109   5.309  1.00  0.00    -0.141 NA
ENDROOT
BRANCH   6  18
HETATM   18  C   UNL     1      39.944 -15.520   1.016  1.00  0.00     0.134 C 
BRANCH  18  19
HETATM   19  C   UNL     1      40.474 -14.734  -0.179  1.00  0.00     0.047 C 
BRANCH  19  20
HETATM   20  C   UNL     1      39.380 -14.339  -1.163  1.00  0.00     0.177 C 
BRANCH  20  21
HETATM   21  O   UNL     1      39.659 -12.994  -1.554  1.00  0.00    -0.351 OA
BRANCH  21  22
HETATM   22  C   UNL     1      38.635 -12.096  -1.519  1.00  0.00     0.068 A 
HETATM   23  C   UNL     1      37.986 -11.546  -2.617  1.00  0.00     0.037 A 
HETATM   24  C   UNL     1      36.937 -10.633  -2.435  1.00  0.00     0.011 A 
HETATM   25  C   UNL     1      36.510 -10.250  -1.152  1.00  0.00    -0.050 A 
HETATM   26  C   UNL     1      37.181 -10.821  -0.056  1.00  0.00     0.011 A 
HETATM   27  C   UNL     1      38.224 -11.733  -0.239  1.00  0.00     0.037 A 
BRANCH  25  28
HETATM   28  C   UNL     1      35.363  -9.252  -0.915  1.00  0.00    -0.024 C 
HETATM   29  C   UNL     1      34.130  -9.496  -1.814  1.00  0.00     0.019 C 
HETATM   30  C   UNL     1      34.888  -9.348   0.550  1.00  0.00     0.019 C 
HETATM   31  C   UNL     1      35.857  -7.817  -1.196  1.00  0.00     0.019 C 
ENDBRANCH  25  28
ENDBRANCH  21  22
ENDBRANCH  20  21
ENDBRANCH  19  20
ENDBRANCH  18  19
ENDBRANCH   6  18
BRANCH   1  32
HETATM   32  N   UNL     1      40.057 -11.975   6.899  1.00  0.00    -0.305 N 
HETATM   33  C   UNL     1      39.137 -10.972   6.716  1.00  0.00     0.219 C 
HETATM   34  C   UNL     1      38.788 -10.556   5.314  1.00  0.00     0.117 C 
HETATM   35  O   UNL     1      38.612 -10.446   7.699  1.00  0.00    -0.274 OA
HETATM   36  H   UNL     1      40.138 -12.280   7.858  1.00  0.00     0.171 HD
ENDBRANCH   1  32
TORSDOF 7
ENDMDL
MODEL 6
REMARK VINA RESULT:      -8.4      4.422      9.577
REMARK  7 active torsions:
REMARK  status: ('A' for Active; 'I' for Inactive)
REMARK       I    between atoms: C_2  and  N_3 
REMARK    1  A    between atoms: N_3  and  C_4 
REMARK    2  A    between atoms: N_9  and  C_10 
REMARK    3  A    between atoms: C_10  and  C_11 
REMARK    4  A    between atoms: C_11  and  C_12 
REMARK    5  A    between atoms: C_12  and  O_13 
REMARK    6  A    between atoms: O_13  and  C_14 
REMARK    7  A    between atoms: C_17  and  C_18 
REMARK       I    between atoms: N_30  and  C_31 
ROOT
HETATM    1  C   UNL     1      40.695  -7.165  12.574  1.00  0.00     0.191 C 
HETATM    2  S   UNL     1      41.122  -8.798  12.169  1.00  0.00    -0.042 SA
HETATM    3  C   UNL     1      41.970  -8.123  10.685  1.00  0.00     0.224 A 
HETATM    4  C   UNL     1      40.999  -8.281   9.481  1.00  0.00     0.271 A 
HETATM    5  O   UNL     1      39.915  -7.722   9.367  1.00  0.00    -0.269 OA
HETATM    6  N   UNL     1      41.593  -9.194   8.589  1.00  0.00    -0.314 N 
HETATM    7  C   UNL     1      42.878  -9.556   9.046  1.00  0.00     0.047 A 
HETATM    8  C   UNL     1      43.153  -8.944  10.277  1.00  0.00     0.019 A 
HETATM    9  C   UNL     1      43.807 -10.374   8.429  1.00  0.00     0.030 A 
HETATM   10  C   UNL     1      45.033 -10.577   9.070  1.00  0.00     0.002 A 
HETATM   11  C   UNL     1      45.311  -9.965  10.303  1.00  0.00     0.001 A 
HETATM   12  C   UNL     1      44.368  -9.140  10.918  1.00  0.00     0.013 A 
HETATM   13  N   UNL     1      42.150  -6.707  10.994  1.00  0.00    -0.201 N 
HETATM   14  C   UNL     1      42.820  -5.849  10.138  1.00  0.00     0.238 C 
HETATM   15  C   UNL     1      42.806  -4.394  10.535  1.00  0.00     0.119 C 
HETATM   16  O   UNL     1      43.389  -6.220   9.113  1.00  0.00    -0.272 OA
HETATM   17  N   UNL     1      41.308  -6.199  11.976  1.00  0.00    -0.141 NA
ENDROOT
BRANCH   6  18
HETATM   18  C   UNL     1      41.083  -9.591   7.283  1.00  0.00     0.134 C 
BRANCH  18  19
HETATM   19  C   UNL     1      41.702  -8.867   6.092  1.00  0.00     0.047 C 
BRANCH  19  20
HETATM   20  C   UNL     1      41.568  -9.643   4.788  1.00  0.00     0.177 C 
BRANCH  20  21
HETATM   21  O   UNL     1      42.828 -10.276   4.566  1.00  0.00    -0.351 OA
BRANCH  21  22
HETATM   22  C   UNL     1      42.832 -11.615   4.309  1.00  0.00     0.068 A 
HETATM   23  C   UNL     1      42.925 -12.631   5.251  1.00  0.00     0.037 A 
HETATM   24  C   UNL     1      42.910 -13.974   4.846  1.00  0.00     0.011 A 
HETATM   25  C   UNL     1      42.799 -14.333   3.492  1.00  0.00    -0.050 A 
HETATM   26  C   UNL     1      42.703 -13.285   2.557  1.00  0.00     0.011 A 
HETATM   27  C   UNL     1      42.715 -11.949   2.963  1.00  0.00     0.037 A 
BRANCH  25  28
HETATM   28  C   UNL     1      42.777 -15.794   3.012  1.00  0.00    -0.024 C 
HETATM   29  C   UNL     1      43.519 -16.770   3.954  1.00  0.00     0.019 C 
HETATM   30  C   UNL     1      41.317 -16.283   2.905  1.00  0.00     0.019 C 
HETATM   31  C   UNL     1      43.450 -15.896   1.626  1.00  0.00     0.019 C 
ENDBRANCH  25  28
ENDBRANCH  21  22
ENDBRANCH  20  21
ENDBRANCH  19  20
ENDBRANCH  18  19
ENDBRANCH   6  18
BRANCH   1  32
HETATM   32  N   UNL     1      39.720  -7.061  13.522  1.00  0.00    -0.305 N 
HETATM   33  C   UNL     1      38.388  -6.751  13.393  1.00  0.00     0.219 C 
HETATM   34  C   UNL     1      37.804  -6.632  12.013  1.00  0.00     0.117 C 
HETATM   35  O   UNL     1      37.705  -6.589  14.405  1.00  0.00    -0.274 OA
HETATM   36  H   UNL     1      40.002  -7.248  14.474  1.00  0.00     0.171 HD
ENDBRANCH   1  32
TORSDOF 7
ENDMDL
MODEL 7
REMARK VINA RESULT:      -8.3      3.386      8.469
REMARK  7 active torsions:
REMARK  status: ('A' for Active; 'I' for Inactive)
REMARK       I    between atoms: C_2  and  N_3 
REMARK    1  A    between atoms: N_3  and  C_4 
REMARK    2  A    between atoms: N_9  and  C_10 
REMARK    3  A    between atoms: C_10  and  C_11 
REMARK    4  A    between atoms: C_11  and  C_12 
REMARK    5  A    between atoms: C_12  and  O_13 
REMARK    6  A    between atoms: O_13  and  C_14 
REMARK    7  A    between atoms: C_17  and  C_18 
REMARK       I    between atoms: N_30  and  C_31 
ROOT
HETATM    1  C   UNL     1      40.276 -11.481   6.260  1.00  0.00     0.191 C 
HETATM    2  S   UNL     1      40.062 -13.155   5.851  1.00  0.00    -0.042 SA
HETATM    3  C   UNL     1      41.885 -13.256   5.650  1.00  0.00     0.224 A 
HETATM    4  C   UNL     1      42.195 -13.123   4.133  1.00  0.00     0.271 A 
HETATM    5  O   UNL     1      41.969 -12.132   3.448  1.00  0.00    -0.269 OA
HETATM    6  N   UNL     1      42.745 -14.349   3.715  1.00  0.00    -0.314 N 
HETATM    7  C   UNL     1      42.911 -15.211   4.821  1.00  0.00     0.047 A 
HETATM    8  C   UNL     1      42.426 -14.609   5.990  1.00  0.00     0.019 A 
HETATM    9  C   UNL     1      43.475 -16.473   4.845  1.00  0.00     0.030 A 
HETATM   10  C   UNL     1      43.547 -17.138   6.073  1.00  0.00     0.002 A 
HETATM   11  C   UNL     1      43.062 -16.537   7.246  1.00  0.00     0.001 A 
HETATM   12  C   UNL     1      42.495 -15.262   7.212  1.00  0.00     0.013 A 
HETATM   13  N   UNL     1      42.385 -12.083   6.362  1.00  0.00    -0.201 N 
HETATM   14  C   UNL     1      43.740 -11.830   6.500  1.00  0.00     0.238 C 
HETATM   15  C   UNL     1      44.093 -10.512   7.144  1.00  0.00     0.119 C 
HETATM   16  O   UNL     1      44.617 -12.606   6.123  1.00  0.00    -0.272 OA
HETATM   17  N   UNL     1      41.460 -11.064   6.557  1.00  0.00    -0.141 NA
ENDROOT
BRANCH   6  18
HETATM   18  C   UNL     1      43.260 -14.666   2.388  1.00  0.00     0.134 C 
BRANCH  18  19
HETATM   19  C   UNL     1      42.407 -15.630   1.571  1.00  0.00     0.047 C 
BRANCH  19  20
HETATM   20  C   UNL     1      40.945 -15.642   2.000  1.00  0.00     0.177 C 
BRANCH  20  21
HETATM   21  O   UNL     1      40.175 -15.500   0.807  1.00  0.00    -0.351 OA
BRANCH  21  22
HETATM   22  C   UNL     1      40.003 -14.246   0.304  1.00  0.00     0.068 A 
HETATM   23  C   UNL     1      39.783 -13.089   1.041  1.00  0.00     0.037 A 
HETATM   24  C   UNL     1      39.630 -11.855   0.391  1.00  0.00     0.011 A 
HETATM   25  C   UNL     1      39.697 -11.747  -1.008  1.00  0.00    -0.050 A 
HETATM   26  C   UNL     1      39.923 -12.932  -1.732  1.00  0.00     0.011 A 
HETATM   27  C   UNL     1      40.078 -14.159  -1.083  1.00  0.00     0.037 A 
BRANCH  25  28
HETATM   28  C   UNL     1      39.535 -10.411  -1.753  1.00  0.00    -0.024 C 
HETATM   29  C   UNL     1      39.182 -10.570  -3.249  1.00  0.00     0.019 C 
HETATM   30  C   UNL     1      38.403  -9.588  -1.101  1.00  0.00     0.019 C 
HETATM   31  C   UNL     1      40.854  -9.612  -1.676  1.00  0.00     0.019 C 
ENDBRANCH  25  28
ENDBRANCH  21  22
ENDBRANCH  20  21
ENDBRANCH  19  20
ENDBRANCH  18  19
ENDBRANCH   6  18
BRANCH   1  32
HETATM   32  N   UNL     1      39.127 -10.747   6.229  1.00  0.00    -0.305 N 
HETATM   33  C   UNL     1      38.563 -10.026   5.205  1.00  0.00     0.219 C 
HETATM   34  C   UNL     1      39.169 -10.125   3.832  1.00  0.00     0.117 C 
HETATM   35  O   UNL     1      37.573  -9.329   5.429  1.00  0.00    -0.274 OA
HETATM   36  H   UNL     1      38.587 -10.727   7.083  1.00  0.00     0.171 HD
ENDBRANCH   1  32
TORSDOF 7
ENDMDL
MODEL 8
REMARK VINA RESULT:      -8.2     19.553     21.346
REMARK  7 active torsions:
REMARK  status: ('A' for Active; 'I' for Inactive)
REMARK       I    between atoms: C_2  and  N_3 
REMARK    1  A    between atoms: N_3  and  C_4 
REMARK    2  A    between atoms: N_9  and  C_10 
REMARK    3  A    between atoms: C_10  and  C_11 
REMARK    4  A    between atoms: C_11  and  C_12 
REMARK    5  A    between atoms: C_12  and  O_13 
REMARK    6  A    between atoms: O_13  and  C_14 
REMARK    7  A    between atoms: C_17  and  C_18 
REMARK       I    between atoms: N_30  and  C_31 
ROOT
HETATM    1  C   UNL     1      43.051 -30.937   1.849  1.00  0.00     0.191 C 
HETATM    2  S   UNL     1      43.101 -29.439   0.973  1.00  0.00    -0.042 SA
HETATM    3  C   UNL     1      44.480 -30.152  -0.009  1.00  0.00     0.224 A 
HETATM    4  C   UNL     1      45.809 -29.620   0.598  1.00  0.00     0.271 A 
HETATM    5  O   UNL     1      46.218 -29.861   1.728  1.00  0.00    -0.269 OA
HETATM    6  N   UNL     1      46.412 -28.806  -0.379  1.00  0.00    -0.314 N 
HETATM    7  C   UNL     1      45.663 -28.843  -1.575  1.00  0.00     0.047 A 
HETATM    8  C   UNL     1      44.515 -29.632  -1.412  1.00  0.00     0.019 A 
HETATM    9  C   UNL     1      45.950 -28.237  -2.784  1.00  0.00     0.030 A 
HETATM   10  C   UNL     1      45.059 -28.430  -3.845  1.00  0.00     0.002 A 
HETATM   11  C   UNL     1      43.910 -29.220  -3.684  1.00  0.00     0.001 A 
HETATM   12  C   UNL     1      43.628 -29.829  -2.460  1.00  0.00     0.013 A 
HETATM   13  N   UNL     1      44.371 -31.590   0.221  1.00  0.00    -0.201 N 
HETATM   14  C   UNL     1      45.207 -32.499  -0.408  1.00  0.00     0.238 C 
HETATM   15  C   UNL     1      45.057 -33.934   0.036  1.00  0.00     0.119 C 
HETATM   16  O   UNL     1      46.030 -32.185  -1.266  1.00  0.00    -0.272 OA
HETATM   17  N   UNL     1      43.664 -31.961   1.359  1.00  0.00    -0.141 NA
ENDROOT
BRANCH   6  18
HETATM   18  C   UNL     1      47.712 -28.154  -0.287  1.00  0.00     0.134 C 
BRANCH  18  19
HETATM   19  C   UNL     1      48.854 -28.869  -1.001  1.00  0.00     0.047 C 
BRANCH  19  20
HETATM   20  C   UNL     1      49.209 -30.207  -0.363  1.00  0.00     0.177 C 
BRANCH  20  21
HETATM   21  O   UNL     1      50.426 -30.000   0.353  1.00  0.00    -0.351 OA
BRANCH  21  22
HETATM   22  C   UNL     1      50.603 -30.681   1.520  1.00  0.00     0.068 A 
HETATM   23  C   UNL     1      50.524 -32.058   1.687  1.00  0.00     0.037 A 
HETATM   24  C   UNL     1      50.737 -32.630   2.951  1.00  0.00     0.011 A 
HETATM   25  C   UNL     1      51.036 -31.840   4.075  1.00  0.00    -0.050 A 
HETATM   26  C   UNL     1      51.112 -30.450   3.879  1.00  0.00     0.011 A 
HETATM   27  C   UNL     1      50.903 -29.882   2.620  1.00  0.00     0.037 A 
BRANCH  25  28
HETATM   28  C   UNL     1      51.276 -32.433   5.473  1.00  0.00    -0.024 C 
HETATM   29  C   UNL     1      52.157 -31.548   6.383  1.00  0.00     0.019 C 
HETATM   30  C   UNL     1      49.924 -32.625   6.194  1.00  0.00     0.019 C 
HETATM   31  C   UNL     1      51.981 -33.801   5.343  1.00  0.00     0.019 C 
ENDBRANCH  25  28
ENDBRANCH  21  22
ENDBRANCH  20  21
ENDBRANCH  19  20
ENDBRANCH  18  19
ENDBRANCH   6  18
BRANCH   1  32
HETATM   32  N   UNL     1      42.339 -30.881   3.011  1.00  0.00    -0.305 N 
HETATM   33  C   UNL     1      41.020 -31.180   3.257  1.00  0.00     0.219 C 
HETATM   34  C   UNL     1      40.204 -31.806   2.160  1.00  0.00     0.117 C 
HETATM   35  O   UNL     1      40.543 -30.940   4.366  1.00  0.00    -0.274 OA
HETATM   36  H   UNL     1      42.846 -30.586   3.832  1.00  0.00     0.171 HD
ENDBRANCH   1  32
TORSDOF 7
ENDMDL
MODEL 9
REMARK VINA RESULT:      -8.2      6.282     10.843
REMARK  7 active torsions:
REMARK  status: ('A' for Active; 'I' for Inactive)
REMARK       I    between atoms: C_2  and  N_3 
REMARK    1  A    between atoms: N_3  and  C_4 
REMARK    2  A    between atoms: N_9  and  C_10 
REMARK    3  A    between atoms: C_10  and  C_11 
REMARK    4  A    between atoms: C_11  and  C_12 
REMARK    5  A    between atoms: C_12  and  O_13 
REMARK    6  A    between atoms: O_13  and  C_14 
REMARK    7  A    between atoms: C_17  and  C_18 
REMARK       I    between atoms: N_30  and  C_31 
ROOT
HETATM    1  C   UNL     1      40.518  -4.629  15.613  1.00  0.00     0.191 C 
HETATM    2  S   UNL     1      40.223  -6.317  15.338  1.00  0.00    -0.042 SA
HETATM    3  C   UNL     1      40.840  -6.063  13.626  1.00  0.00     0.224 A 
HETATM    4  C   UNL     1      39.600  -5.893  12.704  1.00  0.00     0.271 A 
HETATM    5  O   UNL     1      38.791  -4.975  12.767  1.00  0.00    -0.269 OA
HETATM    6  N   UNL     1      39.584  -6.994  11.827  1.00  0.00    -0.314 N 
HETATM    7  C   UNL     1      40.731  -7.791  12.025  1.00  0.00     0.047 A 
HETATM    8  C   UNL     1      41.511  -7.280  13.071  1.00  0.00     0.019 A 
HETATM    9  C   UNL     1      41.120  -8.919  11.325  1.00  0.00     0.030 A 
HETATM   10  C   UNL     1      42.318  -9.540  11.693  1.00  0.00     0.002 A 
HETATM   11  C   UNL     1      43.101  -9.030  12.740  1.00  0.00     0.001 A 
HETATM   12  C   UNL     1      42.701  -7.891  13.440  1.00  0.00     0.013 A 
HETATM   13  N   UNL     1      41.580  -4.806  13.699  1.00  0.00    -0.201 N 
HETATM   14  C   UNL     1      42.263  -4.292  12.610  1.00  0.00     0.238 C 
HETATM   15  C   UNL     1      42.864  -2.922  12.806  1.00  0.00     0.119 C 
HETATM   16  O   UNL     1      42.380  -4.886  11.539  1.00  0.00    -0.272 OA
HETATM   17  N   UNL     1      41.254  -3.984  14.772  1.00  0.00    -0.141 NA
ENDROOT
BRANCH   6  18
HETATM   18  C   UNL     1      38.647  -7.221  10.733  1.00  0.00     0.134 C 
BRANCH  18  19
HETATM   19  C   UNL     1      38.797  -6.284   9.540  1.00  0.00     0.047 C 
BRANCH  19  20
HETATM   20  C   UNL     1      39.337  -6.983   8.298  1.00  0.00     0.177 C 
BRANCH  20  21
HETATM   21  O   UNL     1      40.587  -6.363   7.999  1.00  0.00    -0.351 OA
BRANCH  21  22
HETATM   22  C   UNL     1      41.722  -7.095   8.182  1.00  0.00     0.068 A 
HETATM   23  C   UNL     1      42.875  -6.674   8.831  1.00  0.00     0.037 A 
HETATM   24  C   UNL     1      43.973  -7.539   8.954  1.00  0.00     0.011 A 
HETATM   25  C   UNL     1      43.943  -8.844   8.434  1.00  0.00    -0.050 A 
HETATM   26  C   UNL     1      42.763  -9.248   7.784  1.00  0.00     0.011 A 
HETATM   27  C   UNL     1      41.670  -8.386   7.664  1.00  0.00     0.037 A 
BRANCH  25  28
HETATM   28  C   UNL     1      45.127  -9.819   8.553  1.00  0.00    -0.024 C 
HETATM   29  C   UNL     1      46.445  -9.273   7.960  1.00  0.00     0.019 C 
HETATM   30  C   UNL     1      45.390 -10.136  10.040  1.00  0.00     0.019 C 
HETATM   31  C   UNL     1      44.797 -11.129   7.805  1.00  0.00     0.019 C 
ENDBRANCH  25  28
ENDBRANCH  21  22
ENDBRANCH  20  21
ENDBRANCH  19  20
ENDBRANCH  18  19
ENDBRANCH   6  18
BRANCH   1  32
HETATM   32  N   UNL     1      39.922  -4.134  16.736  1.00  0.00    -0.305 N 
HETATM   33  C   UNL     1      38.669  -3.598  16.911  1.00  0.00     0.219 C 
HETATM   34  C   UNL     1      37.690  -3.660  15.772  1.00  0.00     0.117 C 
HETATM   35  O   UNL     1      38.374  -3.093  17.995  1.00  0.00    -0.274 OA
HETATM   36  H   UNL     1      40.470  -4.167  17.584  1.00  0.00     0.171 HD
ENDBRANCH   1  32
TORSDOF 7
ENDMDL
MODEL 10
REMARK VINA RESULT:      -8.2      2.090      3.911
REMARK  7 active torsions:
REMARK  status: ('A' for Active; 'I' for Inactive)
REMARK       I    between atoms: C_2  and  N_3 
REMARK    1  A    between atoms: N_3  and  C_4 
REMARK    2  A    between atoms: N_9  and  C_10 
REMARK    3  A    between atoms: C_10  and  C_11 
REMARK    4  A    between atoms: C_11  and  C_12 
REMARK    5  A    between atoms: C_12  and  O_13 
REMARK    6  A    between atoms: O_13  and  C_14 
REMARK    7  A    between atoms: C_17  and  C_18 
REMARK       I    between atoms: N_30  and  C_31 
ROOT
HETATM    1  C   UNL     1      41.845 -13.635   2.067  1.00  0.00     0.191 C 
HETATM    2  S   UNL     1      42.201 -12.019   2.590  1.00  0.00    -0.042 SA
HETATM    3  C   UNL     1      41.919 -12.600   4.310  1.00  0.00     0.224 A 
HETATM    4  C   UNL     1      40.469 -12.203   4.704  1.00  0.00     0.271 A 
HETATM    5  O   UNL     1      39.449 -12.629   4.175  1.00  0.00    -0.269 OA
HETATM    6  N   UNL     1      40.568 -11.259   5.743  1.00  0.00    -0.314 N 
HETATM    7  C   UNL     1      41.917 -11.087   6.119  1.00  0.00     0.047 A 
HETATM    8  C   UNL     1      42.756 -11.864   5.309  1.00  0.00     0.019 A 
HETATM    9  C   UNL     1      42.429 -10.303   7.138  1.00  0.00     0.030 A 
HETATM   10  C   UNL     1      43.813 -10.304   7.336  1.00  0.00     0.002 A 
HETATM   11  C   UNL     1      44.655 -11.082   6.525  1.00  0.00     0.001 A 
HETATM   12  C   UNL     1      44.130 -11.871   5.501  1.00  0.00     0.013 A 
HETATM   13  N   UNL     1      42.027 -14.053   4.214  1.00  0.00    -0.201 N 
HETATM   14  C   UNL     1      41.938 -14.870   5.329  1.00  0.00     0.238 C 
HETATM   15  C   UNL     1      41.933 -16.353   5.050  1.00  0.00     0.119 C 
HETATM   16  O   UNL     1      41.856 -14.443   6.480  1.00  0.00    -0.272 OA
HETATM   17  N   UNL     1      41.843 -14.582   2.942  1.00  0.00    -0.141 NA
ENDROOT
BRANCH   6  18
HETATM   18  C   UNL     1      39.464 -10.660   6.483  1.00  0.00     0.134 C 
BRANCH  18  19
HETATM   19  C   UNL     1      38.819  -9.445   5.824  1.00  0.00     0.047 C 
BRANCH  19  20
HETATM   20  C   UNL     1      39.172  -8.135   6.518  1.00  0.00     0.177 C 
BRANCH  20  21
HETATM   21  O   UNL     1      38.839  -8.308   7.896  1.00  0.00    -0.351 OA
BRANCH  21  22
HETATM   22  C   UNL     1      39.860  -8.372   8.795  1.00  0.00     0.068 A 
HETATM   23  C   UNL     1      40.964  -7.531   8.846  1.00  0.00     0.037 A 
HETATM   24  C   UNL     1      41.943  -7.707   9.836  1.00  0.00     0.011 A 
HETATM   25  C   UNL     1      41.839  -8.725  10.799  1.00  0.00    -0.050 A 
HETATM   26  C   UNL     1      40.711  -9.562  10.729  1.00  0.00     0.011 A 
HETATM   27  C   UNL     1      39.737  -9.383   9.744  1.00  0.00     0.037 A 
BRANCH  25  28
HETATM   28  C   UNL     1      42.892  -8.945  11.899  1.00  0.00    -0.024 C 
HETATM   29  C   UNL     1      43.029  -7.757  12.878  1.00  0.00     0.019 C 
HETATM   30  C   UNL     1      42.514 -10.186  12.736  1.00  0.00     0.019 C 
HETATM   31  C   UNL     1      44.277  -9.169  11.255  1.00  0.00     0.019 C 
ENDBRANCH  25  28
ENDBRANCH  21  22
ENDBRANCH  20  21
ENDBRANCH  19  20
ENDBRANCH  18  19
ENDBRANCH   6  18
BRANCH   1  32
HETATM   32  N   UNL     1      41.597 -13.748   0.730  1.00  0.00    -0.305 N 
HETATM   33  C   UNL     1      40.458 -13.471   0.014  1.00  0.00     0.219 C 
HETATM   34  C   UNL     1      39.307 -12.803   0.715  1.00  0.00     0.117 C 
HETATM   35  O   UNL     1      40.409 -13.763  -1.182  1.00  0.00    -0.274 OA
HETATM   36  H   UNL     1      42.364 -14.076   0.160  1.00  0.00     0.171 HD
ENDBRANCH   1  32
TORSDOF 7
ENDMDL
