MODEL 1
REMARK VINA RESULT:      -7.8      0.000      0.000
REMARK  6 active torsions:
REMARK  status: ('A' for Active; 'I' for Inactive)
REMARK    1  A    between atoms: C_3  and  C_4 
REMARK    2  A    between atoms: C_4  and  O_5 
REMARK    3  A    between atoms: O_5  and  C_6 
REMARK    4  A    between atoms: C_9  and  C_10 
REMARK    5  A    between atoms: C_15  and  N_16 
REMARK       I    between atoms: N_16  and  C_17 
REMARK       I    between atoms: C_17  and  N_18 
REMARK    6  A    between atoms: N_18  and  C_19 
ROOT
HETATM    1  C   UNL     1      43.942 -20.686   4.458  1.00  0.00     0.147 C 
HETATM    2  C   UNL     1      43.721 -20.561   2.959  1.00  0.00    -0.016 C 
HETATM    3  N   UNL     1      43.537 -20.456   1.717  1.00  0.00    -0.101 N 
ENDROOT
BRANCH   1   4
HETATM    4  C   UNL     1      43.892 -19.334   5.128  1.00  0.00    -0.046 A 
HETATM    5  C   UNL     1      44.384 -18.195   4.473  1.00  0.00     0.011 A 
HETATM    6  C   UNL     1      44.403 -16.958   5.120  1.00  0.00     0.037 A 
HETATM    7  C   UNL     1      43.917 -16.850   6.419  1.00  0.00     0.069 A 
HETATM    8  C   UNL     1      43.449 -17.975   7.095  1.00  0.00     0.037 A 
HETATM    9  C   UNL     1      43.430 -19.213   6.448  1.00  0.00     0.011 A 
BRANCH   7  10
HETATM   10  O   UNL     1      44.012 -15.636   7.043  1.00  0.00    -0.347 OA
BRANCH  10  11
HETATM   11  C   UNL     1      42.725 -15.166   7.462  1.00  0.00     0.216 C 
BRANCH  11  12
HETATM   12  C   UNL     1      42.157 -14.237   6.408  1.00  0.00    -0.007 A 
HETATM   13  C   UNL     1      40.928 -14.566   5.808  1.00  0.00     0.011 A 
HETATM   14  C   UNL     1      40.325 -13.703   4.895  1.00  0.00     0.001 A 
HETATM   15  C   UNL     1      40.940 -12.499   4.567  1.00  0.00     0.002 A 
HETATM   16  C   UNL     1      42.154 -12.151   5.162  1.00  0.00     0.030 A 
HETATM   17  C   UNL     1      42.762 -13.003   6.093  1.00  0.00     0.044 A 
BRANCH  17  18
HETATM   18  N   UNL     1      44.006 -12.691   6.672  1.00  0.00    -0.308 N 
HETATM   19  C   UNL     1      44.377 -11.706   7.549  1.00  0.00     0.325 C 
HETATM   20  N   UNL     1      43.365 -11.157   8.293  1.00  0.00    -0.306 N 
HETATM   21  O   UNL     1      45.572 -11.460   7.692  1.00  0.00    -0.247 OA
HETATM   22  H   UNL     1      42.456 -11.589   8.233  1.00  0.00     0.171 HD
HETATM   23  H   UNL     1      44.793 -13.265   6.377  1.00  0.00     0.170 HD
BRANCH  20  24
HETATM   24  C   UNL     1      43.550 -10.228   9.297  1.00  0.00     0.072 A 
HETATM   25  C   UNL     1      43.910 -10.372  10.655  1.00  0.00     0.169 A 
HETATM   26  N   UNL     1      43.960  -9.197  11.294  1.00  0.00    -0.185 NA
HETATM   27  N   UNL     1      43.630  -8.309  10.345  1.00  0.00    -0.287 N 
HETATM   28  H   UNL     1      43.588  -7.328  10.603  1.00  0.00     0.188 HD
HETATM   29  C   UNL     1      43.384  -8.874   9.127  1.00  0.00     0.140 A 
ENDBRANCH  20  24
ENDBRANCH  17  18
ENDBRANCH  11  12
ENDBRANCH  10  11
ENDBRANCH   7  10
ENDBRANCH   1   4
TORSDOF 6
ENDMDL
MODEL 2
REMARK VINA RESULT:      -7.7      3.447      5.877
REMARK  6 active torsions:
REMARK  status: ('A' for Active; 'I' for Inactive)
REMARK    1  A    between atoms: C_3  and  C_4 
REMARK    2  A    between atoms: C_4  and  O_5 
REMARK    3  A    between atoms: O_5  and  C_6 
REMARK    4  A    between atoms: C_9  and  C_10 
REMARK    5  A    between atoms: C_15  and  N_16 
REMARK       I    between atoms: N_16  and  C_17 
REMARK       I    between atoms: C_17  and  N_18 
REMARK    6  A    between atoms: N_18  and  C_19 
ROOT
HETATM    1  C   UNL     1      44.432 -19.122   3.850  1.00  0.00     0.147 C 
HETATM    2  C   UNL     1      43.968 -19.914   2.637  1.00  0.00    -0.016 C 
HETATM    3  N   UNL     1      43.583 -20.570   1.632  1.00  0.00    -0.101 N 
ENDROOT
BRANCH   1   4
HETATM    4  C   UNL     1      43.447 -18.030   4.193  1.00  0.00    -0.046 A 
HETATM    5  C   UNL     1      42.848 -17.266   3.180  1.00  0.00     0.011 A 
HETATM    6  C   UNL     1      41.993 -16.211   3.502  1.00  0.00     0.037 A 
HETATM    7  C   UNL     1      41.720 -15.923   4.835  1.00  0.00     0.069 A 
HETATM    8  C   UNL     1      42.325 -16.655   5.855  1.00  0.00     0.037 A 
HETATM    9  C   UNL     1      43.181 -17.711   5.534  1.00  0.00     0.011 A 
BRANCH   7  10
HETATM   10  O   UNL     1      40.928 -14.841   5.111  1.00  0.00    -0.347 OA
BRANCH  10  11
HETATM   11  C   UNL     1      41.271 -14.255   6.372  1.00  0.00     0.216 C 
BRANCH  11  12
HETATM   12  C   UNL     1      42.314 -13.175   6.161  1.00  0.00    -0.007 A 
HETATM   13  C   UNL     1      43.574 -13.324   6.769  1.00  0.00     0.011 A 
HETATM   14  C   UNL     1      44.592 -12.401   6.538  1.00  0.00     0.001 A 
HETATM   15  C   UNL     1      44.367 -11.316   5.696  1.00  0.00     0.002 A 
HETATM   16  C   UNL     1      43.127 -11.159   5.076  1.00  0.00     0.030 A 
HETATM   17  C   UNL     1      42.101 -12.089   5.288  1.00  0.00     0.044 A 
BRANCH  17  18
HETATM   18  N   UNL     1      40.830 -11.927   4.706  1.00  0.00    -0.308 N 
HETATM   19  C   UNL     1      40.392 -12.103   3.420  1.00  0.00     0.325 C 
HETATM   20  N   UNL     1      41.166 -12.914   2.631  1.00  0.00    -0.306 N 
HETATM   21  O   UNL     1      39.306 -11.630   3.094  1.00  0.00    -0.247 OA
HETATM   22  H   UNL     1      41.923 -13.411   3.076  1.00  0.00     0.171 HD
HETATM   23  H   UNL     1      40.095 -11.587   5.323  1.00  0.00     0.170 HD
BRANCH  20  24
HETATM   24  C   UNL     1      40.840 -13.293   1.345  1.00  0.00     0.072 A 
HETATM   25  C   UNL     1      40.171 -14.430   0.842  1.00  0.00     0.169 A 
HETATM   26  N   UNL     1      40.080 -14.417  -0.493  1.00  0.00    -0.185 NA
HETATM   27  N   UNL     1      40.693 -13.275  -0.839  1.00  0.00    -0.287 N 
HETATM   28  H   UNL     1      40.761 -13.049  -1.826  1.00  0.00     0.188 HD
HETATM   29  C   UNL     1      41.157 -12.559   0.227  1.00  0.00     0.140 A 
ENDBRANCH  20  24
ENDBRANCH  17  18
ENDBRANCH  11  12
ENDBRANCH  10  11
ENDBRANCH   7  10
ENDBRANCH   1   4
TORSDOF 6
ENDMDL
MODEL 3
REMARK VINA RESULT:      -7.6      4.703      7.153
REMARK  6 active torsions:
REMARK  status: ('A' for Active; 'I' for Inactive)
REMARK    1  A    between atoms: C_3  and  C_4 
REMARK    2  A    between atoms: C_4  and  O_5 
REMARK    3  A    between atoms: O_5  and  C_6 
REMARK    4  A    between atoms: C_9  and  C_10 
REMARK    5  A    between atoms: C_15  and  N_16 
REMARK       I    between atoms: N_16  and  C_17 
REMARK       I    between atoms: C_17  and  N_18 
REMARK    6  A    between atoms: N_18  and  C_19 
ROOT
HETATM    1  C   UNL     1      40.830 -12.436  -3.066  1.00  0.00     0.147 C 
HETATM    2  C   UNL     1      40.752 -10.923  -3.187  1.00  0.00    -0.016 C 
HETATM    3  N   UNL     1      40.687  -9.668  -3.287  1.00  0.00    -0.101 N 
ENDROOT
BRANCH   1   4
HETATM    4  C   UNL     1      40.578 -12.880  -1.645  1.00  0.00    -0.046 A 
HETATM    5  C   UNL     1      40.958 -12.067  -0.566  1.00  0.00     0.011 A 
HETATM    6  C   UNL     1      40.789 -12.510   0.747  1.00  0.00     0.037 A 
HETATM    7  C   UNL     1      40.226 -13.759   0.989  1.00  0.00     0.069 A 
HETATM    8  C   UNL     1      39.866 -14.590  -0.070  1.00  0.00     0.037 A 
HETATM    9  C   UNL     1      40.035 -14.148  -1.384  1.00  0.00     0.011 A 
BRANCH   7  10
HETATM   10  O   UNL     1      40.136 -14.183   2.287  1.00  0.00    -0.347 OA
BRANCH  10  11
HETATM   11  C   UNL     1      39.903 -15.595   2.357  1.00  0.00     0.216 C 
BRANCH  11  12
HETATM   12  C   UNL     1      41.061 -16.265   3.068  1.00  0.00    -0.007 A 
HETATM   13  C   UNL     1      41.958 -17.044   2.314  1.00  0.00     0.011 A 
HETATM   14  C   UNL     1      43.085 -17.611   2.907  1.00  0.00     0.001 A 
HETATM   15  C   UNL     1      43.332 -17.410   4.262  1.00  0.00     0.002 A 
HETATM   16  C   UNL     1      42.459 -16.630   5.022  1.00  0.00     0.030 A 
HETATM   17  C   UNL     1      41.332 -16.041   4.433  1.00  0.00     0.044 A 
BRANCH  17  18
HETATM   18  N   UNL     1      40.417 -15.286   5.191  1.00  0.00    -0.308 N 
HETATM   19  C   UNL     1      40.461 -13.994   5.641  1.00  0.00     0.325 C 
HETATM   20  N   UNL     1      41.313 -13.156   4.970  1.00  0.00    -0.306 N 
HETATM   21  O   UNL     1      39.676 -13.646   6.520  1.00  0.00    -0.247 OA
HETATM   22  H   UNL     1      41.750 -13.510   4.132  1.00  0.00     0.171 HD
HETATM   23  H   UNL     1      39.581 -15.777   5.499  1.00  0.00     0.170 HD
BRANCH  20  24
HETATM   24  C   UNL     1      41.423 -11.801   5.207  1.00  0.00     0.072 A 
HETATM   25  C   UNL     1      42.045 -11.076   6.247  1.00  0.00     0.169 A 
HETATM   26  N   UNL     1      41.897  -9.754   6.103  1.00  0.00    -0.185 NA
HETATM   27  N   UNL     1      41.180  -9.638   4.976  1.00  0.00    -0.287 N 
HETATM   28  H   UNL     1      40.928  -8.706   4.664  1.00  0.00     0.188 HD
HETATM   29  C   UNL     1      40.879 -10.836   4.393  1.00  0.00     0.140 A 
ENDBRANCH  20  24
ENDBRANCH  17  18
ENDBRANCH  11  12
ENDBRANCH  10  11
ENDBRANCH   7  10
ENDBRANCH   1   4
TORSDOF 6
ENDMDL
MODEL 4
REMARK VINA RESULT:      -7.5      2.969      4.141
REMARK  6 active torsions:
REMARK  status: ('A' for Active; 'I' for Inactive)
REMARK    1  A    between atoms: C_3  and  C_4 
REMARK    2  A    between atoms: C_4  and  O_5 
REMARK    3  A    between atoms: O_5  and  C_6 
REMARK    4  A    between atoms: C_9  and  C_10 
REMARK    5  A    between atoms: C_15  and  N_16 
REMARK       I    between atoms: N_16  and  C_17 
REMARK       I    between atoms: C_17  and  N_18 
REMARK    6  A    between atoms: N_18  and  C_19 
ROOT
HETATM    1  C   UNL     1      44.099 -18.972   3.002  1.00  0.00     0.147 C 
HETATM    2  C   UNL     1      44.144 -19.710   4.330  1.00  0.00    -0.016 C 
HETATM    3  N   UNL     1      44.181 -20.322   5.432  1.00  0.00    -0.101 N 
ENDROOT
BRANCH   1   4
HETATM    4  C   UNL     1      43.288 -17.703   3.115  1.00  0.00    -0.046 A 
HETATM    5  C   UNL     1      42.220 -17.459   2.237  1.00  0.00     0.011 A 
HETATM    6  C   UNL     1      41.517 -16.255   2.296  1.00  0.00     0.037 A 
HETATM    7  C   UNL     1      41.866 -15.295   3.241  1.00  0.00     0.069 A 
HETATM    8  C   UNL     1      42.939 -15.510   4.104  1.00  0.00     0.037 A 
HETATM    9  C   UNL     1      43.644 -16.714   4.045  1.00  0.00     0.011 A 
BRANCH   7  10
HETATM   10  O   UNL     1      41.195 -14.103   3.225  1.00  0.00    -0.347 OA
BRANCH  10  11
HETATM   11  C   UNL     1      40.758 -13.770   1.902  1.00  0.00     0.216 C 
BRANCH  11  12
HETATM   12  C   UNL     1      40.206 -12.359   1.891  1.00  0.00    -0.007 A 
HETATM   13  C   UNL     1      38.834 -12.171   1.642  1.00  0.00     0.011 A 
HETATM   14  C   UNL     1      38.263 -10.901   1.703  1.00  0.00     0.001 A 
HETATM   15  C   UNL     1      39.054  -9.800   2.016  1.00  0.00     0.002 A 
HETATM   16  C   UNL     1      40.414  -9.969   2.278  1.00  0.00     0.030 A 
HETATM   17  C   UNL     1      40.996 -11.243   2.235  1.00  0.00     0.044 A 
BRANCH  17  18
HETATM   18  N   UNL     1      42.373 -11.429   2.454  1.00  0.00    -0.308 N 
HETATM   19  C   UNL     1      43.120 -11.407   3.602  1.00  0.00     0.325 C 
HETATM   20  N   UNL     1      42.430 -11.613   4.768  1.00  0.00    -0.306 N 
HETATM   21  O   UNL     1      44.343 -11.316   3.512  1.00  0.00    -0.247 OA
HETATM   22  H   UNL     1      41.460 -11.883   4.693  1.00  0.00     0.171 HD
HETATM   23  H   UNL     1      42.942 -11.577   1.623  1.00  0.00     0.170 HD
BRANCH  20  24
HETATM   24  C   UNL     1      43.015 -11.727   6.012  1.00  0.00     0.072 A 
HETATM   25  C   UNL     1      43.678 -12.802   6.644  1.00  0.00     0.169 A 
HETATM   26  N   UNL     1      44.084 -12.492   7.881  1.00  0.00    -0.185 NA
HETATM   27  N   UNL     1      43.678 -11.223   8.036  1.00  0.00    -0.287 N 
HETATM   28  H   UNL     1      43.867 -10.766   8.922  1.00  0.00     0.188 HD
HETATM   29  C   UNL     1      43.041 -10.714   6.941  1.00  0.00     0.140 A 
ENDBRANCH  20  24
ENDBRANCH  17  18
ENDBRANCH  11  12
ENDBRANCH  10  11
ENDBRANCH   7  10
ENDBRANCH   1   4
TORSDOF 6
ENDMDL
MODEL 5
REMARK VINA RESULT:      -7.4      2.322      3.364
REMARK  6 active torsions:
REMARK  status: ('A' for Active; 'I' for Inactive)
REMARK    1  A    between atoms: C_3  and  C_4 
REMARK    2  A    between atoms: C_4  and  O_5 
REMARK    3  A    between atoms: O_5  and  C_6 
REMARK    4  A    between atoms: C_9  and  C_10 
REMARK    5  A    between atoms: C_15  and  N_16 
REMARK       I    between atoms: N_16  and  C_17 
REMARK       I    between atoms: C_17  and  N_18 
REMARK    6  A    between atoms: N_18  and  C_19 
ROOT
HETATM    1  C   UNL     1      44.175 -18.732   3.530  1.00  0.00     0.147 C 
HETATM    2  C   UNL     1      43.863 -19.771   2.465  1.00  0.00    -0.016 C 
HETATM    3  N   UNL     1      43.604 -20.632   1.582  1.00  0.00    -0.101 N 
ENDROOT
BRANCH   1   4
HETATM    4  C   UNL     1      43.114 -17.658   3.566  1.00  0.00    -0.046 A 
HETATM    5  C   UNL     1      42.421 -17.300   2.399  1.00  0.00     0.011 A 
HETATM    6  C   UNL     1      41.491 -16.259   2.419  1.00  0.00     0.037 A 
HETATM    7  C   UNL     1      41.239 -15.580   3.606  1.00  0.00     0.069 A 
HETATM    8  C   UNL     1      41.936 -15.903   4.769  1.00  0.00     0.037 A 
HETATM    9  C   UNL     1      42.867 -16.945   4.750  1.00  0.00     0.011 A 
BRANCH   7  10
HETATM   10  O   UNL     1      40.369 -14.524   3.571  1.00  0.00    -0.347 OA
BRANCH  10  11
HETATM   11  C   UNL     1      41.069 -13.274   3.569  1.00  0.00     0.216 C 
BRANCH  11  12
HETATM   12  C   UNL     1      40.284 -12.254   4.370  1.00  0.00    -0.007 A 
HETATM   13  C   UNL     1      39.393 -11.403   3.691  1.00  0.00     0.011 A 
HETATM   14  C   UNL     1      38.588 -10.506   4.392  1.00  0.00     0.001 A 
HETATM   15  C   UNL     1      38.663 -10.445   5.780  1.00  0.00     0.002 A 
HETATM   16  C   UNL     1      39.533 -11.290   6.470  1.00  0.00     0.030 A 
HETATM   17  C   UNL     1      40.335 -12.207   5.778  1.00  0.00     0.044 A 
BRANCH  17  18
HETATM   18  N   UNL     1      41.250 -13.038   6.451  1.00  0.00    -0.308 N 
HETATM   19  C   UNL     1      42.585 -12.887   6.719  1.00  0.00     0.325 C 
HETATM   20  N   UNL     1      43.059 -11.602   6.686  1.00  0.00    -0.306 N 
HETATM   21  O   UNL     1      43.233 -13.870   7.072  1.00  0.00    -0.247 OA
HETATM   22  H   UNL     1      42.384 -10.859   6.587  1.00  0.00     0.171 HD
HETATM   23  H   UNL     1      40.886 -13.930   6.778  1.00  0.00     0.170 HD
BRANCH  20  24
HETATM   24  C   UNL     1      44.346 -11.236   7.025  1.00  0.00     0.072 A 
HETATM   25  C   UNL     1      44.892 -10.725   8.223  1.00  0.00     0.169 A 
HETATM   26  N   UNL     1      46.204 -10.481   8.119  1.00  0.00    -0.185 NA
HETATM   27  N   UNL     1      46.491 -10.833   6.857  1.00  0.00    -0.287 N 
HETATM   28  H   UNL     1      47.446 -10.722   6.535  1.00  0.00     0.188 HD
HETATM   29  C   UNL     1      45.413 -11.302   6.161  1.00  0.00     0.140 A 
ENDBRANCH  20  24
ENDBRANCH  17  18
ENDBRANCH  11  12
ENDBRANCH  10  11
ENDBRANCH   7  10
ENDBRANCH   1   4
TORSDOF 6
ENDMDL
MODEL 6
REMARK VINA RESULT:      -7.4      4.540      7.121
REMARK  6 active torsions:
REMARK  status: ('A' for Active; 'I' for Inactive)
REMARK    1  A    between atoms: C_3  and  C_4 
REMARK    2  A    between atoms: C_4  and  O_5 
REMARK    3  A    between atoms: O_5  and  C_6 
REMARK    4  A    between atoms: C_9  and  C_10 
REMARK    5  A    between atoms: C_15  and  N_16 
REMARK       I    between atoms: N_16  and  C_17 
REMARK       I    between atoms: C_17  and  N_18 
REMARK    6  A    between atoms: N_18  and  C_19 
ROOT
HETATM    1  C   UNL     1      39.085 -12.526  -2.801  1.00  0.00     0.147 C 
HETATM    2  C   UNL     1      37.947 -11.587  -2.434  1.00  0.00    -0.016 C 
HETATM    3  N   UNL     1      37.004 -10.809  -2.129  1.00  0.00    -0.101 N 
ENDROOT
BRANCH   1   4
HETATM    4  C   UNL     1      39.719 -13.118  -1.566  1.00  0.00    -0.046 A 
HETATM    5  C   UNL     1      39.411 -14.427  -1.163  1.00  0.00     0.011 A 
HETATM    6  C   UNL     1      39.944 -14.948   0.017  1.00  0.00     0.037 A 
HETATM    7  C   UNL     1      40.797 -14.171   0.794  1.00  0.00     0.069 A 
HETATM    8  C   UNL     1      41.094 -12.861   0.423  1.00  0.00     0.037 A 
HETATM    9  C   UNL     1      40.562 -12.338  -0.758  1.00  0.00     0.011 A 
BRANCH   7  10
HETATM   10  O   UNL     1      41.247 -14.694   1.976  1.00  0.00    -0.347 OA
BRANCH  10  11
HETATM   11  C   UNL     1      40.860 -16.066   2.117  1.00  0.00     0.216 C 
BRANCH  11  12
HETATM   12  C   UNL     1      41.915 -16.810   2.912  1.00  0.00    -0.007 A 
HETATM   13  C   UNL     1      42.797 -17.668   2.230  1.00  0.00     0.011 A 
HETATM   14  C   UNL     1      43.835 -18.309   2.904  1.00  0.00     0.001 A 
HETATM   15  C   UNL     1      44.008 -18.102   4.269  1.00  0.00     0.002 A 
HETATM   16  C   UNL     1      43.149 -17.245   4.959  1.00  0.00     0.030 A 
HETATM   17  C   UNL     1      42.112 -16.583   4.289  1.00  0.00     0.044 A 
BRANCH  17  18
HETATM   18  N   UNL     1      41.210 -15.747   4.974  1.00  0.00    -0.308 N 
HETATM   19  C   UNL     1      41.411 -14.626   5.735  1.00  0.00     0.325 C 
HETATM   20  N   UNL     1      42.590 -13.961   5.519  1.00  0.00    -0.306 N 
HETATM   21  O   UNL     1      40.501 -14.232   6.462  1.00  0.00    -0.247 OA
HETATM   22  H   UNL     1      43.163 -14.268   4.747  1.00  0.00     0.171 HD
HETATM   23  H   UNL     1      40.232 -16.024   4.941  1.00  0.00     0.170 HD
BRANCH  20  24
HETATM   24  C   UNL     1      42.930 -12.762   6.111  1.00  0.00     0.072 A 
HETATM   25  C   UNL     1      42.455 -11.448   5.909  1.00  0.00     0.169 A 
HETATM   26  N   UNL     1      43.077 -10.557   6.690  1.00  0.00    -0.185 NA
HETATM   27  N   UNL     1      43.948 -11.303   7.386  1.00  0.00    -0.287 N 
HETATM   28  H   UNL     1      44.555 -10.834   8.050  1.00  0.00     0.188 HD
HETATM   29  C   UNL     1      43.892 -12.634   7.083  1.00  0.00     0.140 A 
ENDBRANCH  20  24
ENDBRANCH  17  18
ENDBRANCH  11  12
ENDBRANCH  10  11
ENDBRANCH   7  10
ENDBRANCH   1   4
TORSDOF 6
ENDMDL
MODEL 7
REMARK VINA RESULT:      -7.4      3.729      7.687
REMARK  6 active torsions:
REMARK  status: ('A' for Active; 'I' for Inactive)
REMARK    1  A    between atoms: C_3  and  C_4 
REMARK    2  A    between atoms: C_4  and  O_5 
REMARK    3  A    between atoms: O_5  and  C_6 
REMARK    4  A    between atoms: C_9  and  C_10 
REMARK    5  A    between atoms: C_15  and  N_16 
REMARK       I    between atoms: N_16  and  C_17 
REMARK       I    between atoms: C_17  and  N_18 
REMARK    6  A    between atoms: N_18  and  C_19 
ROOT
HETATM    1  C   UNL     1      46.141 -11.175   6.732  1.00  0.00     0.147 C 
HETATM    2  C   UNL     1      45.917 -10.007   7.679  1.00  0.00    -0.016 C 
HETATM    3  N   UNL     1      45.732  -9.039   8.463  1.00  0.00    -0.101 N 
ENDROOT
BRANCH   1   4
HETATM    4  C   UNL     1      44.828 -11.789   6.309  1.00  0.00    -0.046 A 
HETATM    5  C   UNL     1      44.140 -12.662   7.166  1.00  0.00     0.011 A 
HETATM    6  C   UNL     1      42.962 -13.284   6.747  1.00  0.00     0.037 A 
HETATM    7  C   UNL     1      42.459 -13.026   5.476  1.00  0.00     0.069 A 
HETATM    8  C   UNL     1      43.142 -12.183   4.602  1.00  0.00     0.037 A 
HETATM    9  C   UNL     1      44.320 -11.560   5.020  1.00  0.00     0.011 A 
BRANCH   7  10
HETATM   10  O   UNL     1      41.338 -13.704   5.078  1.00  0.00    -0.347 OA
BRANCH  10  11
HETATM   11  C   UNL     1      41.363 -15.061   5.537  1.00  0.00     0.216 C 
BRANCH  11  12
HETATM   12  C   UNL     1      41.968 -15.946   4.465  1.00  0.00    -0.007 A 
HETATM   13  C   UNL     1      43.099 -16.719   4.786  1.00  0.00     0.011 A 
HETATM   14  C   UNL     1      43.641 -17.610   3.861  1.00  0.00     0.001 A 
HETATM   15  C   UNL     1      43.062 -17.742   2.603  1.00  0.00     0.002 A 
HETATM   16  C   UNL     1      41.933 -16.992   2.272  1.00  0.00     0.030 A 
HETATM   17  C   UNL     1      41.369 -16.105   3.199  1.00  0.00     0.044 A 
BRANCH  17  18
HETATM   18  N   UNL     1      40.256 -15.308   2.871  1.00  0.00    -0.308 N 
HETATM   19  C   UNL     1      40.167 -14.033   2.381  1.00  0.00     0.325 C 
HETATM   20  N   UNL     1      41.284 -13.558   1.744  1.00  0.00    -0.306 N 
HETATM   21  O   UNL     1      39.087 -13.449   2.441  1.00  0.00    -0.247 OA
HETATM   22  H   UNL     1      42.037 -14.209   1.578  1.00  0.00     0.171 HD
HETATM   23  H   UNL     1      39.343 -15.720   3.053  1.00  0.00     0.170 HD
BRANCH  20  24
HETATM   24  C   UNL     1      41.356 -12.340   1.098  1.00  0.00     0.072 A 
HETATM   25  C   UNL     1      41.758 -11.063   1.545  1.00  0.00     0.169 A 
HETATM   26  N   UNL     1      41.656 -10.135   0.586  1.00  0.00    -0.185 NA
HETATM   27  N   UNL     1      41.188 -10.821  -0.468  1.00  0.00    -0.287 N 
HETATM   28  H   UNL     1      41.015 -10.314  -1.329  1.00  0.00     0.188 HD
HETATM   29  C   UNL     1      41.002 -12.150  -0.216  1.00  0.00     0.140 A 
ENDBRANCH  20  24
ENDBRANCH  17  18
ENDBRANCH  11  12
ENDBRANCH  10  11
ENDBRANCH   7  10
ENDBRANCH   1   4
TORSDOF 6
ENDMDL
MODEL 8
REMARK VINA RESULT:      -7.3      4.566      6.143
REMARK  6 active torsions:
REMARK  status: ('A' for Active; 'I' for Inactive)
REMARK    1  A    between atoms: C_3  and  C_4 
REMARK    2  A    between atoms: C_4  and  O_5 
REMARK    3  A    between atoms: O_5  and  C_6 
REMARK    4  A    between atoms: C_9  and  C_10 
REMARK    5  A    between atoms: C_15  and  N_16 
REMARK       I    between atoms: N_16  and  C_17 
REMARK       I    between atoms: C_17  and  N_18 
REMARK    6  A    between atoms: N_18  and  C_19 
ROOT
HETATM    1  C   UNL     1      43.921 -17.203   4.787  1.00  0.00     0.147 C 
HETATM    2  C   UNL     1      44.076 -18.675   4.438  1.00  0.00    -0.016 C 
HETATM    3  N   UNL     1      44.204 -19.894   4.149  1.00  0.00    -0.101 N 
ENDROOT
BRANCH   1   4
HETATM    4  C   UNL     1      42.886 -16.544   3.907  1.00  0.00    -0.046 A 
HETATM    5  C   UNL     1      41.566 -16.381   4.356  1.00  0.00     0.011 A 
HETATM    6  C   UNL     1      40.595 -15.836   3.516  1.00  0.00     0.037 A 
HETATM    7  C   UNL     1      40.938 -15.437   2.228  1.00  0.00     0.069 A 
HETATM    8  C   UNL     1      42.237 -15.615   1.756  1.00  0.00     0.037 A 
HETATM    9  C   UNL     1      43.210 -16.160   2.596  1.00  0.00     0.011 A 
BRANCH   7  10
HETATM   10  O   UNL     1      39.944 -14.967   1.413  1.00  0.00    -0.347 OA
BRANCH  10  11
HETATM   11  C   UNL     1      40.407 -14.810   0.067  1.00  0.00     0.216 C 
BRANCH  11  12
HETATM   12  C   UNL     1      39.727 -13.612  -0.565  1.00  0.00    -0.007 A 
HETATM   13  C   UNL     1      38.748 -13.833  -1.551  1.00  0.00     0.011 A 
HETATM   14  C   UNL     1      38.036 -12.768  -2.102  1.00  0.00     0.001 A 
HETATM   15  C   UNL     1      38.291 -11.469  -1.676  1.00  0.00     0.002 A 
HETATM   16  C   UNL     1      39.250 -11.233  -0.691  1.00  0.00     0.030 A 
HETATM   17  C   UNL     1      39.961 -12.296  -0.118  1.00  0.00     0.044 A 
BRANCH  17  18
HETATM   18  N   UNL     1      40.962 -12.076   0.847  1.00  0.00    -0.308 N 
HETATM   19  C   UNL     1      40.885 -11.742   2.173  1.00  0.00     0.325 C 
HETATM   20  N   UNL     1      39.695 -12.022   2.792  1.00  0.00    -0.306 N 
HETATM   21  O   UNL     1      41.895 -11.329   2.739  1.00  0.00    -0.247 OA
HETATM   22  H   UNL     1      39.013 -12.552   2.271  1.00  0.00     0.171 HD
HETATM   23  H   UNL     1      41.922 -12.138   0.516  1.00  0.00     0.170 HD
BRANCH  20  24
HETATM   24  C   UNL     1      39.458 -11.854   4.141  1.00  0.00     0.072 A 
HETATM   25  C   UNL     1      39.634 -12.722   5.240  1.00  0.00     0.169 A 
HETATM   26  N   UNL     1      39.255 -12.161   6.395  1.00  0.00    -0.185 NA
HETATM   27  N   UNL     1      38.837 -10.940   6.030  1.00  0.00    -0.287 N 
HETATM   28  H   UNL     1      38.483 -10.321   6.752  1.00  0.00     0.188 HD
HETATM   29  C   UNL     1      38.947 -10.702   4.690  1.00  0.00     0.140 A 
ENDBRANCH  20  24
ENDBRANCH  17  18
ENDBRANCH  11  12
ENDBRANCH  10  11
ENDBRANCH   7  10
ENDBRANCH   1   4
TORSDOF 6
ENDMDL
MODEL 9
REMARK VINA RESULT:      -7.2      3.315      7.989
REMARK  6 active torsions:
REMARK  status: ('A' for Active; 'I' for Inactive)
REMARK    1  A    between atoms: C_3  and  C_4 
REMARK    2  A    between atoms: C_4  and  O_5 
REMARK    3  A    between atoms: O_5  and  C_6 
REMARK    4  A    between atoms: C_9  and  C_10 
REMARK    5  A    between atoms: C_15  and  N_16 
REMARK       I    between atoms: N_16  and  C_17 
REMARK       I    between atoms: C_17  and  N_18 
REMARK    6  A    between atoms: N_18  and  C_19 
ROOT
HETATM    1  C   UNL     1      45.031 -11.275   7.918  1.00  0.00     0.147 C 
HETATM    2  C   UNL     1      44.065 -10.541   8.835  1.00  0.00    -0.016 C 
HETATM    3  N   UNL     1      43.265  -9.932   9.594  1.00  0.00    -0.101 N 
ENDROOT
BRANCH   1   4
HETATM    4  C   UNL     1      44.334 -11.749   6.665  1.00  0.00    -0.046 A 
HETATM    5  C   UNL     1      43.431 -12.822   6.714  1.00  0.00     0.011 A 
HETATM    6  C   UNL     1      42.842 -13.304   5.544  1.00  0.00     0.037 A 
HETATM    7  C   UNL     1      43.140 -12.709   4.323  1.00  0.00     0.069 A 
HETATM    8  C   UNL     1      44.054 -11.660   4.251  1.00  0.00     0.037 A 
HETATM    9  C   UNL     1      44.644 -11.176   5.421  1.00  0.00     0.011 A 
BRANCH   7  10
HETATM   10  O   UNL     1      42.592 -13.252   3.192  1.00  0.00    -0.347 OA
BRANCH  10  11
HETATM   11  C   UNL     1      41.483 -12.474   2.727  1.00  0.00     0.216 C 
BRANCH  11  12
HETATM   12  C   UNL     1      40.850 -13.158   1.532  1.00  0.00    -0.007 A 
HETATM   13  C   UNL     1      40.959 -12.549   0.268  1.00  0.00     0.011 A 
HETATM   14  C   UNL     1      40.467 -13.179  -0.874  1.00  0.00     0.001 A 
HETATM   15  C   UNL     1      39.859 -14.426  -0.770  1.00  0.00     0.002 A 
HETATM   16  C   UNL     1      39.753 -15.050   0.474  1.00  0.00     0.030 A 
HETATM   17  C   UNL     1      40.258 -14.434   1.626  1.00  0.00     0.044 A 
BRANCH  17  18
HETATM   18  N   UNL     1      40.123 -15.026   2.895  1.00  0.00    -0.308 N 
HETATM   19  C   UNL     1      40.847 -16.007   3.520  1.00  0.00     0.325 C 
HETATM   20  N   UNL     1      42.117 -16.207   3.044  1.00  0.00    -0.306 N 
HETATM   21  O   UNL     1      40.370 -16.556   4.511  1.00  0.00    -0.247 OA
HETATM   22  H   UNL     1      42.467 -15.551   2.362  1.00  0.00     0.171 HD
HETATM   23  H   UNL     1      39.335 -14.709   3.455  1.00  0.00     0.170 HD
BRANCH  20  24
HETATM   24  C   UNL     1      43.033 -17.074   3.604  1.00  0.00     0.072 A 
HETATM   25  C   UNL     1      43.760 -17.021   4.813  1.00  0.00     0.169 A 
HETATM   26  N   UNL     1      44.569 -18.075   4.966  1.00  0.00    -0.185 NA
HETATM   27  N   UNL     1      44.360 -18.797   3.855  1.00  0.00    -0.287 N 
HETATM   28  H   UNL     1      44.885 -19.657   3.737  1.00  0.00     0.188 HD
HETATM   29  C   UNL     1      43.440 -18.245   3.010  1.00  0.00     0.140 A 
ENDBRANCH  20  24
ENDBRANCH  17  18
ENDBRANCH  11  12
ENDBRANCH  10  11
ENDBRANCH   7  10
ENDBRANCH   1   4
TORSDOF 6
ENDMDL
MODEL 10
REMARK VINA RESULT:      -7.2     15.947     18.196
REMARK  6 active torsions:
REMARK  status: ('A' for Active; 'I' for Inactive)
REMARK    1  A    between atoms: C_3  and  C_4 
REMARK    2  A    between atoms: C_4  and  O_5 
REMARK    3  A    between atoms: O_5  and  C_6 
REMARK    4  A    between atoms: C_9  and  C_10 
REMARK    5  A    between atoms: C_15  and  N_16 
REMARK       I    between atoms: N_16  and  C_17 
REMARK       I    between atoms: C_17  and  N_18 
REMARK    6  A    between atoms: N_18  and  C_19 
ROOT
HETATM    1  C   UNL     1      43.989 -30.704  -6.240  1.00  0.00     0.147 C 
HETATM    2  C   UNL     1      44.878 -31.842  -6.715  1.00  0.00    -0.016 C 
HETATM    3  N   UNL     1      45.615 -32.786  -7.108  1.00  0.00    -0.101 N 
ENDROOT
BRANCH   1   4
HETATM    4  C   UNL     1      44.294 -30.341  -4.806  1.00  0.00    -0.046 A 
HETATM    5  C   UNL     1      44.212 -31.308  -3.792  1.00  0.00     0.011 A 
HETATM    6  C   UNL     1      44.425 -30.955  -2.459  1.00  0.00     0.037 A 
HETATM    7  C   UNL     1      44.734 -29.638  -2.132  1.00  0.00     0.069 A 
HETATM    8  C   UNL     1      44.794 -28.659  -3.122  1.00  0.00     0.037 A 
HETATM    9  C   UNL     1      44.582 -29.012  -4.457  1.00  0.00     0.011 A 
BRANCH   7  10
HETATM   10  O   UNL     1      44.872 -29.319  -0.809  1.00  0.00    -0.347 OA
BRANCH  10  11
HETATM   11  C   UNL     1      43.596 -29.156  -0.179  1.00  0.00     0.216 C 
BRANCH  11  12
HETATM   12  C   UNL     1      43.543 -29.996   1.082  1.00  0.00    -0.007 A 
HETATM   13  C   UNL     1      42.626 -31.060   1.148  1.00  0.00     0.011 A 
HETATM   14  C   UNL     1      42.597 -31.911   2.251  1.00  0.00     0.001 A 
HETATM   15  C   UNL     1      43.484 -31.712   3.305  1.00  0.00     0.002 A 
HETATM   16  C   UNL     1      44.409 -30.668   3.251  1.00  0.00     0.030 A 
HETATM   17  C   UNL     1      44.458 -29.816   2.140  1.00  0.00     0.044 A 
BRANCH  17  18
HETATM   18  N   UNL     1      45.354 -28.732   2.085  1.00  0.00    -0.308 N 
HETATM   19  C   UNL     1      46.702 -28.681   1.852  1.00  0.00     0.325 C 
HETATM   20  N   UNL     1      47.237 -29.762   1.201  1.00  0.00    -0.306 N 
HETATM   21  O   UNL     1      47.313 -27.652   2.132  1.00  0.00    -0.247 OA
HETATM   22  H   UNL     1      46.596 -30.451   0.838  1.00  0.00     0.171 HD
HETATM   23  H   UNL     1      44.958 -27.815   2.282  1.00  0.00     0.170 HD
BRANCH  20  24
HETATM   24  C   UNL     1      48.551 -29.853   0.787  1.00  0.00     0.072 A 
HETATM   25  C   UNL     1      49.150 -29.688  -0.481  1.00  0.00     0.169 A 
HETATM   26  N   UNL     1      50.473 -29.887  -0.446  1.00  0.00    -0.185 NA
HETATM   27  N   UNL     1      50.714 -30.180   0.840  1.00  0.00    -0.287 N 
HETATM   28  H   UNL     1      51.670 -30.386   1.112  1.00  0.00     0.188 HD
HETATM   29  C   UNL     1      49.596 -30.163   1.624  1.00  0.00     0.140 A 
ENDBRANCH  20  24
ENDBRANCH  17  18
ENDBRANCH  11  12
ENDBRANCH  10  11
ENDBRANCH   7  10
ENDBRANCH   1   4
TORSDOF 6
ENDMDL
