MODEL 1
REMARK VINA RESULT:      -7.9      0.000      0.000
REMARK  6 active torsions:
REMARK  status: ('A' for Active; 'I' for Inactive)
REMARK    1  A    between atoms: C_5  and  C_6 
REMARK    2  A    between atoms: C_6  and  C_7 
REMARK       I    between atoms: C_7  and  N_8 
REMARK    3  A    between atoms: N_8  and  C_9 
REMARK    4  A    between atoms: C_12  and  N_13 
REMARK       I    between atoms: N_13  and  C_14 
REMARK       I    between atoms: C_14  and  N_15 
REMARK    5  A    between atoms: N_15  and  C_16 
REMARK    6  A    between atoms: C_16  and  C_17 
ROOT
HETATM    1  C   UNL     1      43.815 -12.596   6.626  1.00  0.00     0.034 A 
HETATM    2  C   UNL     1      43.660 -12.212   5.293  1.00  0.00     0.032 A 
HETATM    3  C   UNL     1      42.957 -13.026   4.385  1.00  0.00     0.032 A 
HETATM    4  C   UNL     1      42.416 -14.243   4.792  1.00  0.00     0.036 A 
HETATM    5  C   UNL     1      42.577 -14.627   6.129  1.00  0.00     0.032 A 
HETATM    6  C   UNL     1      43.269 -13.816   7.035  1.00  0.00     0.032 A 
ENDROOT
BRANCH   4   7
HETATM    7  N   UNL     1      41.656 -15.110   3.989  1.00  0.00    -0.309 N 
HETATM    8  C   UNL     1      41.959 -16.065   3.074  1.00  0.00     0.321 C 
HETATM    9  N   UNL     1      43.230 -16.528   3.011  1.00  0.00    -0.337 N 
HETATM   10  O   UNL     1      41.058 -16.504   2.360  1.00  0.00    -0.247 OA
HETATM   11  H   UNL     1      43.720 -16.558   3.894  1.00  0.00     0.164 HD
HETATM   12  H   UNL     1      40.652 -14.978   4.022  1.00  0.00     0.170 HD
BRANCH   9  13
HETATM   13  C   UNL     1      43.523 -17.629   2.122  1.00  0.00     0.189 C 
BRANCH  13  14
HETATM   14  C   UNL     1      43.725 -18.883   2.890  1.00  0.00     0.070 A 
HETATM   15  O   UNL     1      44.087 -18.771   4.204  1.00  0.00    -0.325 OA
HETATM   16  C   UNL     1      44.191 -20.033   4.695  1.00  0.00     0.142 A 
HETATM   17  C   UNL     1      43.885 -20.957   3.722  1.00  0.00     0.027 A 
HETATM   18  C   UNL     1      43.583 -20.215   2.556  1.00  0.00     0.036 A 
ENDBRANCH  13  14
ENDBRANCH   9  13
ENDBRANCH   4   7
BRANCH   1  19
HETATM   19  N   UNL     1      44.446 -11.817   7.616  1.00  0.00    -0.327 N 
HETATM   20  C   UNL     1      43.992 -10.639   8.191  1.00  0.00     0.227 C 
HETATM   21  O   UNL     1      42.998 -10.004   7.841  1.00  0.00    -0.273 OA
HETATM   22  H   UNL     1      45.337 -12.168   7.945  1.00  0.00     0.169 HD
BRANCH  20  23
HETATM   23  C   UNL     1      44.846 -10.202   9.386  1.00  0.00     0.159 C 
BRANCH  23  24
HETATM   24  C   UNL     1      44.050  -9.933  10.625  1.00  0.00     0.017 A 
HETATM   25  N   UNL     1      43.271 -10.891  11.236  1.00  0.00    -0.369 N 
HETATM   26  C   UNL     1      42.693 -10.366  12.362  1.00  0.00     0.088 A 
HETATM   27  H   UNL     1      43.144 -11.838  10.887  1.00  0.00     0.165 HD
HETATM   28  C   UNL     1      43.110  -9.061  12.487  1.00  0.00     0.019 A 
HETATM   29  C   UNL     1      43.965  -8.786  11.394  1.00  0.00     0.027 A 
ENDBRANCH  23  24
ENDBRANCH  20  23
ENDBRANCH   1  19
TORSDOF 6
ENDMDL
MODEL 2
REMARK VINA RESULT:      -7.9      4.749      8.332
REMARK  6 active torsions:
REMARK  status: ('A' for Active; 'I' for Inactive)
REMARK    1  A    between atoms: C_5  and  C_6 
REMARK    2  A    between atoms: C_6  and  C_7 
REMARK       I    between atoms: C_7  and  N_8 
REMARK    3  A    between atoms: N_8  and  C_9 
REMARK    4  A    between atoms: C_12  and  N_13 
REMARK       I    between atoms: N_13  and  C_14 
REMARK       I    between atoms: C_14  and  N_15 
REMARK    5  A    between atoms: N_15  and  C_16 
REMARK    6  A    between atoms: C_16  and  C_17 
ROOT
HETATM    1  C   UNL     1      39.664 -13.645   2.894  1.00  0.00     0.034 A 
HETATM    2  C   UNL     1      39.963 -12.946   4.064  1.00  0.00     0.032 A 
HETATM    3  C   UNL     1      40.620 -13.579   5.135  1.00  0.00     0.032 A 
HETATM    4  C   UNL     1      40.972 -14.925   5.058  1.00  0.00     0.036 A 
HETATM    5  C   UNL     1      40.666 -15.624   3.884  1.00  0.00     0.032 A 
HETATM    6  C   UNL     1      40.019 -14.994   2.816  1.00  0.00     0.032 A 
ENDROOT
BRANCH   4   7
HETATM    7  N   UNL     1      41.672 -15.645   6.040  1.00  0.00    -0.309 N 
HETATM    8  C   UNL     1      42.634 -16.602   6.010  1.00  0.00     0.321 C 
HETATM    9  N   UNL     1      43.301 -16.820   4.852  1.00  0.00    -0.337 N 
HETATM   10  O   UNL     1      42.893 -17.211   7.048  1.00  0.00    -0.247 OA
HETATM   11  H   UNL     1      43.441 -16.001   4.277  1.00  0.00     0.164 HD
HETATM   12  H   UNL     1      41.376 -15.492   6.997  1.00  0.00     0.170 HD
BRANCH   9  13
HETATM   13  C   UNL     1      44.406 -17.752   4.854  1.00  0.00     0.189 C 
BRANCH  13  14
HETATM   14  C   UNL     1      44.118 -18.907   3.967  1.00  0.00     0.070 A 
HETATM   15  O   UNL     1      44.175 -20.158   4.515  1.00  0.00    -0.325 OA
HETATM   16  C   UNL     1      43.858 -21.037   3.530  1.00  0.00     0.142 A 
HETATM   17  C   UNL     1      43.579 -20.371   2.359  1.00  0.00     0.027 A 
HETATM   18  C   UNL     1      43.745 -18.994   2.640  1.00  0.00     0.036 A 
ENDBRANCH  13  14
ENDBRANCH   9  13
ENDBRANCH   4   7
BRANCH   1  19
HETATM   19  N   UNL     1      39.066 -13.077   1.751  1.00  0.00    -0.327 N 
HETATM   20  C   UNL     1      39.677 -12.720   0.559  1.00  0.00     0.227 C 
HETATM   21  O   UNL     1      40.888 -12.734   0.338  1.00  0.00    -0.273 OA
HETATM   22  H   UNL     1      38.069 -12.915   1.816  1.00  0.00     0.169 HD
BRANCH  20  23
HETATM   23  C   UNL     1      38.667 -12.338  -0.527  1.00  0.00     0.159 C 
BRANCH  23  24
HETATM   24  C   UNL     1      38.563 -13.343  -1.632  1.00  0.00     0.017 A 
HETATM   25  N   UNL     1      38.921 -14.664  -1.476  1.00  0.00    -0.369 N 
HETATM   26  C   UNL     1      38.685 -15.347  -2.640  1.00  0.00     0.088 A 
HETATM   27  H   UNL     1      39.312 -15.058  -0.623  1.00  0.00     0.165 HD
HETATM   28  C   UNL     1      38.159 -14.463  -3.553  1.00  0.00     0.019 A 
HETATM   29  C   UNL     1      38.081 -13.201  -2.921  1.00  0.00     0.027 A 
ENDBRANCH  23  24
ENDBRANCH  20  23
ENDBRANCH   1  19
TORSDOF 6
ENDMDL
MODEL 3
REMARK VINA RESULT:      -7.6      5.232      8.860
REMARK  6 active torsions:
REMARK  status: ('A' for Active; 'I' for Inactive)
REMARK    1  A    between atoms: C_5  and  C_6 
REMARK    2  A    between atoms: C_6  and  C_7 
REMARK       I    between atoms: C_7  and  N_8 
REMARK    3  A    between atoms: N_8  and  C_9 
REMARK    4  A    between atoms: C_12  and  N_13 
REMARK       I    between atoms: N_13  and  C_14 
REMARK       I    between atoms: C_14  and  N_15 
REMARK    5  A    between atoms: N_15  and  C_16 
REMARK    6  A    between atoms: C_16  and  C_17 
ROOT
HETATM    1  C   UNL     1      40.699 -14.377   0.607  1.00  0.00     0.034 A 
HETATM    2  C   UNL     1      40.039 -15.521   1.054  1.00  0.00     0.032 A 
HETATM    3  C   UNL     1      39.954 -15.814   2.428  1.00  0.00     0.032 A 
HETATM    4  C   UNL     1      40.544 -14.976   3.372  1.00  0.00     0.036 A 
HETATM    5  C   UNL     1      41.209 -13.831   2.918  1.00  0.00     0.032 A 
HETATM    6  C   UNL     1      41.288 -13.535   1.554  1.00  0.00     0.032 A 
ENDROOT
BRANCH   4   7
HETATM    7  N   UNL     1      40.480 -15.142   4.766  1.00  0.00    -0.309 N 
HETATM    8  C   UNL     1      41.158 -15.903   5.662  1.00  0.00     0.321 C 
HETATM    9  N   UNL     1      42.317 -16.488   5.276  1.00  0.00    -0.337 N 
HETATM   10  O   UNL     1      40.716 -16.000   6.806  1.00  0.00    -0.247 OA
HETATM   11  H   UNL     1      42.861 -15.964   4.606  1.00  0.00     0.164 HD
HETATM   12  H   UNL     1      39.729 -14.651   5.236  1.00  0.00     0.170 HD
BRANCH   9  13
HETATM   13  C   UNL     1      43.098 -17.196   6.266  1.00  0.00     0.189 C 
BRANCH  13  14
HETATM   14  C   UNL     1      43.475 -18.543   5.769  1.00  0.00     0.070 A 
HETATM   15  O   UNL     1      43.853 -18.654   4.460  1.00  0.00    -0.325 OA
HETATM   16  C   UNL     1      44.167 -19.958   4.248  1.00  0.00     0.142 A 
HETATM   17  C   UNL     1      44.014 -20.686   5.405  1.00  0.00     0.027 A 
HETATM   18  C   UNL     1      43.568 -19.773   6.389  1.00  0.00     0.036 A 
ENDBRANCH  13  14
ENDBRANCH   9  13
ENDBRANCH   4   7
BRANCH   1  19
HETATM   19  N   UNL     1      40.779 -13.972  -0.742  1.00  0.00    -0.327 N 
HETATM   20  C   UNL     1      39.831 -13.281  -1.480  1.00  0.00     0.227 C 
HETATM   21  O   UNL     1      38.692 -13.001  -1.108  1.00  0.00    -0.273 OA
HETATM   22  H   UNL     1      41.636 -14.218  -1.220  1.00  0.00     0.169 HD
BRANCH  20  23
HETATM   23  C   UNL     1      40.364 -12.830  -2.844  1.00  0.00     0.159 C 
BRANCH  23  24
HETATM   24  C   UNL     1      39.949 -11.443  -3.223  1.00  0.00     0.017 A 
HETATM   25  N   UNL     1      38.636 -11.090  -3.445  1.00  0.00    -0.369 N 
HETATM   26  C   UNL     1      38.560  -9.754  -3.739  1.00  0.00     0.088 A 
HETATM   27  H   UNL     1      37.852 -11.737  -3.404  1.00  0.00     0.165 HD
HETATM   28  C   UNL     1      39.834  -9.235  -3.695  1.00  0.00     0.019 A 
HETATM   29  C   UNL     1      40.710 -10.297  -3.370  1.00  0.00     0.027 A 
ENDBRANCH  23  24
ENDBRANCH  20  23
ENDBRANCH   1  19
TORSDOF 6
ENDMDL
MODEL 4
REMARK VINA RESULT:      -7.5      1.895      9.786
REMARK  6 active torsions:
REMARK  status: ('A' for Active; 'I' for Inactive)
REMARK    1  A    between atoms: C_5  and  C_6 
REMARK    2  A    between atoms: C_6  and  C_7 
REMARK       I    between atoms: C_7  and  N_8 
REMARK    3  A    between atoms: N_8  and  C_9 
REMARK    4  A    between atoms: C_12  and  N_13 
REMARK       I    between atoms: N_13  and  C_14 
REMARK       I    between atoms: C_14  and  N_15 
REMARK    5  A    between atoms: N_15  and  C_16 
REMARK    6  A    between atoms: C_16  and  C_17 
ROOT
HETATM    1  C   UNL     1      42.783 -13.124   5.526  1.00  0.00     0.034 A 
HETATM    2  C   UNL     1      42.427 -11.805   5.245  1.00  0.00     0.032 A 
HETATM    3  C   UNL     1      43.095 -10.730   5.859  1.00  0.00     0.032 A 
HETATM    4  C   UNL     1      44.117 -10.960   6.778  1.00  0.00     0.036 A 
HETATM    5  C   UNL     1      44.469 -12.286   7.062  1.00  0.00     0.032 A 
HETATM    6  C   UNL     1      43.810 -13.355   6.446  1.00  0.00     0.032 A 
ENDROOT
BRANCH   4   7
HETATM    7  N   UNL     1      44.884  -9.969   7.413  1.00  0.00    -0.309 N 
HETATM    8  C   UNL     1      44.599  -8.945   8.257  1.00  0.00     0.321 C 
HETATM    9  N   UNL     1      43.391  -8.920   8.868  1.00  0.00    -0.337 N 
HETATM   10  O   UNL     1      45.465  -8.096   8.467  1.00  0.00    -0.247 OA
HETATM   11  H   UNL     1      43.002  -9.826   9.088  1.00  0.00     0.164 HD
HETATM   12  H   UNL     1      45.864  -9.936   7.158  1.00  0.00     0.170 HD
BRANCH   9  13
HETATM   13  C   UNL     1      43.136  -7.897   9.857  1.00  0.00     0.189 C 
BRANCH  13  14
HETATM   14  C   UNL     1      42.828  -8.509  11.175  1.00  0.00     0.070 A 
HETATM   15  O   UNL     1      42.088  -9.658  11.184  1.00  0.00    -0.325 OA
HETATM   16  C   UNL     1      41.957 -10.034  12.482  1.00  0.00     0.142 A 
HETATM   17  C   UNL     1      42.615  -9.154  13.309  1.00  0.00     0.027 A 
HETATM   18  C   UNL     1      43.180  -8.169  12.466  1.00  0.00     0.036 A 
ENDBRANCH  13  14
ENDBRANCH   9  13
ENDBRANCH   4   7
BRANCH   1  19
HETATM   19  N   UNL     1      42.213 -14.258   4.912  1.00  0.00    -0.327 N 
HETATM   20  C   UNL     1      42.531 -14.809   3.680  1.00  0.00     0.227 C 
HETATM   21  O   UNL     1      43.299 -14.324   2.851  1.00  0.00    -0.273 OA
HETATM   22  H   UNL     1      41.485 -14.721   5.442  1.00  0.00     0.169 HD
BRANCH  20  23
HETATM   23  C   UNL     1      41.851 -16.163   3.450  1.00  0.00     0.159 C 
BRANCH  23  24
HETATM   24  C   UNL     1      42.809 -17.311   3.379  1.00  0.00     0.017 A 
HETATM   25  N   UNL     1      43.678 -17.624   4.401  1.00  0.00    -0.369 N 
HETATM   26  C   UNL     1      44.402 -18.738   4.067  1.00  0.00     0.088 A 
HETATM   27  H   UNL     1      43.767 -17.092   5.264  1.00  0.00     0.165 HD
HETATM   28  C   UNL     1      43.990 -19.157   2.824  1.00  0.00     0.019 A 
HETATM   29  C   UNL     1      42.987 -18.260   2.388  1.00  0.00     0.027 A 
ENDBRANCH  23  24
ENDBRANCH  20  23
ENDBRANCH   1  19
TORSDOF 6
ENDMDL
MODEL 5
REMARK VINA RESULT:      -7.5      1.949      2.864
REMARK  6 active torsions:
REMARK  status: ('A' for Active; 'I' for Inactive)
REMARK    1  A    between atoms: C_5  and  C_6 
REMARK    2  A    between atoms: C_6  and  C_7 
REMARK       I    between atoms: C_7  and  N_8 
REMARK    3  A    between atoms: N_8  and  C_9 
REMARK    4  A    between atoms: C_12  and  N_13 
REMARK       I    between atoms: N_13  and  C_14 
REMARK       I    between atoms: C_14  and  N_15 
REMARK    5  A    between atoms: N_15  and  C_16 
REMARK    6  A    between atoms: C_16  and  C_17 
ROOT
HETATM    1  C   UNL     1      43.679 -10.390   7.835  1.00  0.00     0.034 A 
HETATM    2  C   UNL     1      44.803 -11.069   7.365  1.00  0.00     0.032 A 
HETATM    3  C   UNL     1      44.812 -11.650   6.083  1.00  0.00     0.032 A 
HETATM    4  C   UNL     1      43.688 -11.577   5.261  1.00  0.00     0.036 A 
HETATM    5  C   UNL     1      42.561 -10.899   5.739  1.00  0.00     0.032 A 
HETATM    6  C   UNL     1      42.554 -10.314   7.010  1.00  0.00     0.032 A 
ENDROOT
BRANCH   4   7
HETATM    7  N   UNL     1      43.600 -12.075   3.951  1.00  0.00    -0.309 N 
HETATM    8  C   UNL     1      43.142 -13.229   3.404  1.00  0.00     0.321 C 
HETATM    9  N   UNL     1      42.371 -14.048   4.159  1.00  0.00    -0.337 N 
HETATM   10  O   UNL     1      43.409 -13.471   2.227  1.00  0.00    -0.247 OA
HETATM   11  H   UNL     1      41.775 -13.581   4.827  1.00  0.00     0.164 HD
HETATM   12  H   UNL     1      44.023 -11.502   3.230  1.00  0.00     0.170 HD
BRANCH   9  13
HETATM   13  C   UNL     1      41.784 -15.214   3.538  1.00  0.00     0.189 C 
BRANCH  13  14
HETATM   14  C   UNL     1      42.678 -16.390   3.683  1.00  0.00     0.070 A 
HETATM   15  O   UNL     1      43.126 -16.696   4.939  1.00  0.00    -0.325 OA
HETATM   16  C   UNL     1      43.898 -17.807   4.824  1.00  0.00     0.142 A 
HETATM   17  C   UNL     1      43.941 -18.233   3.517  1.00  0.00     0.027 A 
HETATM   18  C   UNL     1      43.152 -17.319   2.779  1.00  0.00     0.036 A 
ENDBRANCH  13  14
ENDBRANCH   9  13
ENDBRANCH   4   7
BRANCH   1  19
HETATM   19  N   UNL     1      43.605  -9.725   9.075  1.00  0.00    -0.327 N 
HETATM   20  C   UNL     1      43.772 -10.263  10.342  1.00  0.00     0.227 C 
HETATM   21  O   UNL     1      43.900 -11.459  10.605  1.00  0.00    -0.273 OA
HETATM   22  H   UNL     1      43.409  -8.733   9.026  1.00  0.00     0.169 HD
BRANCH  20  23
HETATM   23  C   UNL     1      43.836  -9.190  11.433  1.00  0.00     0.159 C 
BRANCH  23  24
HETATM   24  C   UNL     1      42.688  -9.239  12.392  1.00  0.00     0.017 A 
HETATM   25  N   UNL     1      41.604 -10.071  12.218  1.00  0.00    -0.369 N 
HETATM   26  C   UNL     1      40.735  -9.922  13.267  1.00  0.00     0.088 A 
HETATM   27  H   UNL     1      41.475 -10.689  11.420  1.00  0.00     0.165 HD
HETATM   28  C   UNL     1      41.267  -8.995  14.133  1.00  0.00     0.019 A 
HETATM   29  C   UNL     1      42.497  -8.563  13.584  1.00  0.00     0.027 A 
ENDBRANCH  23  24
ENDBRANCH  20  23
ENDBRANCH   1  19
TORSDOF 6
ENDMDL
MODEL 6
REMARK VINA RESULT:      -7.5      5.001      8.684
REMARK  6 active torsions:
REMARK  status: ('A' for Active; 'I' for Inactive)
REMARK    1  A    between atoms: C_5  and  C_6 
REMARK    2  A    between atoms: C_6  and  C_7 
REMARK       I    between atoms: C_7  and  N_8 
REMARK    3  A    between atoms: N_8  and  C_9 
REMARK    4  A    between atoms: C_12  and  N_13 
REMARK       I    between atoms: N_13  and  C_14 
REMARK       I    between atoms: C_14  and  N_15 
REMARK    5  A    between atoms: N_15  and  C_16 
REMARK    6  A    between atoms: C_16  and  C_17 
ROOT
HETATM    1  C   UNL     1      41.980 -14.967   3.772  1.00  0.00     0.034 A 
HETATM    2  C   UNL     1      40.745 -15.372   3.265  1.00  0.00     0.032 A 
HETATM    3  C   UNL     1      39.759 -14.427   2.926  1.00  0.00     0.032 A 
HETATM    4  C   UNL     1      39.988 -13.064   3.106  1.00  0.00     0.036 A 
HETATM    5  C   UNL     1      41.227 -12.662   3.619  1.00  0.00     0.032 A 
HETATM    6  C   UNL     1      42.211 -13.600   3.950  1.00  0.00     0.032 A 
ENDROOT
BRANCH   4   7
HETATM    7  N   UNL     1      39.100 -12.033   2.758  1.00  0.00    -0.309 N 
HETATM    8  C   UNL     1      38.547 -11.611   1.592  1.00  0.00     0.321 C 
HETATM    9  N   UNL     1      38.609 -12.422   0.510  1.00  0.00    -0.337 N 
HETATM   10  O   UNL     1      37.974 -10.522   1.572  1.00  0.00    -0.247 OA
HETATM   11  H   UNL     1      38.570 -13.411   0.712  1.00  0.00     0.164 HD
HETATM   12  H   UNL     1      38.843 -11.399   3.505  1.00  0.00     0.170 HD
BRANCH   9  13
HETATM   13  C   UNL     1      37.914 -12.025  -0.694  1.00  0.00     0.189 C 
BRANCH  13  14
HETATM   14  C   UNL     1      38.114 -13.028  -1.769  1.00  0.00     0.070 A 
HETATM   15  O   UNL     1      39.257 -13.778  -1.734  1.00  0.00    -0.325 OA
HETATM   16  C   UNL     1      39.206 -14.628  -2.791  1.00  0.00     0.142 A 
HETATM   17  C   UNL     1      38.040 -14.450  -3.499  1.00  0.00     0.027 A 
HETATM   18  C   UNL     1      37.333 -13.417  -2.839  1.00  0.00     0.036 A 
ENDBRANCH  13  14
ENDBRANCH   9  13
ENDBRANCH   4   7
BRANCH   1  19
HETATM   19  N   UNL     1      43.046 -15.837   4.078  1.00  0.00    -0.327 N 
HETATM   20  C   UNL     1      43.104 -16.793   5.081  1.00  0.00     0.227 C 
HETATM   21  O   UNL     1      42.263 -16.963   5.962  1.00  0.00    -0.273 OA
HETATM   22  H   UNL     1      43.863 -15.750   3.486  1.00  0.00     0.169 HD
BRANCH  20  23
HETATM   23  C   UNL     1      44.338 -17.693   4.963  1.00  0.00     0.159 C 
BRANCH  23  24
HETATM   24  C   UNL     1      44.120 -18.902   4.108  1.00  0.00     0.017 A 
HETATM   25  N   UNL     1      44.151 -20.186   4.606  1.00  0.00    -0.369 N 
HETATM   26  C   UNL     1      43.884 -21.078   3.601  1.00  0.00     0.088 A 
HETATM   27  H   UNL     1      44.353 -20.422   5.575  1.00  0.00     0.165 HD
HETATM   28  C   UNL     1      43.667 -20.365   2.445  1.00  0.00     0.019 A 
HETATM   29  C   UNL     1      43.816 -18.994   2.761  1.00  0.00     0.027 A 
ENDBRANCH  23  24
ENDBRANCH  20  23
ENDBRANCH   1  19
TORSDOF 6
ENDMDL
MODEL 7
REMARK VINA RESULT:      -7.4      1.771      2.147
REMARK  6 active torsions:
REMARK  status: ('A' for Active; 'I' for Inactive)
REMARK    1  A    between atoms: C_5  and  C_6 
REMARK    2  A    between atoms: C_6  and  C_7 
REMARK       I    between atoms: C_7  and  N_8 
REMARK    3  A    between atoms: N_8  and  C_9 
REMARK    4  A    between atoms: C_12  and  N_13 
REMARK       I    between atoms: N_13  and  C_14 
REMARK       I    between atoms: C_14  and  N_15 
REMARK    5  A    between atoms: N_15  and  C_16 
REMARK    6  A    between atoms: C_16  and  C_17 
ROOT
HETATM    1  C   UNL     1      42.928 -11.073   5.552  1.00  0.00     0.034 A 
HETATM    2  C   UNL     1      41.558 -11.314   5.459  1.00  0.00     0.032 A 
HETATM    3  C   UNL     1      41.007 -11.915   4.312  1.00  0.00     0.032 A 
HETATM    4  C   UNL     1      41.818 -12.266   3.234  1.00  0.00     0.036 A 
HETATM    5  C   UNL     1      43.193 -12.018   3.330  1.00  0.00     0.032 A 
HETATM    6  C   UNL     1      43.742 -11.428   4.472  1.00  0.00     0.032 A 
ENDROOT
BRANCH   4   7
HETATM    7  N   UNL     1      41.387 -12.914   2.064  1.00  0.00    -0.309 N 
HETATM    8  C   UNL     1      41.374 -14.205   1.645  1.00  0.00     0.321 C 
HETATM    9  N   UNL     1      41.578 -15.188   2.554  1.00  0.00    -0.337 N 
HETATM   10  O   UNL     1      41.137 -14.437   0.460  1.00  0.00    -0.247 OA
HETATM   11  H   UNL     1      41.224 -14.996   3.480  1.00  0.00     0.164 HD
HETATM   12  H   UNL     1      41.070 -12.311   1.314  1.00  0.00     0.170 HD
BRANCH   9  13
HETATM   13  C   UNL     1      41.442 -16.563   2.129  1.00  0.00     0.189 C 
BRANCH  13  14
HETATM   14  C   UNL     1      42.510 -17.403   2.726  1.00  0.00     0.070 A 
HETATM   15  O   UNL     1      42.995 -17.038   3.951  1.00  0.00    -0.325 OA
HETATM   16  C   UNL     1      43.934 -17.957   4.295  1.00  0.00     0.142 A 
HETATM   17  C   UNL     1      44.050 -18.918   3.319  1.00  0.00     0.027 A 
HETATM   18  C   UNL     1      43.130 -18.563   2.305  1.00  0.00     0.036 A 
ENDBRANCH  13  14
ENDBRANCH   9  13
ENDBRANCH   4   7
BRANCH   1  19
HETATM   19  N   UNL     1      43.572 -10.535   6.685  1.00  0.00    -0.327 N 
HETATM   20  C   UNL     1      44.158 -11.222   7.737  1.00  0.00     0.227 C 
HETATM   21  O   UNL     1      44.110 -12.438   7.919  1.00  0.00    -0.273 OA
HETATM   22  H   UNL     1      43.610  -9.524   6.725  1.00  0.00     0.169 HD
BRANCH  20  23
HETATM   23  C   UNL     1      44.949 -10.300   8.671  1.00  0.00     0.159 C 
BRANCH  23  24
HETATM   24  C   UNL     1      44.241  -9.996   9.955  1.00  0.00     0.017 A 
HETATM   25  N   UNL     1      43.288 -10.827  10.498  1.00  0.00    -0.369 N 
HETATM   26  C   UNL     1      42.844 -10.308  11.685  1.00  0.00     0.088 A 
HETATM   27  H   UNL     1      42.963 -11.690  10.066  1.00  0.00     0.165 HD
HETATM   28  C   UNL     1      43.525  -9.135  11.919  1.00  0.00     0.019 A 
HETATM   29  C   UNL     1      44.405  -8.937  10.830  1.00  0.00     0.027 A 
ENDBRANCH  23  24
ENDBRANCH  20  23
ENDBRANCH   1  19
TORSDOF 6
ENDMDL
MODEL 8
REMARK VINA RESULT:      -7.1      4.438      6.683
REMARK  6 active torsions:
REMARK  status: ('A' for Active; 'I' for Inactive)
REMARK    1  A    between atoms: C_5  and  C_6 
REMARK    2  A    between atoms: C_6  and  C_7 
REMARK       I    between atoms: C_7  and  N_8 
REMARK    3  A    between atoms: N_8  and  C_9 
REMARK    4  A    between atoms: C_12  and  N_13 
REMARK       I    between atoms: N_13  and  C_14 
REMARK       I    between atoms: C_14  and  N_15 
REMARK    5  A    between atoms: N_15  and  C_16 
REMARK    6  A    between atoms: C_16  and  C_17 
ROOT
HETATM    1  C   UNL     1      42.013 -14.709   3.560  1.00  0.00     0.034 A 
HETATM    2  C   UNL     1      42.609 -15.236   2.414  1.00  0.00     0.032 A 
HETATM    3  C   UNL     1      41.875 -15.381   1.222  1.00  0.00     0.032 A 
HETATM    4  C   UNL     1      40.531 -15.019   1.165  1.00  0.00     0.036 A 
HETATM    5  C   UNL     1      39.936 -14.494   2.319  1.00  0.00     0.032 A 
HETATM    6  C   UNL     1      40.666 -14.343   3.502  1.00  0.00     0.032 A 
ENDROOT
BRANCH   4   7
HETATM    7  N   UNL     1      39.717 -15.073   0.021  1.00  0.00    -0.309 N 
HETATM    8  C   UNL     1      39.647 -14.354  -1.128  1.00  0.00     0.321 C 
HETATM    9  N   UNL     1      40.680 -13.540  -1.452  1.00  0.00    -0.337 N 
HETATM   10  O   UNL     1      38.665 -14.499  -1.855  1.00  0.00    -0.247 OA
HETATM   11  H   UNL     1      41.591 -13.866  -1.161  1.00  0.00     0.164 HD
HETATM   12  H   UNL     1      38.956 -15.742   0.050  1.00  0.00     0.170 HD
BRANCH   9  13
HETATM   13  C   UNL     1      40.659 -12.871  -2.733  1.00  0.00     0.189 C 
BRANCH  13  14
HETATM   14  C   UNL     1      40.918 -11.419  -2.569  1.00  0.00     0.070 A 
HETATM   15  O   UNL     1      41.477 -11.002  -1.393  1.00  0.00    -0.325 OA
HETATM   16  C   UNL     1      41.636  -9.657  -1.485  1.00  0.00     0.142 A 
HETATM   17  C   UNL     1      41.204  -9.202  -2.708  1.00  0.00     0.027 A 
HETATM   18  C   UNL     1      40.741 -10.339  -3.411  1.00  0.00     0.036 A 
ENDBRANCH  13  14
ENDBRANCH   9  13
ENDBRANCH   4   7
BRANCH   1  19
HETATM   19  N   UNL     1      42.687 -14.469   4.775  1.00  0.00    -0.327 N 
HETATM   20  C   UNL     1      43.125 -13.255   5.281  1.00  0.00     0.227 C 
HETATM   21  O   UNL     1      43.102 -12.177   4.687  1.00  0.00    -0.273 OA
HETATM   22  H   UNL     1      42.866 -15.288   5.343  1.00  0.00     0.169 HD
BRANCH  20  23
HETATM   23  C   UNL     1      43.618 -13.365   6.727  1.00  0.00     0.159 C 
BRANCH  23  24
HETATM   24  C   UNL     1      44.238 -12.105   7.247  1.00  0.00     0.017 A 
HETATM   25  N   UNL     1      43.644 -11.323   8.213  1.00  0.00    -0.369 N 
HETATM   26  C   UNL     1      44.456 -10.261   8.511  1.00  0.00     0.088 A 
HETATM   27  H   UNL     1      42.734 -11.512   8.626  1.00  0.00     0.165 HD
HETATM   28  C   UNL     1      45.591 -10.363   7.741  1.00  0.00     0.019 A 
HETATM   29  C   UNL     1      45.456 -11.523   6.943  1.00  0.00     0.027 A 
ENDBRANCH  23  24
ENDBRANCH  20  23
ENDBRANCH   1  19
TORSDOF 6
ENDMDL
MODEL 9
REMARK VINA RESULT:      -7.0      2.322      2.589
REMARK  6 active torsions:
REMARK  status: ('A' for Active; 'I' for Inactive)
REMARK    1  A    between atoms: C_5  and  C_6 
REMARK    2  A    between atoms: C_6  and  C_7 
REMARK       I    between atoms: C_7  and  N_8 
REMARK    3  A    between atoms: N_8  and  C_9 
REMARK    4  A    between atoms: C_12  and  N_13 
REMARK       I    between atoms: N_13  and  C_14 
REMARK       I    between atoms: C_14  and  N_15 
REMARK    5  A    between atoms: N_15  and  C_16 
REMARK    6  A    between atoms: C_16  and  C_17 
ROOT
HETATM    1  C   UNL     1      40.321 -11.464   5.831  1.00  0.00     0.034 A 
HETATM    2  C   UNL     1      39.844 -11.027   4.595  1.00  0.00     0.032 A 
HETATM    3  C   UNL     1      39.550 -11.945   3.569  1.00  0.00     0.032 A 
HETATM    4  C   UNL     1      39.748 -13.312   3.760  1.00  0.00     0.036 A 
HETATM    5  C   UNL     1      40.231 -13.745   5.000  1.00  0.00     0.032 A 
HETATM    6  C   UNL     1      40.517 -12.834   6.022  1.00  0.00     0.032 A 
ENDROOT
BRANCH   4   7
HETATM    7  N   UNL     1      39.444 -14.319   2.829  1.00  0.00    -0.309 N 
HETATM    8  C   UNL     1      40.164 -15.294   2.218  1.00  0.00     0.321 C 
HETATM    9  N   UNL     1      41.389 -15.604   2.706  1.00  0.00    -0.337 N 
HETATM   10  O   UNL     1      39.660 -15.890   1.266  1.00  0.00    -0.247 OA
HETATM   11  H   UNL     1      41.488 -15.510   3.707  1.00  0.00     0.164 HD
HETATM   12  H   UNL     1      38.502 -14.308   2.456  1.00  0.00     0.170 HD
BRANCH   9  13
HETATM   13  C   UNL     1      42.100 -16.723   2.131  1.00  0.00     0.189 C 
BRANCH  13  14
HETATM   14  C   UNL     1      43.002 -17.342   3.135  1.00  0.00     0.070 A 
HETATM   15  O   UNL     1      43.014 -16.806   4.393  1.00  0.00    -0.325 OA
HETATM   16  C   UNL     1      43.887 -17.542   5.128  1.00  0.00     0.142 A 
HETATM   17  C   UNL     1      44.424 -18.555   4.369  1.00  0.00     0.027 A 
HETATM   18  C   UNL     1      43.852 -18.428   3.081  1.00  0.00     0.036 A 
ENDBRANCH  13  14
ENDBRANCH   9  13
ENDBRANCH   4   7
BRANCH   1  19
HETATM   19  N   UNL     1      40.581 -10.623   6.932  1.00  0.00    -0.327 N 
HETATM   20  C   UNL     1      41.773 -10.000   7.266  1.00  0.00     0.227 C 
HETATM   21  O   UNL     1      42.857 -10.174   6.709  1.00  0.00    -0.273 OA
HETATM   22  H   UNL     1      39.794 -10.457   7.547  1.00  0.00     0.169 HD
BRANCH  20  23
HETATM   23  C   UNL     1      41.609  -8.992   8.408  1.00  0.00     0.159 C 
BRANCH  23  24
HETATM   24  C   UNL     1      42.540  -9.230   9.556  1.00  0.00     0.017 A 
HETATM   25  N   UNL     1      43.085 -10.464   9.834  1.00  0.00    -0.369 N 
HETATM   26  C   UNL     1      43.919 -10.368  10.916  1.00  0.00     0.088 A 
HETATM   27  H   UNL     1      42.881 -11.314   9.312  1.00  0.00     0.165 HD
HETATM   28  C   UNL     1      43.924  -9.058  11.336  1.00  0.00     0.019 A 
HETATM   29  C   UNL     1      43.055  -8.340  10.481  1.00  0.00     0.027 A 
ENDBRANCH  23  24
ENDBRANCH  20  23
ENDBRANCH   1  19
TORSDOF 6
ENDMDL
MODEL 10
REMARK VINA RESULT:      -6.9      4.306      8.374
REMARK  6 active torsions:
REMARK  status: ('A' for Active; 'I' for Inactive)
REMARK    1  A    between atoms: C_5  and  C_6 
REMARK    2  A    between atoms: C_6  and  C_7 
REMARK       I    between atoms: C_7  and  N_8 
REMARK    3  A    between atoms: N_8  and  C_9 
REMARK    4  A    between atoms: C_12  and  N_13 
REMARK       I    between atoms: N_13  and  C_14 
REMARK       I    between atoms: C_14  and  N_15 
REMARK    5  A    between atoms: N_15  and  C_16 
REMARK    6  A    between atoms: C_16  and  C_17 
ROOT
HETATM    1  C   UNL     1      39.924 -13.001   2.618  1.00  0.00     0.034 A 
HETATM    2  C   UNL     1      41.210 -13.515   2.444  1.00  0.00     0.032 A 
HETATM    3  C   UNL     1      42.043 -13.764   3.551  1.00  0.00     0.032 A 
HETATM    4  C   UNL     1      41.608 -13.485   4.845  1.00  0.00     0.036 A 
HETATM    5  C   UNL     1      40.319 -12.965   5.014  1.00  0.00     0.032 A 
HETATM    6  C   UNL     1      39.488 -12.724   3.916  1.00  0.00     0.032 A 
ENDROOT
BRANCH   4   7
HETATM    7  N   UNL     1      42.331 -13.737   6.023  1.00  0.00    -0.309 N 
HETATM    8  C   UNL     1      42.643 -14.858   6.722  1.00  0.00     0.321 C 
HETATM    9  N   UNL     1      42.473 -16.065   6.131  1.00  0.00    -0.337 N 
HETATM   10  O   UNL     1      43.106 -14.736   7.856  1.00  0.00    -0.247 OA
HETATM   11  H   UNL     1      42.631 -16.080   5.133  1.00  0.00     0.164 HD
HETATM   12  H   UNL     1      42.653 -12.921   6.529  1.00  0.00     0.170 HD
BRANCH   9  13
HETATM   13  C   UNL     1      42.919 -17.248   6.831  1.00  0.00     0.189 C 
BRANCH  13  14
HETATM   14  C   UNL     1      43.478 -18.240   5.878  1.00  0.00     0.070 A 
HETATM   15  O   UNL     1      43.964 -17.773   4.688  1.00  0.00    -0.325 OA
HETATM   16  C   UNL     1      44.435 -18.848   4.004  1.00  0.00     0.142 A 
HETATM   17  C   UNL     1      44.276 -19.998   4.742  1.00  0.00     0.027 A 
HETATM   18  C   UNL     1      43.659 -19.606   5.953  1.00  0.00     0.036 A 
ENDBRANCH  13  14
ENDBRANCH   9  13
ENDBRANCH   4   7
BRANCH   1  19
HETATM   19  N   UNL     1      39.002 -12.782   1.575  1.00  0.00    -0.327 N 
HETATM   20  C   UNL     1      39.023 -11.781   0.615  1.00  0.00     0.227 C 
HETATM   21  O   UNL     1      39.803 -10.830   0.585  1.00  0.00    -0.273 OA
HETATM   22  H   UNL     1      38.235 -13.442   1.526  1.00  0.00     0.169 HD
BRANCH  20  23
HETATM   23  C   UNL     1      37.976 -11.998  -0.482  1.00  0.00     0.159 C 
BRANCH  23  24
HETATM   24  C   UNL     1      38.369 -13.031  -1.491  1.00  0.00     0.017 A 
HETATM   25  N   UNL     1      37.464 -13.630  -2.340  1.00  0.00    -0.369 N 
HETATM   26  C   UNL     1      38.117 -14.502  -3.170  1.00  0.00     0.088 A 
HETATM   27  H   UNL     1      36.463 -13.450  -2.332  1.00  0.00     0.165 HD
HETATM   28  C   UNL     1      39.458 -14.459  -2.865  1.00  0.00     0.019 A 
HETATM   29  C   UNL     1      39.619 -13.533  -1.808  1.00  0.00     0.027 A 
ENDBRANCH  23  24
ENDBRANCH  20  23
ENDBRANCH   1  19
TORSDOF 6
ENDMDL
