MODEL 1
REMARK VINA RESULT:      -8.3      0.000      0.000
REMARK  8 active torsions:
REMARK  status: ('A' for Active; 'I' for Inactive)
REMARK    1  A    between atoms: O_2  and  C_3 
REMARK    2  A    between atoms: C_4  and  O_5 
REMARK    3  A    between atoms: C_8  and  C_9 
REMARK    4  A    between atoms: C_9  and  C_10 
REMARK    5  A    between atoms: C_10  and  N_11 
REMARK       I    between atoms: N_11  and  C_12 
REMARK    6  A    between atoms: C_12  and  C_13 
REMARK    7  A    between atoms: C_13  and  S_14 
REMARK    8  A    between atoms: S_14  and  C_15 
ROOT
HETATM    1  N   UNL     1      39.860 -13.759   3.989  1.00  0.00    -0.360 N 
HETATM    2  C   UNL     1      40.294 -12.641   4.664  1.00  0.00     0.227 C 
HETATM    3  O   UNL     1      40.217 -11.507   4.196  1.00  0.00    -0.273 OA
HETATM    4  H   UNL     1      40.105 -14.677   4.364  1.00  0.00     0.162 HD
ENDROOT
BRANCH   2   5
HETATM    5  C   UNL     1      40.820 -12.905   6.064  1.00  0.00     0.185 C 
BRANCH   5   6
HETATM    6  S   UNL     1      42.630 -12.822   6.137  1.00  0.00    -0.080 SA
BRANCH   6   7
HETATM    7  C   UNL     1      43.037 -14.452   6.559  1.00  0.00     0.197 A 
HETATM    8  N   UNL     1      43.200 -15.529   5.703  1.00  0.00    -0.271 N 
HETATM    9  C   UNL     1      43.349 -16.610   6.573  1.00  0.00     0.159 A 
HETATM   10  C   UNL     1      43.243 -15.679   4.287  1.00  0.00     0.053 A 
HETATM   11  C   UNL     1      43.477 -17.920   6.056  1.00  0.00     0.054 A 
HETATM   12  N   UNL     1      43.351 -16.194   7.821  1.00  0.00    -0.129 NA
HETATM   13  C   UNL     1      43.487 -18.128   4.734  1.00  0.00     0.017 A 
HETATM   14  C   UNL     1      43.386 -16.999   3.802  1.00  0.00    -0.009 A 
HETATM   15  C   UNL     1      43.444 -17.235   2.423  1.00  0.00     0.014 A 
HETATM   16  C   UNL     1      43.374 -16.170   1.528  1.00  0.00     0.001 A 
HETATM   17  C   UNL     1      43.249 -14.868   2.006  1.00  0.00     0.002 A 
HETATM   18  C   UNL     1      43.184 -14.618   3.381  1.00  0.00     0.031 A 
HETATM   19  N   UNL     1      43.166 -14.844   7.809  1.00  0.00    -0.122 NA
ENDBRANCH   6   7
ENDBRANCH   5   6
ENDBRANCH   2   5
BRANCH   1  20
HETATM   20  C   UNL     1      39.221 -13.696   2.694  1.00  0.00     0.127 C 
BRANCH  20  21
HETATM   21  C   UNL     1      39.777 -14.707   1.688  1.00  0.00     0.058 C 
BRANCH  21  22
HETATM   22  C   UNL     1      40.113 -14.022   0.383  1.00  0.00    -0.054 A 
HETATM   23  C   UNL     1      39.688 -14.573  -0.838  1.00  0.00     0.046 A 
HETATM   24  C   UNL     1      39.922 -13.905  -2.045  1.00  0.00     0.102 A 
HETATM   25  C   UNL     1      40.568 -12.659  -2.019  1.00  0.00     0.101 A 
HETATM   26  C   UNL     1      41.027 -12.122  -0.813  1.00  0.00     0.040 A 
HETATM   27  C   UNL     1      40.794 -12.798   0.385  1.00  0.00     0.010 A 
BRANCH  24  28
HETATM   28  O   UNL     1      39.527 -14.357  -3.278  1.00  0.00    -0.353 OA
HETATM   29  C   UNL     1      38.133 -14.524  -3.492  1.00  0.00     0.210 C 
ENDBRANCH  24  28
BRANCH  25  30
HETATM   30  O   UNL     1      40.791 -12.013  -3.211  1.00  0.00    -0.353 OA
HETATM   31  C   UNL     1      40.435 -10.633  -3.153  1.00  0.00     0.210 C 
ENDBRANCH  25  30
ENDBRANCH  21  22
ENDBRANCH  20  21
ENDBRANCH   1  20
TORSDOF 8
ENDMDL
MODEL 2
REMARK VINA RESULT:      -8.2      5.825     10.289
REMARK  8 active torsions:
REMARK  status: ('A' for Active; 'I' for Inactive)
REMARK    1  A    between atoms: O_2  and  C_3 
REMARK    2  A    between atoms: C_4  and  O_5 
REMARK    3  A    between atoms: C_8  and  C_9 
REMARK    4  A    between atoms: C_9  and  C_10 
REMARK    5  A    between atoms: C_10  and  N_11 
REMARK       I    between atoms: N_11  and  C_12 
REMARK    6  A    between atoms: C_12  and  C_13 
REMARK    7  A    between atoms: C_13  and  S_14 
REMARK    8  A    between atoms: S_14  and  C_15 
ROOT
HETATM    1  N   UNL     1      43.616 -10.953   8.976  1.00  0.00    -0.360 N 
HETATM    2  C   UNL     1      44.409 -11.223   7.884  1.00  0.00     0.227 C 
HETATM    3  O   UNL     1      45.637 -11.223   7.934  1.00  0.00    -0.273 OA
HETATM    4  H   UNL     1      42.616 -10.807   8.825  1.00  0.00     0.162 HD
ENDROOT
BRANCH   2   5
HETATM    5  C   UNL     1      43.650 -11.587   6.619  1.00  0.00     0.185 C 
BRANCH   5   6
HETATM    6  S   UNL     1      43.367 -13.373   6.487  1.00  0.00    -0.080 SA
BRANCH   6   7
HETATM    7  C   UNL     1      42.936 -13.534   4.817  1.00  0.00     0.197 A 
HETATM    8  N   UNL     1      43.050 -14.664   4.023  1.00  0.00    -0.271 N 
HETATM    9  C   UNL     1      42.725 -14.194   2.750  1.00  0.00     0.159 A 
HETATM   10  C   UNL     1      43.383 -16.027   4.271  1.00  0.00     0.053 A 
HETATM   11  C   UNL     1      42.795 -15.064   1.637  1.00  0.00     0.054 A 
HETATM   12  N   UNL     1      42.380 -12.926   2.806  1.00  0.00    -0.129 NA
HETATM   13  C   UNL     1      43.138 -16.348   1.802  1.00  0.00     0.017 A 
HETATM   14  C   UNL     1      43.430 -16.874   3.140  1.00  0.00    -0.009 A 
HETATM   15  C   UNL     1      43.743 -18.230   3.295  1.00  0.00     0.014 A 
HETATM   16  C   UNL     1      43.998 -18.749   4.562  1.00  0.00     0.001 A 
HETATM   17  C   UNL     1      43.937 -17.917   5.678  1.00  0.00     0.002 A 
HETATM   18  C   UNL     1      43.630 -16.560   5.538  1.00  0.00     0.031 A 
HETATM   19  N   UNL     1      42.503 -12.519   4.101  1.00  0.00    -0.122 NA
ENDBRANCH   6   7
ENDBRANCH   5   6
ENDBRANCH   2   5
BRANCH   1  20
HETATM   20  C   UNL     1      44.154 -10.701  10.294  1.00  0.00     0.127 C 
BRANCH  20  21
HETATM   21  C   UNL     1      44.151  -9.221  10.684  1.00  0.00     0.058 C 
BRANCH  21  22
HETATM   22  C   UNL     1      43.271  -8.996  11.892  1.00  0.00    -0.054 A 
HETATM   23  C   UNL     1      42.198  -9.863  12.160  1.00  0.00     0.046 A 
HETATM   24  C   UNL     1      41.428  -9.713  13.318  1.00  0.00     0.102 A 
HETATM   25  C   UNL     1      41.758  -8.696  14.227  1.00  0.00     0.101 A 
HETATM   26  C   UNL     1      42.799  -7.806  13.950  1.00  0.00     0.040 A 
HETATM   27  C   UNL     1      43.558  -7.960  12.790  1.00  0.00     0.010 A 
BRANCH  24  28
HETATM   28  O   UNL     1      40.378 -10.523  13.669  1.00  0.00    -0.353 OA
HETATM   29  C   UNL     1      39.310 -10.640  12.740  1.00  0.00     0.210 C 
ENDBRANCH  24  28
BRANCH  25  30
HETATM   30  O   UNL     1      40.994  -8.559  15.361  1.00  0.00    -0.353 OA
HETATM   31  C   UNL     1      41.351  -7.405  16.118  1.00  0.00     0.210 C 
ENDBRANCH  25  30
ENDBRANCH  21  22
ENDBRANCH  20  21
ENDBRANCH   1  20
TORSDOF 8
ENDMDL
MODEL 3
REMARK VINA RESULT:      -8.2      4.561      8.542
REMARK  8 active torsions:
REMARK  status: ('A' for Active; 'I' for Inactive)
REMARK    1  A    between atoms: O_2  and  C_3 
REMARK    2  A    between atoms: C_4  and  O_5 
REMARK    3  A    between atoms: C_8  and  C_9 
REMARK    4  A    between atoms: C_9  and  C_10 
REMARK    5  A    between atoms: C_10  and  N_11 
REMARK       I    between atoms: N_11  and  C_12 
REMARK    6  A    between atoms: C_12  and  C_13 
REMARK    7  A    between atoms: C_13  and  S_14 
REMARK    8  A    between atoms: S_14  and  C_15 
ROOT
HETATM    1  N   UNL     1      45.752 -11.168   6.688  1.00  0.00    -0.360 N 
HETATM    2  C   UNL     1      44.555 -11.797   6.941  1.00  0.00     0.227 C 
HETATM    3  O   UNL     1      44.108 -11.951   8.077  1.00  0.00    -0.273 OA
HETATM    4  H   UNL     1      46.138 -11.222   5.744  1.00  0.00     0.162 HD
ENDROOT
BRANCH   2   5
HETATM    5  C   UNL     1      43.789 -12.235   5.705  1.00  0.00     0.185 C 
BRANCH   5   6
HETATM    6  S   UNL     1      42.258 -13.109   6.128  1.00  0.00    -0.080 SA
BRANCH   6   7
HETATM    7  C   UNL     1      42.849 -14.703   6.465  1.00  0.00     0.197 A 
HETATM    8  N   UNL     1      43.101 -15.718   5.557  1.00  0.00    -0.271 N 
HETATM    9  C   UNL     1      43.391 -16.813   6.372  1.00  0.00     0.159 A 
HETATM   10  C   UNL     1      43.119 -15.800   4.134  1.00  0.00     0.053 A 
HETATM   11  C   UNL     1      43.643 -18.077   5.792  1.00  0.00     0.054 A 
HETATM   12  N   UNL     1      43.386 -16.453   7.637  1.00  0.00    -0.129 NA
HETATM   13  C   UNL     1      43.637 -18.226   4.461  1.00  0.00     0.017 A 
HETATM   14  C   UNL     1      43.387 -17.075   3.586  1.00  0.00    -0.009 A 
HETATM   15  C   UNL     1      43.430 -17.244   2.196  1.00  0.00     0.014 A 
HETATM   16  C   UNL     1      43.219 -16.155   1.353  1.00  0.00     0.001 A 
HETATM   17  C   UNL     1      42.970 -14.896   1.894  1.00  0.00     0.002 A 
HETATM   18  C   UNL     1      42.919 -14.714   3.280  1.00  0.00     0.031 A 
HETATM   19  N   UNL     1      43.056 -15.131   7.692  1.00  0.00    -0.122 NA
ENDBRANCH   6   7
ENDBRANCH   5   6
ENDBRANCH   2   5
BRANCH   1  20
HETATM   20  C   UNL     1      46.566 -10.579   7.727  1.00  0.00     0.127 C 
BRANCH  20  21
HETATM   21  C   UNL     1      46.320  -9.080   7.922  1.00  0.00     0.058 C 
BRANCH  21  22
HETATM   22  C   UNL     1      45.286  -8.852   9.001  1.00  0.00    -0.054 A 
HETATM   23  C   UNL     1      44.236  -7.941   8.795  1.00  0.00     0.046 A 
HETATM   24  C   UNL     1      43.228  -7.782   9.752  1.00  0.00     0.102 A 
HETATM   25  C   UNL     1      43.266  -8.566  10.916  1.00  0.00     0.101 A 
HETATM   26  C   UNL     1      44.327  -9.446  11.146  1.00  0.00     0.040 A 
HETATM   27  C   UNL     1      45.330  -9.594  10.188  1.00  0.00     0.010 A 
BRANCH  24  28
HETATM   28  O   UNL     1      42.158  -6.933   9.627  1.00  0.00    -0.353 OA
HETATM   29  C   UNL     1      41.164  -7.280   8.674  1.00  0.00     0.210 C 
ENDBRANCH  24  28
BRANCH  25  30
HETATM   30  O   UNL     1      42.270  -8.400  11.848  1.00  0.00    -0.353 OA
HETATM   31  C   UNL     1      41.707  -9.643  12.264  1.00  0.00     0.210 C 
ENDBRANCH  25  30
ENDBRANCH  21  22
ENDBRANCH  20  21
ENDBRANCH   1  20
TORSDOF 8
ENDMDL
MODEL 4
REMARK VINA RESULT:      -8.0      0.907      1.813
REMARK  8 active torsions:
REMARK  status: ('A' for Active; 'I' for Inactive)
REMARK    1  A    between atoms: O_2  and  C_3 
REMARK    2  A    between atoms: C_4  and  O_5 
REMARK    3  A    between atoms: C_8  and  C_9 
REMARK    4  A    between atoms: C_9  and  C_10 
REMARK    5  A    between atoms: C_10  and  N_11 
REMARK       I    between atoms: N_11  and  C_12 
REMARK    6  A    between atoms: C_12  and  C_13 
REMARK    7  A    between atoms: C_13  and  S_14 
REMARK    8  A    between atoms: S_14  and  C_15 
ROOT
HETATM    1  N   UNL     1      39.741 -13.363   3.922  1.00  0.00    -0.360 N 
HETATM    2  C   UNL     1      39.716 -12.928   5.227  1.00  0.00     0.227 C 
HETATM    3  O   UNL     1      39.136 -11.903   5.579  1.00  0.00    -0.273 OA
HETATM    4  H   UNL     1      40.375 -14.126   3.677  1.00  0.00     0.162 HD
ENDROOT
BRANCH   2   5
HETATM    5  C   UNL     1      40.405 -13.848   6.220  1.00  0.00     0.185 C 
BRANCH   5   6
HETATM    6  S   UNL     1      42.172 -13.473   6.380  1.00  0.00    -0.080 SA
BRANCH   6   7
HETATM    7  C   UNL     1      42.848 -15.056   6.576  1.00  0.00     0.197 A 
HETATM    8  N   UNL     1      43.126 -15.982   5.585  1.00  0.00    -0.271 N 
HETATM    9  C   UNL     1      43.490 -17.121   6.303  1.00  0.00     0.159 A 
HETATM   10  C   UNL     1      43.113 -15.951   4.160  1.00  0.00     0.053 A 
HETATM   11  C   UNL     1      43.789 -18.322   5.618  1.00  0.00     0.054 A 
HETATM   12  N   UNL     1      43.497 -16.864   7.593  1.00  0.00    -0.129 NA
HETATM   13  C   UNL     1      43.757 -18.365   4.281  1.00  0.00     0.017 A 
HETATM   14  C   UNL     1      43.430 -17.162   3.506  1.00  0.00    -0.009 A 
HETATM   15  C   UNL     1      43.447 -17.219   2.106  1.00  0.00     0.014 A 
HETATM   16  C   UNL     1      43.163 -16.079   1.358  1.00  0.00     0.001 A 
HETATM   17  C   UNL     1      42.866 -14.881   2.003  1.00  0.00     0.002 A 
HETATM   18  C   UNL     1      42.840 -14.812   3.399  1.00  0.00     0.031 A 
HETATM   19  N   UNL     1      43.106 -15.569   7.761  1.00  0.00    -0.122 NA
ENDBRANCH   6   7
ENDBRANCH   5   6
ENDBRANCH   2   5
BRANCH   1  20
HETATM   20  C   UNL     1      39.041 -12.684   2.854  1.00  0.00     0.127 C 
BRANCH  20  21
HETATM   21  C   UNL     1      39.973 -12.009   1.844  1.00  0.00     0.058 C 
BRANCH  21  22
HETATM   22  C   UNL     1      39.761 -12.588   0.464  1.00  0.00    -0.054 A 
HETATM   23  C   UNL     1      39.612 -11.738  -0.646  1.00  0.00     0.046 A 
HETATM   24  C   UNL     1      39.498 -12.262  -1.938  1.00  0.00     0.102 A 
HETATM   25  C   UNL     1      39.560 -13.653  -2.116  1.00  0.00     0.101 A 
HETATM   26  C   UNL     1      39.670 -14.506  -1.014  1.00  0.00     0.040 A 
HETATM   27  C   UNL     1      39.777 -13.974   0.271  1.00  0.00     0.010 A 
BRANCH  24  28
HETATM   28  O   UNL     1      39.371 -11.510  -3.078  1.00  0.00    -0.353 OA
HETATM   29  C   UNL     1      38.634 -10.300  -2.978  1.00  0.00     0.210 C 
ENDBRANCH  24  28
BRANCH  25  30
HETATM   30  O   UNL     1      39.447 -14.155  -3.390  1.00  0.00    -0.353 OA
HETATM   31  C   UNL     1      38.195 -14.803  -3.607  1.00  0.00     0.210 C 
ENDBRANCH  25  30
ENDBRANCH  21  22
ENDBRANCH  20  21
ENDBRANCH   1  20
TORSDOF 8
ENDMDL
MODEL 5
REMARK VINA RESULT:      -7.9      4.472      8.733
REMARK  8 active torsions:
REMARK  status: ('A' for Active; 'I' for Inactive)
REMARK    1  A    between atoms: O_2  and  C_3 
REMARK    2  A    between atoms: C_4  and  O_5 
REMARK    3  A    between atoms: C_8  and  C_9 
REMARK    4  A    between atoms: C_9  and  C_10 
REMARK    5  A    between atoms: C_10  and  N_11 
REMARK       I    between atoms: N_11  and  C_12 
REMARK    6  A    between atoms: C_12  and  C_13 
REMARK    7  A    between atoms: C_13  and  S_14 
REMARK    8  A    between atoms: S_14  and  C_15 
ROOT
HETATM    1  N   UNL     1      45.892 -10.813   6.458  1.00  0.00    -0.360 N 
HETATM    2  C   UNL     1      44.835 -11.693   6.421  1.00  0.00     0.227 C 
HETATM    3  O   UNL     1      44.425 -12.287   7.416  1.00  0.00    -0.273 OA
HETATM    4  H   UNL     1      46.282 -10.485   5.573  1.00  0.00     0.162 HD
ENDROOT
BRANCH   2   5
HETATM    5  C   UNL     1      44.166 -11.830   5.064  1.00  0.00     0.185 C 
BRANCH   5   6
HETATM    6  S   UNL     1      42.519 -12.578   5.191  1.00  0.00    -0.080 SA
BRANCH   6   7
HETATM    7  C   UNL     1      42.411 -13.439   3.691  1.00  0.00     0.197 A 
HETATM    8  N   UNL     1      42.739 -14.764   3.455  1.00  0.00    -0.271 N 
HETATM    9  C   UNL     1      42.623 -14.880   2.069  1.00  0.00     0.159 A 
HETATM   10  C   UNL     1      43.108 -15.862   4.284  1.00  0.00     0.053 A 
HETATM   11  C   UNL     1      42.949 -16.100   1.433  1.00  0.00     0.054 A 
HETATM   12  N   UNL     1      42.193 -13.750   1.551  1.00  0.00    -0.129 NA
HETATM   13  C   UNL     1      43.338 -17.158   2.156  1.00  0.00     0.017 A 
HETATM   14  C   UNL     1      43.413 -17.071   3.619  1.00  0.00    -0.009 A 
HETATM   15  C   UNL     1      43.779 -18.203   4.359  1.00  0.00     0.014 A 
HETATM   16  C   UNL     1      43.831 -18.143   5.749  1.00  0.00     0.001 A 
HETATM   17  C   UNL     1      43.515 -16.955   6.405  1.00  0.00     0.002 A 
HETATM   18  C   UNL     1      43.153 -15.816   5.679  1.00  0.00     0.031 A 
HETATM   19  N   UNL     1      42.052 -12.853   2.568  1.00  0.00    -0.122 NA
ENDBRANCH   6   7
ENDBRANCH   5   6
ENDBRANCH   2   5
BRANCH   1  20
HETATM   20  C   UNL     1      46.579 -10.462   7.681  1.00  0.00     0.127 C 
BRANCH  20  21
HETATM   21  C   UNL     1      46.173  -9.098   8.242  1.00  0.00     0.058 C 
BRANCH  21  22
HETATM   22  C   UNL     1      44.950  -9.232   9.121  1.00  0.00    -0.054 A 
HETATM   23  C   UNL     1      43.682  -8.873   8.632  1.00  0.00     0.046 A 
HETATM   24  C   UNL     1      42.534  -9.070   9.406  1.00  0.00     0.102 A 
HETATM   25  C   UNL     1      42.662  -9.658  10.674  1.00  0.00     0.101 A 
HETATM   26  C   UNL     1      43.923  -9.983  11.183  1.00  0.00     0.040 A 
HETATM   27  C   UNL     1      45.062  -9.777  10.406  1.00  0.00     0.010 A 
BRANCH  24  28
HETATM   28  O   UNL     1      41.258  -8.769   9.003  1.00  0.00    -0.353 OA
HETATM   29  C   UNL     1      40.912  -7.395   8.916  1.00  0.00     0.210 C 
ENDBRANCH  24  28
BRANCH  25  30
HETATM   30  O   UNL     1      41.526  -9.847  11.425  1.00  0.00    -0.353 OA
HETATM   31  C   UNL     1      41.810  -9.940  12.820  1.00  0.00     0.210 C 
ENDBRANCH  25  30
ENDBRANCH  21  22
ENDBRANCH  20  21
ENDBRANCH   1  20
TORSDOF 8
ENDMDL
MODEL 6
REMARK VINA RESULT:      -7.7      3.005      7.416
REMARK  8 active torsions:
REMARK  status: ('A' for Active; 'I' for Inactive)
REMARK    1  A    between atoms: O_2  and  C_3 
REMARK    2  A    between atoms: C_4  and  O_5 
REMARK    3  A    between atoms: C_8  and  C_9 
REMARK    4  A    between atoms: C_9  and  C_10 
REMARK    5  A    between atoms: C_10  and  N_11 
REMARK       I    between atoms: N_11  and  C_12 
REMARK    6  A    between atoms: C_12  and  C_13 
REMARK    7  A    between atoms: C_13  and  S_14 
REMARK    8  A    between atoms: S_14  and  C_15 
ROOT
HETATM    1  N   UNL     1      41.028 -14.257   4.835  1.00  0.00    -0.360 N 
HETATM    2  C   UNL     1      40.037 -13.342   5.108  1.00  0.00     0.227 C 
HETATM    3  O   UNL     1      39.605 -13.143   6.241  1.00  0.00    -0.273 OA
HETATM    4  H   UNL     1      41.220 -14.488   3.859  1.00  0.00     0.162 HD
ENDROOT
BRANCH   2   5
HETATM    5  C   UNL     1      39.558 -12.544   3.908  1.00  0.00     0.185 C 
BRANCH   5   6
HETATM    6  S   UNL     1      40.892 -12.241   2.717  1.00  0.00    -0.080 SA
BRANCH   6   7
HETATM    7  C   UNL     1      40.529 -13.404   1.485  1.00  0.00     0.197 A 
HETATM    8  N   UNL     1      40.399 -13.178   0.125  1.00  0.00    -0.271 N 
HETATM    9  C   UNL     1      39.945 -14.405  -0.362  1.00  0.00     0.159 A 
HETATM   10  C   UNL     1      40.634 -12.060  -0.727  1.00  0.00     0.053 A 
HETATM   11  C   UNL     1      39.629 -14.547  -1.733  1.00  0.00     0.054 A 
HETATM   12  N   UNL     1      39.888 -15.288   0.611  1.00  0.00    -0.129 NA
HETATM   13  C   UNL     1      39.794 -13.520  -2.576  1.00  0.00     0.017 A 
HETATM   14  C   UNL     1      40.322 -12.239  -2.093  1.00  0.00    -0.009 A 
HETATM   15  C   UNL     1      40.529 -11.192  -3.001  1.00  0.00     0.014 A 
HETATM   16  C   UNL     1      41.053  -9.979  -2.561  1.00  0.00     0.001 A 
HETATM   17  C   UNL     1      41.375  -9.808  -1.217  1.00  0.00     0.002 A 
HETATM   18  C   UNL     1      41.169 -10.843  -0.299  1.00  0.00     0.031 A 
HETATM   19  N   UNL     1      40.264 -14.663   1.763  1.00  0.00    -0.122 NA
ENDBRANCH   6   7
ENDBRANCH   5   6
ENDBRANCH   2   5
BRANCH   1  20
HETATM   20  C   UNL     1      41.692 -15.027   5.864  1.00  0.00     0.127 C 
BRANCH  20  21
HETATM   21  C   UNL     1      43.202 -15.158   5.653  1.00  0.00     0.058 C 
BRANCH  21  22
HETATM   22  C   UNL     1      43.506 -16.326   4.741  1.00  0.00    -0.054 A 
HETATM   23  C   UNL     1      44.024 -17.521   5.269  1.00  0.00     0.046 A 
HETATM   24  C   UNL     1      44.231 -18.635   4.448  1.00  0.00     0.102 A 
HETATM   25  C   UNL     1      43.892 -18.551   3.089  1.00  0.00     0.101 A 
HETATM   26  C   UNL     1      43.413 -17.354   2.549  1.00  0.00     0.040 A 
HETATM   27  C   UNL     1      43.214 -16.247   3.374  1.00  0.00     0.010 A 
BRANCH  24  28
HETATM   28  O   UNL     1      44.712 -19.845   4.879  1.00  0.00    -0.353 OA
HETATM   29  C   UNL     1      43.826 -20.666   5.626  1.00  0.00     0.210 C 
ENDBRANCH  24  28
BRANCH  25  30
HETATM   30  O   UNL     1      44.100 -19.652   2.293  1.00  0.00    -0.353 OA
HETATM   31  C   UNL     1      42.878 -20.265   1.887  1.00  0.00     0.210 C 
ENDBRANCH  25  30
ENDBRANCH  21  22
ENDBRANCH  20  21
ENDBRANCH   1  20
TORSDOF 8
ENDMDL
MODEL 7
REMARK VINA RESULT:      -7.7      5.609      8.741
REMARK  8 active torsions:
REMARK  status: ('A' for Active; 'I' for Inactive)
REMARK    1  A    between atoms: O_2  and  C_3 
REMARK    2  A    between atoms: C_4  and  O_5 
REMARK    3  A    between atoms: C_8  and  C_9 
REMARK    4  A    between atoms: C_9  and  C_10 
REMARK    5  A    between atoms: C_10  and  N_11 
REMARK       I    between atoms: N_11  and  C_12 
REMARK    6  A    between atoms: C_12  and  C_13 
REMARK    7  A    between atoms: C_13  and  S_14 
REMARK    8  A    between atoms: S_14  and  C_15 
ROOT
HETATM    1  N   UNL     1      44.426 -12.319   7.087  1.00  0.00    -0.360 N 
HETATM    2  C   UNL     1      45.283 -11.348   6.621  1.00  0.00     0.227 C 
HETATM    3  O   UNL     1      45.547 -11.206   5.429  1.00  0.00    -0.273 OA
HETATM    4  H   UNL     1      44.382 -12.485   8.093  1.00  0.00     0.162 HD
ENDROOT
BRANCH   2   5
HETATM    5  C   UNL     1      45.834 -10.418   7.688  1.00  0.00     0.185 C 
BRANCH   5   6
HETATM    6  S   UNL     1      44.634  -9.145   8.164  1.00  0.00    -0.080 SA
BRANCH   6   7
HETATM    7  C   UNL     1      44.065  -9.754   9.683  1.00  0.00     0.197 A 
HETATM    8  N   UNL     1      43.499  -9.033  10.722  1.00  0.00    -0.271 N 
HETATM    9  C   UNL     1      43.386  -9.977  11.743  1.00  0.00     0.159 A 
HETATM   10  C   UNL     1      43.067  -7.684  10.879  1.00  0.00     0.053 A 
HETATM   11  C   UNL     1      42.898  -9.589  13.013  1.00  0.00     0.054 A 
HETATM   12  N   UNL     1      43.778 -11.158  11.318  1.00  0.00    -0.129 NA
HETATM   13  C   UNL     1      42.512  -8.326  13.233  1.00  0.00     0.017 A 
HETATM   14  C   UNL     1      42.572  -7.332  12.155  1.00  0.00    -0.009 A 
HETATM   15  C   UNL     1      42.121  -6.028  12.394  1.00  0.00     0.014 A 
HETATM   16  C   UNL     1      42.149  -5.080  11.374  1.00  0.00     0.001 A 
HETATM   17  C   UNL     1      42.623  -5.432  10.112  1.00  0.00     0.002 A 
HETATM   18  C   UNL     1      43.081  -6.729   9.861  1.00  0.00     0.031 A 
HETATM   19  N   UNL     1      44.193 -11.019  10.026  1.00  0.00    -0.122 NA
ENDBRANCH   6   7
ENDBRANCH   5   6
ENDBRANCH   2   5
BRANCH   1  20
HETATM   20  C   UNL     1      43.712 -13.222   6.212  1.00  0.00     0.127 C 
BRANCH  20  21
HETATM   21  C   UNL     1      43.606 -14.648   6.759  1.00  0.00     0.058 C 
BRANCH  21  22
HETATM   22  C   UNL     1      43.376 -15.628   5.632  1.00  0.00    -0.054 A 
HETATM   23  C   UNL     1      42.692 -15.228   4.471  1.00  0.00     0.046 A 
HETATM   24  C   UNL     1      42.545 -16.102   3.389  1.00  0.00     0.102 A 
HETATM   25  C   UNL     1      43.113 -17.383   3.467  1.00  0.00     0.101 A 
HETATM   26  C   UNL     1      43.762 -17.802   4.632  1.00  0.00     0.040 A 
HETATM   27  C   UNL     1      43.898 -16.925   5.708  1.00  0.00     0.010 A 
BRANCH  24  28
HETATM   28  O   UNL     1      41.913 -15.790   2.212  1.00  0.00    -0.353 OA
HETATM   29  C   UNL     1      40.499 -15.658   2.250  1.00  0.00     0.210 C 
ENDBRANCH  24  28
BRANCH  25  30
HETATM   30  O   UNL     1      42.962 -18.232   2.397  1.00  0.00    -0.353 OA
HETATM   31  C   UNL     1      43.826 -19.363   2.479  1.00  0.00     0.210 C 
ENDBRANCH  25  30
ENDBRANCH  21  22
ENDBRANCH  20  21
ENDBRANCH   1  20
TORSDOF 8
ENDMDL
MODEL 8
REMARK VINA RESULT:      -7.4      4.393      7.738
REMARK  8 active torsions:
REMARK  status: ('A' for Active; 'I' for Inactive)
REMARK    1  A    between atoms: O_2  and  C_3 
REMARK    2  A    between atoms: C_4  and  O_5 
REMARK    3  A    between atoms: C_8  and  C_9 
REMARK    4  A    between atoms: C_9  and  C_10 
REMARK    5  A    between atoms: C_10  and  N_11 
REMARK       I    between atoms: N_11  and  C_12 
REMARK    6  A    between atoms: C_12  and  C_13 
REMARK    7  A    between atoms: C_13  and  S_14 
REMARK    8  A    between atoms: S_14  and  C_15 
ROOT
HETATM    1  N   UNL     1      41.835 -12.450   4.080  1.00  0.00    -0.360 N 
HETATM    2  C   UNL     1      42.043 -11.209   3.523  1.00  0.00     0.227 C 
HETATM    3  O   UNL     1      42.158 -11.031   2.313  1.00  0.00    -0.273 OA
HETATM    4  H   UNL     1      41.913 -12.546   5.094  1.00  0.00     0.162 HD
ENDROOT
BRANCH   2   5
HETATM    5  C   UNL     1      42.053 -10.059   4.515  1.00  0.00     0.185 C 
BRANCH   5   6
HETATM    6  S   UNL     1      41.600 -10.598   6.186  1.00  0.00    -0.080 SA
BRANCH   6   7
HETATM    7  C   UNL     1      43.156 -10.854   6.904  1.00  0.00     0.197 A 
HETATM    8  N   UNL     1      43.632 -10.327   8.093  1.00  0.00    -0.271 N 
HETATM    9  C   UNL     1      44.973 -10.715   8.101  1.00  0.00     0.159 A 
HETATM   10  C   UNL     1      43.049  -9.576   9.155  1.00  0.00     0.053 A 
HETATM   11  C   UNL     1      45.822 -10.297   9.152  1.00  0.00     0.054 A 
HETATM   12  N   UNL     1      45.237 -11.463   7.052  1.00  0.00    -0.129 NA
HETATM   13  C   UNL     1      45.341  -9.558  10.159  1.00  0.00     0.017 A 
HETATM   14  C   UNL     1      43.921  -9.187  10.196  1.00  0.00    -0.009 A 
HETATM   15  C   UNL     1      43.430  -8.452  11.282  1.00  0.00     0.014 A 
HETATM   16  C   UNL     1      42.080  -8.113  11.343  1.00  0.00     0.001 A 
HETATM   17  C   UNL     1      41.218  -8.511  10.324  1.00  0.00     0.002 A 
HETATM   18  C   UNL     1      41.696  -9.241   9.232  1.00  0.00     0.031 A 
HETATM   19  N   UNL     1      44.097 -11.557   6.310  1.00  0.00    -0.122 NA
ENDBRANCH   6   7
ENDBRANCH   5   6
ENDBRANCH   2   5
BRANCH   1  20
HETATM   20  C   UNL     1      41.677 -13.650   3.289  1.00  0.00     0.127 C 
BRANCH  20  21
HETATM   21  C   UNL     1      42.963 -14.094   2.587  1.00  0.00     0.058 C 
BRANCH  21  22
HETATM   22  C   UNL     1      43.243 -15.552   2.874  1.00  0.00    -0.054 A 
HETATM   23  C   UNL     1      43.545 -15.972   4.181  1.00  0.00     0.046 A 
HETATM   24  C   UNL     1      43.724 -17.329   4.473  1.00  0.00     0.102 A 
HETATM   25  C   UNL     1      43.574 -18.271   3.444  1.00  0.00     0.101 A 
HETATM   26  C   UNL     1      43.312 -17.858   2.134  1.00  0.00     0.040 A 
HETATM   27  C   UNL     1      43.140 -16.503   1.852  1.00  0.00     0.010 A 
BRANCH  24  28
HETATM   28  O   UNL     1      44.001 -17.830   5.719  1.00  0.00    -0.353 OA
HETATM   29  C   UNL     1      43.195 -17.373   6.795  1.00  0.00     0.210 C 
ENDBRANCH  24  28
BRANCH  25  30
HETATM   30  O   UNL     1      43.753 -19.600   3.743  1.00  0.00    -0.353 OA
HETATM   31  C   UNL     1      43.703 -20.428   2.582  1.00  0.00     0.210 C 
ENDBRANCH  25  30
ENDBRANCH  21  22
ENDBRANCH  20  21
ENDBRANCH   1  20
TORSDOF 8
ENDMDL
MODEL 9
REMARK VINA RESULT:      -7.3     15.700     17.319
REMARK  8 active torsions:
REMARK  status: ('A' for Active; 'I' for Inactive)
REMARK    1  A    between atoms: O_2  and  C_3 
REMARK    2  A    between atoms: C_4  and  O_5 
REMARK    3  A    between atoms: C_8  and  C_9 
REMARK    4  A    between atoms: C_9  and  C_10 
REMARK    5  A    between atoms: C_10  and  N_11 
REMARK       I    between atoms: N_11  and  C_12 
REMARK    6  A    between atoms: C_12  and  C_13 
REMARK    7  A    between atoms: C_13  and  S_14 
REMARK    8  A    between atoms: S_14  and  C_15 
ROOT
HETATM    1  N   UNL     1      43.947 -30.040   1.825  1.00  0.00    -0.360 N 
HETATM    2  C   UNL     1      44.388 -31.297   2.168  1.00  0.00     0.227 C 
HETATM    3  O   UNL     1      44.160 -32.295   1.486  1.00  0.00    -0.273 OA
HETATM    4  H   UNL     1      44.029 -29.292   2.516  1.00  0.00     0.162 HD
ENDROOT
BRANCH   2   5
HETATM    5  C   UNL     1      45.238 -31.355   3.425  1.00  0.00     0.185 C 
BRANCH   5   6
HETATM    6  S   UNL     1      47.009 -31.233   3.054  1.00  0.00    -0.080 SA
BRANCH   6   7
HETATM    7  C   UNL     1      47.057 -29.824   2.046  1.00  0.00     0.197 A 
HETATM    8  N   UNL     1      47.304 -29.771   0.684  1.00  0.00    -0.271 N 
HETATM    9  C   UNL     1      47.391 -28.402   0.428  1.00  0.00     0.159 A 
HETATM   10  C   UNL     1      47.449 -30.749  -0.342  1.00  0.00     0.053 A 
HETATM   11  C   UNL     1      47.705 -27.946  -0.874  1.00  0.00     0.054 A 
HETATM   12  N   UNL     1      47.141 -27.717   1.522  1.00  0.00    -0.129 NA
HETATM   13  C   UNL     1      47.890 -28.819  -1.872  1.00  0.00     0.017 A 
HETATM   14  C   UNL     1      47.749 -30.260  -1.634  1.00  0.00    -0.009 A 
HETATM   15  C   UNL     1      47.902 -31.153  -2.702  1.00  0.00     0.014 A 
HETATM   16  C   UNL     1      47.747 -32.522  -2.496  1.00  0.00     0.001 A 
HETATM   17  C   UNL     1      47.436 -33.002  -1.226  1.00  0.00     0.002 A 
HETATM   18  C   UNL     1      47.286 -32.123  -0.149  1.00  0.00     0.031 A 
HETATM   19  N   UNL     1      46.923 -28.608   2.530  1.00  0.00    -0.122 NA
ENDBRANCH   6   7
ENDBRANCH   5   6
ENDBRANCH   2   5
BRANCH   1  20
HETATM   20  C   UNL     1      43.225 -29.767   0.603  1.00  0.00     0.127 C 
BRANCH  20  21
HETATM   21  C   UNL     1      43.973 -28.838  -0.356  1.00  0.00     0.058 C 
BRANCH  21  22
HETATM   22  C   UNL     1      44.179 -29.515  -1.692  1.00  0.00    -0.054 A 
HETATM   23  C   UNL     1      44.104 -30.915  -1.797  1.00  0.00     0.046 A 
HETATM   24  C   UNL     1      44.211 -31.546  -3.040  1.00  0.00     0.102 A 
HETATM   25  C   UNL     1      44.371 -30.759  -4.191  1.00  0.00     0.101 A 
HETATM   26  C   UNL     1      44.485 -29.369  -4.092  1.00  0.00     0.040 A 
HETATM   27  C   UNL     1      44.382 -28.749  -2.846  1.00  0.00     0.010 A 
BRANCH  24  28
HETATM   28  O   UNL     1      44.129 -32.901  -3.239  1.00  0.00    -0.353 OA
HETATM   29  C   UNL     1      43.575 -33.679  -2.188  1.00  0.00     0.210 C 
ENDBRANCH  24  28
BRANCH  25  30
HETATM   30  O   UNL     1      44.475 -31.391  -5.407  1.00  0.00    -0.353 OA
HETATM   31  C   UNL     1      45.827 -31.491  -5.850  1.00  0.00     0.210 C 
ENDBRANCH  25  30
ENDBRANCH  21  22
ENDBRANCH  20  21
ENDBRANCH   1  20
TORSDOF 8
ENDMDL
MODEL 10
REMARK VINA RESULT:      -7.3     15.390     17.178
REMARK  8 active torsions:
REMARK  status: ('A' for Active; 'I' for Inactive)
REMARK    1  A    between atoms: O_2  and  C_3 
REMARK    2  A    between atoms: C_4  and  O_5 
REMARK    3  A    between atoms: C_8  and  C_9 
REMARK    4  A    between atoms: C_9  and  C_10 
REMARK    5  A    between atoms: C_10  and  N_11 
REMARK       I    between atoms: N_11  and  C_12 
REMARK    6  A    between atoms: C_12  and  C_13 
REMARK    7  A    between atoms: C_13  and  S_14 
REMARK    8  A    between atoms: S_14  and  C_15 
ROOT
HETATM    1  N   UNL     1      45.177 -30.411   3.380  1.00  0.00    -0.360 N 
HETATM    2  C   UNL     1      46.397 -30.999   3.623  1.00  0.00     0.227 C 
HETATM    3  O   UNL     1      46.761 -32.036   3.071  1.00  0.00    -0.273 OA
HETATM    4  H   UNL     1      44.876 -29.650   3.990  1.00  0.00     0.162 HD
ENDROOT
BRANCH   2   5
HETATM    5  C   UNL     1      47.296 -30.233   4.578  1.00  0.00     0.185 C 
BRANCH   5   6
HETATM    6  S   UNL     1      48.723 -29.502   3.731  1.00  0.00    -0.080 SA
BRANCH   6   7
HETATM    7  C   UNL     1      48.002 -28.939   2.259  1.00  0.00     0.197 A 
HETATM    8  N   UNL     1      48.433 -29.178   0.964  1.00  0.00    -0.271 N 
HETATM    9  C   UNL     1      47.602 -28.364   0.194  1.00  0.00     0.159 A 
HETATM   10  C   UNL     1      49.435 -30.011   0.385  1.00  0.00     0.053 A 
HETATM   11  C   UNL     1      47.788 -28.288  -1.206  1.00  0.00     0.054 A 
HETATM   12  N   UNL     1      46.717 -27.763   0.959  1.00  0.00    -0.129 NA
HETATM   13  C   UNL     1      48.737 -29.019  -1.803  1.00  0.00     0.017 A 
HETATM   14  C   UNL     1      49.586 -29.923  -1.017  1.00  0.00    -0.009 A 
HETATM   15  C   UNL     1      50.542 -30.711  -1.669  1.00  0.00     0.014 A 
HETATM   16  C   UNL     1      51.338 -31.591  -0.939  1.00  0.00     0.001 A 
HETATM   17  C   UNL     1      51.178 -31.689   0.442  1.00  0.00     0.002 A 
HETATM   18  C   UNL     1      50.230 -30.904   1.106  1.00  0.00     0.031 A 
HETATM   19  N   UNL     1      46.963 -28.132   2.248  1.00  0.00    -0.122 NA
ENDBRANCH   6   7
ENDBRANCH   5   6
ENDBRANCH   2   5
BRANCH   1  20
HETATM   20  C   UNL     1      44.235 -30.927   2.413  1.00  0.00     0.127 C 
BRANCH  20  21
HETATM   21  C   UNL     1      43.817 -29.902   1.356  1.00  0.00     0.058 C 
BRANCH  21  22
HETATM   22  C   UNL     1      44.406 -30.261   0.012  1.00  0.00    -0.054 A 
HETATM   23  C   UNL     1      44.052 -29.532  -1.136  1.00  0.00     0.046 A 
HETATM   24  C   UNL     1      44.652 -29.802  -2.371  1.00  0.00     0.102 A 
HETATM   25  C   UNL     1      45.637 -30.800  -2.444  1.00  0.00     0.101 A 
HETATM   26  C   UNL     1      45.968 -31.556  -1.315  1.00  0.00     0.040 A 
HETATM   27  C   UNL     1      45.359 -31.282  -0.090  1.00  0.00     0.010 A 
BRANCH  24  28
HETATM   28  O   UNL     1      44.383 -29.129  -3.535  1.00  0.00    -0.353 OA
HETATM   29  C   UNL     1      45.070 -27.905  -3.750  1.00  0.00     0.210 C 
ENDBRANCH  24  28
BRANCH  25  30
HETATM   30  O   UNL     1      46.219 -31.056  -3.662  1.00  0.00    -0.353 OA
HETATM   31  C   UNL     1      47.084 -32.189  -3.620  1.00  0.00     0.210 C 
ENDBRANCH  25  30
ENDBRANCH  21  22
ENDBRANCH  20  21
ENDBRANCH   1  20
TORSDOF 8
ENDMDL
