MODEL 1
REMARK VINA RESULT:      -8.6      0.000      0.000
REMARK  7 active torsions:
REMARK  status: ('A' for Active; 'I' for Inactive)
REMARK    1  A    between atoms: C_4  and  C_5 
REMARK    2  A    between atoms: C_5  and  O_6 
REMARK    3  A    between atoms: C_5  and  C_7 
REMARK    4  A    between atoms: C_7  and  N_8 
REMARK       I    between atoms: N_8  and  C_9 
REMARK    5  A    between atoms: N_8  and  C_20 
REMARK    6  A    between atoms: C_9  and  C_10 
REMARK    7  A    between atoms: C_14  and  C_15 
ROOT
HETATM    1  N   UNL     1      41.473 -14.795   3.440  1.00  0.00    -0.339 N 
HETATM    2  C   UNL     1      41.089 -13.588   2.808  1.00  0.00     0.274 C 
HETATM    3  O   UNL     1      41.011 -12.539   3.454  1.00  0.00    -0.266 OA
ENDROOT
BRANCH   1   4
HETATM    4  C   UNL     1      41.697 -16.063   2.704  1.00  0.00     0.163 C 
BRANCH   4   5
HETATM    5  C   UNL     1      43.182 -16.418   2.461  1.00  0.00     0.169 C 
BRANCH   5   6
HETATM    6  C   UNL     1      43.468 -17.854   2.858  1.00  0.00    -0.028 A 
HETATM    7  C   UNL     1      44.063 -18.138   4.097  1.00  0.00     0.010 A 
HETATM    8  C   UNL     1      44.306 -19.458   4.483  1.00  0.00     0.001 A 
HETATM    9  C   UNL     1      43.955 -20.509   3.639  1.00  0.00     0.000 A 
HETATM   10  C   UNL     1      43.365 -20.243   2.406  1.00  0.00     0.001 A 
HETATM   11  C   UNL     1      43.121 -18.925   2.019  1.00  0.00     0.010 A 
ENDBRANCH   5   6
BRANCH   5  12
HETATM   12  O   UNL     1      43.507 -16.286   1.072  1.00  0.00    -0.389 OA
HETATM   13  H   UNL     1      44.392 -15.887   1.044  1.00  0.00     0.210 HD
ENDBRANCH   5  12
ENDBRANCH   4   5
ENDBRANCH   1   4
BRANCH   1  14
HETATM   14  C   UNL     1      41.709 -14.722   4.904  1.00  0.00     0.087 C 
HETATM   15  C   UNL     1      43.100 -14.229   5.342  1.00  0.00     0.025 C 
HETATM   16  C   UNL     1      43.194 -14.098   6.862  1.00  0.00     0.002 C 
HETATM   17  C   UNL     1      42.840 -15.406   7.560  1.00  0.00     0.000 C 
HETATM   18  C   UNL     1      41.470 -15.920   7.130  1.00  0.00     0.002 C 
HETATM   19  C   UNL     1      41.362 -16.048   5.611  1.00  0.00     0.025 C 
ENDBRANCH   1  14
BRANCH   2  20
HETATM   20  C   UNL     1      40.822 -13.540   1.352  1.00  0.00     0.146 A 
HETATM   21  N   UNL     1      41.469 -12.757   0.464  1.00  0.00    -0.169 NA
HETATM   22  N   UNL     1      40.896 -13.045  -0.717  1.00  0.00    -0.281 N 
HETATM   23  H   UNL     1      41.213 -12.550  -1.544  1.00  0.00     0.189 HD
HETATM   24  C   UNL     1      39.928 -13.997  -0.639  1.00  0.00     0.034 A 
HETATM   25  C   UNL     1      39.873 -14.366   0.680  1.00  0.00     0.066 A 
BRANCH  24  26
HETATM   26  C   UNL     1      39.070 -14.549  -1.753  1.00  0.00     0.037 A 
HETATM   27  C   UNL     1      37.983 -13.668  -2.331  1.00  0.00     0.011 A 
HETATM   28  C   UNL     1      39.199 -13.959  -3.141  1.00  0.00     0.011 A 
ENDBRANCH  24  26
ENDBRANCH   2  20
TORSDOF 7
ENDMDL
MODEL 2
REMARK VINA RESULT:      -8.2      3.098      6.921
REMARK  7 active torsions:
REMARK  status: ('A' for Active; 'I' for Inactive)
REMARK    1  A    between atoms: C_4  and  C_5 
REMARK    2  A    between atoms: C_5  and  O_6 
REMARK    3  A    between atoms: C_5  and  C_7 
REMARK    4  A    between atoms: C_7  and  N_8 
REMARK       I    between atoms: N_8  and  C_9 
REMARK    5  A    between atoms: N_8  and  C_20 
REMARK    6  A    between atoms: C_9  and  C_10 
REMARK    7  A    between atoms: C_14  and  C_15 
ROOT
HETATM    1  N   UNL     1      43.083 -16.791   4.189  1.00  0.00    -0.339 N 
HETATM    2  C   UNL     1      42.786 -16.489   5.539  1.00  0.00     0.274 C 
HETATM    3  O   UNL     1      42.587 -17.394   6.355  1.00  0.00    -0.266 OA
ENDROOT
BRANCH   1   4
HETATM    4  C   UNL     1      43.444 -15.760   3.186  1.00  0.00     0.163 C 
BRANCH   4   5
HETATM    5  C   UNL     1      42.242 -15.083   2.489  1.00  0.00     0.169 C 
BRANCH   5   6
HETATM    6  C   UNL     1      42.200 -13.599   2.801  1.00  0.00    -0.028 A 
HETATM    7  C   UNL     1      40.968 -12.933   2.897  1.00  0.00     0.010 A 
HETATM    8  C   UNL     1      40.917 -11.573   3.210  1.00  0.00     0.001 A 
HETATM    9  C   UNL     1      42.095 -10.862   3.432  1.00  0.00     0.000 A 
HETATM   10  C   UNL     1      43.325 -11.509   3.339  1.00  0.00     0.001 A 
HETATM   11  C   UNL     1      43.377 -12.868   3.027  1.00  0.00     0.010 A 
ENDBRANCH   5   6
BRANCH   5  12
HETATM   12  O   UNL     1      42.348 -15.218   1.067  1.00  0.00    -0.389 OA
HETATM   13  H   UNL     1      41.593 -14.730   0.697  1.00  0.00     0.210 HD
ENDBRANCH   5  12
ENDBRANCH   4   5
ENDBRANCH   1   4
BRANCH   1  14
HETATM   14  C   UNL     1      43.078 -18.230   3.822  1.00  0.00     0.087 C 
HETATM   15  C   UNL     1      44.199 -19.088   4.434  1.00  0.00     0.025 C 
HETATM   16  C   UNL     1      44.035 -20.564   4.072  1.00  0.00     0.002 C 
HETATM   17  C   UNL     1      43.963 -20.766   2.562  1.00  0.00     0.000 C 
HETATM   18  C   UNL     1      42.866 -19.913   1.933  1.00  0.00     0.002 C 
HETATM   19  C   UNL     1      43.015 -18.436   2.295  1.00  0.00     0.025 C 
ENDBRANCH   1  14
BRANCH   2  20
HETATM   20  C   UNL     1      42.757 -15.088   6.020  1.00  0.00     0.146 A 
HETATM   21  N   UNL     1      41.655 -14.315   6.106  1.00  0.00    -0.169 NA
HETATM   22  N   UNL     1      42.106 -13.141   6.583  1.00  0.00    -0.281 N 
HETATM   23  H   UNL     1      41.444 -12.383   6.713  1.00  0.00     0.189 HD
HETATM   24  C   UNL     1      43.442 -13.130   6.834  1.00  0.00     0.034 A 
HETATM   25  C   UNL     1      43.894 -14.383   6.513  1.00  0.00     0.066 A 
BRANCH  24  26
HETATM   26  C   UNL     1      44.284 -11.987   7.353  1.00  0.00     0.037 A 
HETATM   27  C   UNL     1      45.193 -11.262   6.383  1.00  0.00     0.011 A 
HETATM   28  C   UNL     1      43.972 -10.578   6.896  1.00  0.00     0.011 A 
ENDBRANCH  24  26
ENDBRANCH   2  20
TORSDOF 7
ENDMDL
MODEL 3
REMARK VINA RESULT:      -8.0      1.654      6.144
REMARK  7 active torsions:
REMARK  status: ('A' for Active; 'I' for Inactive)
REMARK    1  A    between atoms: C_4  and  C_5 
REMARK    2  A    between atoms: C_5  and  O_6 
REMARK    3  A    between atoms: C_5  and  C_7 
REMARK    4  A    between atoms: C_7  and  N_8 
REMARK       I    between atoms: N_8  and  C_9 
REMARK    5  A    between atoms: N_8  and  C_20 
REMARK    6  A    between atoms: C_9  and  C_10 
REMARK    7  A    between atoms: C_14  and  C_15 
ROOT
HETATM    1  N   UNL     1      40.785 -13.890   1.998  1.00  0.00    -0.339 N 
HETATM    2  C   UNL     1      40.781 -12.785   2.882  1.00  0.00     0.274 C 
HETATM    3  O   UNL     1      40.277 -11.711   2.541  1.00  0.00    -0.266 OA
ENDROOT
BRANCH   1   4
HETATM    4  C   UNL     1      41.269 -15.238   2.384  1.00  0.00     0.163 C 
BRANCH   4   5
HETATM    5  C   UNL     1      42.790 -15.455   2.210  1.00  0.00     0.169 C 
BRANCH   5   6
HETATM    6  C   UNL     1      43.272 -16.615   3.062  1.00  0.00    -0.028 A 
HETATM    7  C   UNL     1      43.442 -17.886   2.491  1.00  0.00     0.010 A 
HETATM    8  C   UNL     1      43.912 -18.953   3.259  1.00  0.00     0.001 A 
HETATM    9  C   UNL     1      44.219 -18.765   4.605  1.00  0.00     0.000 A 
HETATM   10  C   UNL     1      44.055 -17.509   5.185  1.00  0.00     0.001 A 
HETATM   11  C   UNL     1      43.586 -16.442   4.419  1.00  0.00     0.010 A 
ENDBRANCH   5   6
BRANCH   5  12
HETATM   12  O   UNL     1      43.097 -15.769   0.847  1.00  0.00    -0.389 OA
HETATM   13  H   UNL     1      43.628 -16.583   0.875  1.00  0.00     0.210 HD
ENDBRANCH   5  12
ENDBRANCH   4   5
ENDBRANCH   1   4
BRANCH   1  14
HETATM   14  C   UNL     1      40.211 -13.654   0.649  1.00  0.00     0.087 C 
HETATM   15  C   UNL     1      39.841 -14.910  -0.159  1.00  0.00     0.025 C 
HETATM   16  C   UNL     1      39.168 -14.547  -1.482  1.00  0.00     0.002 C 
HETATM   17  C   UNL     1      40.034 -13.606  -2.312  1.00  0.00     0.000 C 
HETATM   18  C   UNL     1      40.423 -12.360  -1.524  1.00  0.00     0.002 C 
HETATM   19  C   UNL     1      41.091 -12.711  -0.195  1.00  0.00     0.025 C 
ENDBRANCH   1  14
BRANCH   2  20
HETATM   20  C   UNL     1      41.332 -12.901   4.252  1.00  0.00     0.146 A 
HETATM   21  N   UNL     1      40.621 -13.208   5.356  1.00  0.00    -0.169 NA
HETATM   22  N   UNL     1      41.525 -13.195   6.351  1.00  0.00    -0.281 N 
HETATM   23  H   UNL     1      41.209 -13.381   7.298  1.00  0.00     0.189 HD
HETATM   24  C   UNL     1      42.791 -12.920   5.937  1.00  0.00     0.034 A 
HETATM   25  C   UNL     1      42.713 -12.755   4.579  1.00  0.00     0.066 A 
BRANCH  24  26
HETATM   26  C   UNL     1      44.043 -12.807   6.776  1.00  0.00     0.037 A 
HETATM   27  C   UNL     1      44.993 -11.661   6.503  1.00  0.00     0.011 A 
HETATM   28  C   UNL     1      44.174 -11.654   7.748  1.00  0.00     0.011 A 
ENDBRANCH  24  26
ENDBRANCH   2  20
TORSDOF 7
ENDMDL
MODEL 4
REMARK VINA RESULT:      -8.0      1.609      1.973
REMARK  7 active torsions:
REMARK  status: ('A' for Active; 'I' for Inactive)
REMARK    1  A    between atoms: C_4  and  C_5 
REMARK    2  A    between atoms: C_5  and  O_6 
REMARK    3  A    between atoms: C_5  and  C_7 
REMARK    4  A    between atoms: C_7  and  N_8 
REMARK       I    between atoms: N_8  and  C_9 
REMARK    5  A    between atoms: N_8  and  C_20 
REMARK    6  A    between atoms: C_9  and  C_10 
REMARK    7  A    between atoms: C_14  and  C_15 
ROOT
HETATM    1  N   UNL     1      42.252 -13.697   3.266  1.00  0.00    -0.339 N 
HETATM    2  C   UNL     1      41.197 -13.041   2.588  1.00  0.00     0.274 C 
HETATM    3  O   UNL     1      40.751 -11.969   3.008  1.00  0.00    -0.266 OA
ENDROOT
BRANCH   1   4
HETATM    4  C   UNL     1      42.910 -14.923   2.754  1.00  0.00     0.163 C 
BRANCH   4   5
HETATM    5  C   UNL     1      42.022 -16.188   2.764  1.00  0.00     0.169 C 
BRANCH   5   6
HETATM    6  C   UNL     1      42.839 -17.422   3.099  1.00  0.00    -0.028 A 
HETATM    7  C   UNL     1      43.520 -17.506   4.322  1.00  0.00     0.010 A 
HETATM    8  C   UNL     1      44.253 -18.649   4.651  1.00  0.00     0.001 A 
HETATM    9  C   UNL     1      44.312 -19.721   3.764  1.00  0.00     0.000 A 
HETATM   10  C   UNL     1      43.641 -19.652   2.545  1.00  0.00     0.001 A 
HETATM   11  C   UNL     1      42.909 -18.511   2.215  1.00  0.00     0.010 A 
ENDBRANCH   5   6
BRANCH   5  12
HETATM   12  O   UNL     1      40.997 -16.071   3.759  1.00  0.00    -0.389 OA
HETATM   13  H   UNL     1      40.462 -16.879   3.685  1.00  0.00     0.210 HD
ENDBRANCH   5  12
ENDBRANCH   4   5
ENDBRANCH   1   4
BRANCH   1  14
HETATM   14  C   UNL     1      42.728 -13.053   4.516  1.00  0.00     0.087 C 
HETATM   15  C   UNL     1      43.776 -11.938   4.348  1.00  0.00     0.025 C 
HETATM   16  C   UNL     1      44.115 -11.280   5.685  1.00  0.00     0.002 C 
HETATM   17  C   UNL     1      44.579 -12.307   6.712  1.00  0.00     0.000 C 
HETATM   18  C   UNL     1      43.560 -13.428   6.885  1.00  0.00     0.002 C 
HETATM   19  C   UNL     1      43.207 -14.088   5.553  1.00  0.00     0.025 C 
ENDBRANCH   1  14
BRANCH   2  20
HETATM   20  C   UNL     1      40.637 -13.593   1.332  1.00  0.00     0.146 A 
HETATM   21  N   UNL     1      39.719 -14.579   1.254  1.00  0.00    -0.169 NA
HETATM   22  N   UNL     1      39.519 -14.746  -0.065  1.00  0.00    -0.281 N 
HETATM   23  H   UNL     1      38.872 -15.465  -0.371  1.00  0.00     0.189 HD
HETATM   24  C   UNL     1      40.244 -13.896  -0.841  1.00  0.00     0.034 A 
HETATM   25  C   UNL     1      40.956 -13.111   0.028  1.00  0.00     0.066 A 
BRANCH  24  26
HETATM   26  C   UNL     1      40.283 -13.813  -2.349  1.00  0.00     0.037 A 
HETATM   27  C   UNL     1      39.270 -12.933  -3.050  1.00  0.00     0.011 A 
HETATM   28  C   UNL     1      40.699 -12.514  -3.004  1.00  0.00     0.011 A 
ENDBRANCH  24  26
ENDBRANCH   2  20
TORSDOF 7
ENDMDL
MODEL 5
REMARK VINA RESULT:      -7.6     14.357     16.340
REMARK  7 active torsions:
REMARK  status: ('A' for Active; 'I' for Inactive)
REMARK    1  A    between atoms: C_4  and  C_5 
REMARK    2  A    between atoms: C_5  and  O_6 
REMARK    3  A    between atoms: C_5  and  C_7 
REMARK    4  A    between atoms: C_7  and  N_8 
REMARK       I    between atoms: N_8  and  C_9 
REMARK    5  A    between atoms: N_8  and  C_20 
REMARK    6  A    between atoms: C_9  and  C_10 
REMARK    7  A    between atoms: C_14  and  C_15 
ROOT
HETATM    1  N   UNL     1      48.254 -29.805   1.224  1.00  0.00    -0.339 N 
HETATM    2  C   UNL     1      47.379 -28.717   0.989  1.00  0.00     0.274 C 
HETATM    3  O   UNL     1      47.041 -27.973   1.913  1.00  0.00    -0.266 OA
ENDROOT
BRANCH   1   4
HETATM    4  C   UNL     1      48.789 -30.666   0.142  1.00  0.00     0.163 C 
BRANCH   4   5
HETATM    5  C   UNL     1      49.897 -30.016  -0.717  1.00  0.00     0.169 C 
BRANCH   5   6
HETATM    6  C   UNL     1      51.047 -30.981  -0.940  1.00  0.00    -0.028 A 
HETATM    7  C   UNL     1      51.342 -31.960   0.021  1.00  0.00     0.010 A 
HETATM    8  C   UNL     1      52.381 -32.871  -0.187  1.00  0.00     0.001 A 
HETATM    9  C   UNL     1      53.135 -32.815  -1.358  1.00  0.00     0.000 A 
HETATM   10  C   UNL     1      52.854 -31.849  -2.320  1.00  0.00     0.001 A 
HETATM   11  C   UNL     1      51.816 -30.939  -2.114  1.00  0.00     0.010 A 
ENDBRANCH   5   6
BRANCH   5  12
HETATM   12  O   UNL     1      49.385 -29.657  -2.005  1.00  0.00    -0.389 OA
HETATM   13  H   UNL     1      49.937 -28.920  -2.315  1.00  0.00     0.210 HD
ENDBRANCH   5  12
ENDBRANCH   4   5
ENDBRANCH   1   4
BRANCH   1  14
HETATM   14  C   UNL     1      48.676 -30.015   2.632  1.00  0.00     0.087 C 
HETATM   15  C   UNL     1      50.192 -30.008   2.893  1.00  0.00     0.025 C 
HETATM   16  C   UNL     1      50.505 -30.130   4.384  1.00  0.00     0.002 C 
HETATM   17  C   UNL     1      49.858 -31.369   4.993  1.00  0.00     0.000 C 
HETATM   18  C   UNL     1      48.355 -31.401   4.734  1.00  0.00     0.002 C 
HETATM   19  C   UNL     1      48.030 -31.273   3.246  1.00  0.00     0.025 C 
ENDBRANCH   1  14
BRANCH   2  20
HETATM   20  C   UNL     1      46.887 -28.414  -0.375  1.00  0.00     0.146 A 
HETATM   21  N   UNL     1      47.521 -27.638  -1.279  1.00  0.00    -0.169 NA
HETATM   22  N   UNL     1      46.713 -27.647  -2.353  1.00  0.00    -0.281 N 
HETATM   23  H   UNL     1      46.980 -27.101  -3.166  1.00  0.00     0.189 HD
HETATM   24  C   UNL     1      45.601 -28.414  -2.196  1.00  0.00     0.034 A 
HETATM   25  C   UNL     1      45.693 -28.954  -0.939  1.00  0.00     0.066 A 
BRANCH  24  26
HETATM   26  C   UNL     1      44.476 -28.639  -3.180  1.00  0.00     0.037 A 
HETATM   27  C   UNL     1      44.779 -29.382  -4.464  1.00  0.00     0.011 A 
HETATM   28  C   UNL     1      43.968 -30.047  -3.406  1.00  0.00     0.011 A 
ENDBRANCH  24  26
ENDBRANCH   2  20
TORSDOF 7
ENDMDL
MODEL 6
REMARK VINA RESULT:      -7.6      3.510      6.233
REMARK  7 active torsions:
REMARK  status: ('A' for Active; 'I' for Inactive)
REMARK    1  A    between atoms: C_4  and  C_5 
REMARK    2  A    between atoms: C_5  and  O_6 
REMARK    3  A    between atoms: C_5  and  C_7 
REMARK    4  A    between atoms: C_7  and  N_8 
REMARK       I    between atoms: N_8  and  C_9 
REMARK    5  A    between atoms: N_8  and  C_20 
REMARK    6  A    between atoms: C_9  and  C_10 
REMARK    7  A    between atoms: C_14  and  C_15 
ROOT
HETATM    1  N   UNL     1      42.885 -12.199   6.387  1.00  0.00    -0.339 N 
HETATM    2  C   UNL     1      42.952 -13.612   6.364  1.00  0.00     0.274 C 
HETATM    3  O   UNL     1      43.751 -14.215   7.085  1.00  0.00    -0.266 OA
ENDROOT
BRANCH   1   4
HETATM    4  C   UNL     1      41.874 -11.419   5.634  1.00  0.00     0.163 C 
BRANCH   4   5
HETATM    5  C   UNL     1      42.300 -11.013   4.205  1.00  0.00     0.169 C 
BRANCH   5   6
HETATM    6  C   UNL     1      41.253 -11.428   3.187  1.00  0.00    -0.028 A 
HETATM    7  C   UNL     1      41.532 -11.344   1.815  1.00  0.00     0.010 A 
HETATM    8  C   UNL     1      40.585 -11.748   0.871  1.00  0.00     0.001 A 
HETATM    9  C   UNL     1      39.351 -12.243   1.286  1.00  0.00     0.000 A 
HETATM   10  C   UNL     1      39.059 -12.331   2.645  1.00  0.00     0.001 A 
HETATM   11  C   UNL     1      40.004 -11.928   3.590  1.00  0.00     0.010 A 
ENDBRANCH   5   6
BRANCH   5  12
HETATM   12  O   UNL     1      42.445  -9.591   4.112  1.00  0.00    -0.389 OA
HETATM   13  H   UNL     1      43.331  -9.391   4.458  1.00  0.00     0.210 HD
ENDBRANCH   5  12
ENDBRANCH   4   5
ENDBRANCH   1   4
BRANCH   1  14
HETATM   14  C   UNL     1      43.860 -11.511   7.271  1.00  0.00     0.087 C 
HETATM   15  C   UNL     1      43.367 -10.221   7.949  1.00  0.00     0.025 C 
HETATM   16  C   UNL     1      44.413  -9.658   8.911  1.00  0.00     0.002 C 
HETATM   17  C   UNL     1      45.748  -9.424   8.212  1.00  0.00     0.000 C 
HETATM   18  C   UNL     1      46.249 -10.688   7.521  1.00  0.00     0.002 C 
HETATM   19  C   UNL     1      45.207 -11.265   6.563  1.00  0.00     0.025 C 
ENDBRANCH   1  14
BRANCH   2  20
HETATM   20  C   UNL     1      42.032 -14.406   5.515  1.00  0.00     0.146 A 
HETATM   21  N   UNL     1      40.795 -14.809   5.870  1.00  0.00    -0.169 NA
HETATM   22  N   UNL     1      40.345 -15.491   4.802  1.00  0.00    -0.281 N 
HETATM   23  H   UNL     1      39.425 -15.915   4.848  1.00  0.00     0.189 HD
HETATM   24  C   UNL     1      41.224 -15.523   3.764  1.00  0.00     0.034 A 
HETATM   25  C   UNL     1      42.315 -14.804   4.175  1.00  0.00     0.066 A 
BRANCH  24  26
HETATM   26  C   UNL     1      41.062 -16.207   2.426  1.00  0.00     0.037 A 
HETATM   27  C   UNL     1      39.917 -15.781   1.532  1.00  0.00     0.011 A 
HETATM   28  C   UNL     1      41.313 -15.416   1.161  1.00  0.00     0.011 A 
ENDBRANCH  24  26
ENDBRANCH   2  20
TORSDOF 7
ENDMDL
MODEL 7
REMARK VINA RESULT:      -7.6      3.107      6.821
REMARK  7 active torsions:
REMARK  status: ('A' for Active; 'I' for Inactive)
REMARK    1  A    between atoms: C_4  and  C_5 
REMARK    2  A    between atoms: C_5  and  O_6 
REMARK    3  A    between atoms: C_5  and  C_7 
REMARK    4  A    between atoms: C_7  and  N_8 
REMARK       I    between atoms: N_8  and  C_9 
REMARK    5  A    between atoms: N_8  and  C_20 
REMARK    6  A    between atoms: C_9  and  C_10 
REMARK    7  A    between atoms: C_14  and  C_15 
ROOT
HETATM    1  N   UNL     1      42.819 -12.887   4.185  1.00  0.00    -0.339 N 
HETATM    2  C   UNL     1      43.216 -11.573   4.529  1.00  0.00     0.274 C 
HETATM    3  O   UNL     1      42.671 -10.595   4.009  1.00  0.00    -0.266 OA
ENDROOT
BRANCH   1   4
HETATM    4  C   UNL     1      43.350 -14.099   4.854  1.00  0.00     0.163 C 
BRANCH   4   5
HETATM    5  C   UNL     1      42.345 -15.267   4.974  1.00  0.00     0.169 C 
BRANCH   5   6
HETATM    6  C   UNL     1      42.873 -16.510   4.281  1.00  0.00    -0.028 A 
HETATM    7  C   UNL     1      42.336 -16.911   3.048  1.00  0.00     0.010 A 
HETATM    8  C   UNL     1      42.832 -18.038   2.389  1.00  0.00     0.001 A 
HETATM    9  C   UNL     1      43.872 -18.776   2.953  1.00  0.00     0.000 A 
HETATM   10  C   UNL     1      44.413 -18.391   4.176  1.00  0.00     0.001 A 
HETATM   11  C   UNL     1      43.919 -17.264   4.835  1.00  0.00     0.010 A 
ENDBRANCH   5   6
BRANCH   5  12
HETATM   12  O   UNL     1      42.132 -15.603   6.350  1.00  0.00    -0.389 OA
HETATM   13  H   UNL     1      41.296 -15.175   6.601  1.00  0.00     0.210 HD
ENDBRANCH   5  12
ENDBRANCH   4   5
ENDBRANCH   1   4
BRANCH   1  14
HETATM   14  C   UNL     1      41.771 -13.002   3.140  1.00  0.00     0.087 C 
HETATM   15  C   UNL     1      40.450 -13.662   3.574  1.00  0.00     0.025 C 
HETATM   16  C   UNL     1      39.414 -13.634   2.451  1.00  0.00     0.002 C 
HETATM   17  C   UNL     1      39.949 -14.283   1.179  1.00  0.00     0.000 C 
HETATM   18  C   UNL     1      41.265 -13.652   0.738  1.00  0.00     0.002 C 
HETATM   19  C   UNL     1      42.307 -13.667   1.856  1.00  0.00     0.025 C 
ENDBRANCH   1  14
BRANCH   2  20
HETATM   20  C   UNL     1      44.257 -11.334   5.557  1.00  0.00     0.146 A 
HETATM   21  N   UNL     1      45.586 -11.300   5.328  1.00  0.00    -0.169 NA
HETATM   22  N   UNL     1      46.128 -11.062   6.535  1.00  0.00    -0.281 N 
HETATM   23  H   UNL     1      47.138 -11.015   6.614  1.00  0.00     0.189 HD
HETATM   24  C   UNL     1      45.209 -10.914   7.528  1.00  0.00     0.034 A 
HETATM   25  C   UNL     1      43.985 -11.051   6.928  1.00  0.00     0.066 A 
BRANCH  24  26
HETATM   26  C   UNL     1      45.456 -10.658   8.996  1.00  0.00     0.037 A 
HETATM   27  C   UNL     1      45.361  -9.235   9.506  1.00  0.00     0.011 A 
HETATM   28  C   UNL     1      44.301 -10.218   9.870  1.00  0.00     0.011 A 
ENDBRANCH  24  26
ENDBRANCH   2  20
TORSDOF 7
ENDMDL
MODEL 8
REMARK VINA RESULT:      -7.5      1.905      4.592
REMARK  7 active torsions:
REMARK  status: ('A' for Active; 'I' for Inactive)
REMARK    1  A    between atoms: C_4  and  C_5 
REMARK    2  A    between atoms: C_5  and  O_6 
REMARK    3  A    between atoms: C_5  and  C_7 
REMARK    4  A    between atoms: C_7  and  N_8 
REMARK       I    between atoms: N_8  and  C_9 
REMARK    5  A    between atoms: N_8  and  C_20 
REMARK    6  A    between atoms: C_9  and  C_10 
REMARK    7  A    between atoms: C_14  and  C_15 
ROOT
HETATM    1  N   UNL     1      42.034 -15.362   2.455  1.00  0.00    -0.339 N 
HETATM    2  C   UNL     1      40.793 -15.466   1.782  1.00  0.00     0.274 C 
HETATM    3  O   UNL     1      40.142 -16.513   1.824  1.00  0.00    -0.266 OA
ENDROOT
BRANCH   1   4
HETATM    4  C   UNL     1      42.811 -14.102   2.541  1.00  0.00     0.163 C 
BRANCH   4   5
HETATM    5  C   UNL     1      42.177 -13.010   3.433  1.00  0.00     0.169 C 
BRANCH   5   6
HETATM    6  C   UNL     1      43.067 -12.696   4.621  1.00  0.00    -0.028 A 
HETATM    7  C   UNL     1      44.048 -11.698   4.524  1.00  0.00     0.010 A 
HETATM    8  C   UNL     1      44.854 -11.383   5.620  1.00  0.00     0.001 A 
HETATM    9  C   UNL     1      44.689 -12.059   6.826  1.00  0.00     0.000 A 
HETATM   10  C   UNL     1      43.720 -13.054   6.938  1.00  0.00     0.001 A 
HETATM   11  C   UNL     1      42.914 -13.369   5.844  1.00  0.00     0.010 A 
ENDBRANCH   5   6
BRANCH   5  12
HETATM   12  O   UNL     1      42.010 -11.795   2.692  1.00  0.00    -0.389 OA
HETATM   13  H   UNL     1      41.191 -11.391   3.025  1.00  0.00     0.210 HD
ENDBRANCH   5  12
ENDBRANCH   4   5
ENDBRANCH   1   4
BRANCH   1  14
HETATM   14  C   UNL     1      42.511 -16.588   3.144  1.00  0.00     0.087 C 
HETATM   15  C   UNL     1      43.345 -16.368   4.419  1.00  0.00     0.025 C 
HETATM   16  C   UNL     1      43.692 -17.693   5.097  1.00  0.00     0.002 C 
HETATM   17  C   UNL     1      44.407 -18.642   4.141  1.00  0.00     0.000 C 
HETATM   18  C   UNL     1      43.602 -18.863   2.864  1.00  0.00     0.002 C 
HETATM   19  C   UNL     1      43.243 -17.544   2.181  1.00  0.00     0.025 C 
ENDBRANCH   1  14
BRANCH   2  20
HETATM   20  C   UNL     1      40.220 -14.309   1.055  1.00  0.00     0.146 A 
HETATM   21  N   UNL     1      39.452 -13.345   1.604  1.00  0.00    -0.169 NA
HETATM   22  N   UNL     1      39.167 -12.521   0.580  1.00  0.00    -0.281 N 
HETATM   23  H   UNL     1      38.571 -11.718   0.754  1.00  0.00     0.189 HD
HETATM   24  C   UNL     1      39.738 -12.893  -0.597  1.00  0.00     0.034 A 
HETATM   25  C   UNL     1      40.455 -14.028  -0.324  1.00  0.00     0.066 A 
BRANCH  24  26
HETATM   26  C   UNL     1      39.620 -12.219  -1.945  1.00  0.00     0.037 A 
HETATM   27  C   UNL     1      40.594 -11.112  -2.285  1.00  0.00     0.011 A 
HETATM   28  C   UNL     1      40.712 -12.429  -2.971  1.00  0.00     0.011 A 
ENDBRANCH  24  26
ENDBRANCH   2  20
TORSDOF 7
ENDMDL
MODEL 9
REMARK VINA RESULT:      -7.4     14.249     16.429
REMARK  7 active torsions:
REMARK  status: ('A' for Active; 'I' for Inactive)
REMARK    1  A    between atoms: C_4  and  C_5 
REMARK    2  A    between atoms: C_5  and  O_6 
REMARK    3  A    between atoms: C_5  and  C_7 
REMARK    4  A    between atoms: C_7  and  N_8 
REMARK       I    between atoms: N_8  and  C_9 
REMARK    5  A    between atoms: N_8  and  C_20 
REMARK    6  A    between atoms: C_9  and  C_10 
REMARK    7  A    between atoms: C_14  and  C_15 
ROOT
HETATM    1  N   UNL     1      46.214 -29.634  -0.224  1.00  0.00    -0.339 N 
HETATM    2  C   UNL     1      47.455 -28.991   0.002  1.00  0.00     0.274 C 
HETATM    3  O   UNL     1      48.035 -28.406  -0.917  1.00  0.00    -0.266 OA
ENDROOT
BRANCH   1   4
HETATM    4  C   UNL     1      45.410 -30.254   0.857  1.00  0.00     0.163 C 
BRANCH   4   5
HETATM    5  C   UNL     1      44.303 -29.348   1.442  1.00  0.00     0.169 C 
BRANCH   5   6
HETATM    6  C   UNL     1      43.106 -30.170   1.882  1.00  0.00    -0.028 A 
HETATM    7  C   UNL     1      42.498 -29.922   3.123  1.00  0.00     0.010 A 
HETATM    8  C   UNL     1      41.379 -30.654   3.525  1.00  0.00     0.001 A 
HETATM    9  C   UNL     1      40.853 -31.640   2.694  1.00  0.00     0.000 A 
HETATM   10  C   UNL     1      41.446 -31.899   1.461  1.00  0.00     0.001 A 
HETATM   11  C   UNL     1      42.564 -31.168   1.057  1.00  0.00     0.010 A 
ENDBRANCH   5   6
BRANCH   5  12
HETATM   12  O   UNL     1      44.788 -28.648   2.594  1.00  0.00    -0.389 OA
HETATM   13  H   UNL     1      45.320 -27.911   2.252  1.00  0.00     0.210 HD
ENDBRANCH   5  12
ENDBRANCH   4   5
ENDBRANCH   1   4
BRANCH   1  14
HETATM   14  C   UNL     1      45.707 -29.608  -1.620  1.00  0.00     0.087 C 
HETATM   15  C   UNL     1      45.092 -28.279  -2.092  1.00  0.00     0.025 C 
HETATM   16  C   UNL     1      44.700 -28.336  -3.568  1.00  0.00     0.002 C 
HETATM   17  C   UNL     1      43.755 -29.499  -3.852  1.00  0.00     0.000 C 
HETATM   18  C   UNL     1      44.341 -30.826  -3.379  1.00  0.00     0.002 C 
HETATM   19  C   UNL     1      44.744 -30.777  -1.905  1.00  0.00     0.025 C 
ENDBRANCH   1  14
BRANCH   2  20
HETATM   20  C   UNL     1      48.061 -28.957   1.353  1.00  0.00     0.146 A 
HETATM   21  N   UNL     1      47.800 -28.036   2.304  1.00  0.00    -0.169 NA
HETATM   22  N   UNL     1      48.571 -28.400   3.344  1.00  0.00    -0.281 N 
HETATM   23  H   UNL     1      48.556 -27.829   4.182  1.00  0.00     0.189 HD
HETATM   24  C   UNL     1      49.298 -29.527   3.118  1.00  0.00     0.034 A 
HETATM   25  C   UNL     1      48.971 -29.936   1.852  1.00  0.00     0.066 A 
BRANCH  24  26
HETATM   26  C   UNL     1      50.275 -30.207   4.048  1.00  0.00     0.037 A 
HETATM   27  C   UNL     1      49.789 -31.378   4.875  1.00  0.00     0.011 A 
HETATM   28  C   UNL     1      50.722 -31.620   3.739  1.00  0.00     0.011 A 
ENDBRANCH  24  26
ENDBRANCH   2  20
TORSDOF 7
ENDMDL
MODEL 10
REMARK VINA RESULT:      -7.2      2.039      6.912
REMARK  7 active torsions:
REMARK  status: ('A' for Active; 'I' for Inactive)
REMARK    1  A    between atoms: C_4  and  C_5 
REMARK    2  A    between atoms: C_5  and  O_6 
REMARK    3  A    between atoms: C_5  and  C_7 
REMARK    4  A    between atoms: C_7  and  N_8 
REMARK       I    between atoms: N_8  and  C_9 
REMARK    5  A    between atoms: N_8  and  C_20 
REMARK    6  A    between atoms: C_9  and  C_10 
REMARK    7  A    between atoms: C_14  and  C_15 
ROOT
HETATM    1  N   UNL     1      40.714 -13.651   0.614  1.00  0.00    -0.339 N 
HETATM    2  C   UNL     1      40.628 -15.015   0.984  1.00  0.00     0.274 C 
HETATM    3  O   UNL     1      39.712 -15.724   0.560  1.00  0.00    -0.266 OA
ENDROOT
BRANCH   1   4
HETATM    4  C   UNL     1      41.848 -12.775   0.994  1.00  0.00     0.163 C 
BRANCH   4   5
HETATM    5  C   UNL     1      41.535 -11.758   2.116  1.00  0.00     0.169 C 
BRANCH   5   6
HETATM    6  C   UNL     1      41.714 -12.389   3.484  1.00  0.00    -0.028 A 
HETATM    7  C   UNL     1      42.994 -12.749   3.933  1.00  0.00     0.010 A 
HETATM    8  C   UNL     1      43.173 -13.304   5.201  1.00  0.00     0.001 A 
HETATM    9  C   UNL     1      42.077 -13.505   6.038  1.00  0.00     0.000 A 
HETATM   10  C   UNL     1      40.800 -13.153   5.606  1.00  0.00     0.001 A 
HETATM   11  C   UNL     1      40.620 -12.598   4.339  1.00  0.00     0.010 A 
ENDBRANCH   5   6
BRANCH   5  12
HETATM   12  O   UNL     1      42.427 -10.640   2.040  1.00  0.00    -0.389 OA
HETATM   13  H   UNL     1      42.257 -10.223   1.179  1.00  0.00     0.210 HD
ENDBRANCH   5  12
ENDBRANCH   4   5
ENDBRANCH   1   4
BRANCH   1  14
HETATM   14  C   UNL     1      39.620 -13.136  -0.247  1.00  0.00     0.087 C 
HETATM   15  C   UNL     1      40.022 -12.707  -1.670  1.00  0.00     0.025 C 
HETATM   16  C   UNL     1      38.805 -12.293  -2.496  1.00  0.00     0.002 C 
HETATM   17  C   UNL     1      38.008 -11.192  -1.805  1.00  0.00     0.000 C 
HETATM   18  C   UNL     1      37.610 -11.591  -0.388  1.00  0.00     0.002 C 
HETATM   19  C   UNL     1      38.819 -12.015   0.445  1.00  0.00     0.025 C 
ENDBRANCH   1  14
BRANCH   2  20
HETATM   20  C   UNL     1      41.660 -15.638   1.846  1.00  0.00     0.146 A 
HETATM   21  N   UNL     1      42.936 -15.881   1.483  1.00  0.00    -0.169 NA
HETATM   22  N   UNL     1      43.490 -16.450   2.569  1.00  0.00    -0.281 N 
HETATM   23  H   UNL     1      44.460 -16.744   2.521  1.00  0.00     0.189 HD
HETATM   24  C   UNL     1      42.639 -16.560   3.624  1.00  0.00     0.034 A 
HETATM   25  C   UNL     1      41.453 -16.015   3.205  1.00  0.00     0.066 A 
BRANCH  24  26
HETATM   26  C   UNL     1      42.912 -17.159   4.984  1.00  0.00     0.037 A 
HETATM   27  C   UNL     1      43.903 -18.299   5.084  1.00  0.00     0.011 A 
HETATM   28  C   UNL     1      44.272 -16.957   5.616  1.00  0.00     0.011 A 
ENDBRANCH  24  26
ENDBRANCH   2  20
TORSDOF 7
ENDMDL
