MODEL 1
REMARK VINA RESULT:      -8.7      0.000      0.000
REMARK  4 active torsions:
REMARK  status: ('A' for Active; 'I' for Inactive)
REMARK    1  A    between atoms: C_3  and  N_4 
REMARK       I    between atoms: N_4  and  C_5 
REMARK    2  A    between atoms: C_5  and  C_6 
REMARK    3  A    between atoms: C_7  and  C_8 
REMARK    4  A    between atoms: C_11  and  O_12 
ROOT
HETATM    1  C   UNL     1      41.435 -13.947   1.941  1.00  0.00     0.062 A 
HETATM    2  C   UNL     1      41.706 -12.531   2.433  1.00  0.00     0.202 A 
HETATM    3  N   UNL     1      40.497 -11.699   2.360  1.00  0.00    -0.083 N 
HETATM    4  C   UNL     1      39.302 -12.129   1.850  1.00  0.00     0.726 A 
HETATM    5  N   UNL     1      39.193 -13.390   1.393  1.00  0.00    -0.192 N 
HETATM    6  N   UNL     1      40.449 -10.388   2.678  1.00  0.00    -0.141 NA
HETATM    7  C   UNL     1      39.159 -10.116   2.431  1.00  0.00     0.162 A 
HETATM    8  C   UNL     1      38.554  -8.799   2.712  1.00  0.00     0.096 C 
HETATM    9  N   UNL     1      38.430 -11.156   1.903  1.00  0.00    -0.046 NA
HETATM   10  C   UNL     1      40.225 -14.318   1.454  1.00  0.00     0.037 A 
HETATM   11  C   UNL     1      39.897 -15.700   0.947  1.00  0.00     0.070 C 
HETATM   12  H   UNL     1      38.288 -13.711   1.058  1.00  0.00     0.184 HD
ENDROOT
BRANCH   1  13
HETATM   13  C   UNL     1      42.512 -14.955   2.130  1.00  0.00     0.256 C 
HETATM   14  N   UNL     1      42.124 -16.017   2.920  1.00  0.00    -0.323 N 
HETATM   15  H   UNL     1      41.213 -15.964   3.347  1.00  0.00     0.169 HD
HETATM   16  O   UNL     1      43.605 -14.761   1.612  1.00  0.00    -0.267 OA
BRANCH  14  17
HETATM   17  C   UNL     1      42.882 -17.175   3.229  1.00  0.00     0.041 A 
HETATM   18  C   UNL     1      43.568 -17.233   4.464  1.00  0.00    -0.035 A 
HETATM   19  C   UNL     1      43.524 -16.112   5.468  1.00  0.00     0.050 C 
HETATM   20  C   UNL     1      44.312 -18.382   4.788  1.00  0.00     0.009 A 
HETATM   21  C   UNL     1      44.385 -19.461   3.909  1.00  0.00     0.001 A 
HETATM   22  C   UNL     1      43.709 -19.405   2.698  1.00  0.00     0.002 A 
HETATM   23  C   UNL     1      42.963 -18.272   2.362  1.00  0.00     0.030 A 
ENDBRANCH  14  17
ENDBRANCH   1  13
BRANCH   2  24
HETATM   24  C   UNL     1      42.319 -12.468   3.826  1.00  0.00    -0.028 A 
HETATM   25  C   UNL     1      43.597 -11.917   4.002  1.00  0.00     0.012 A 
HETATM   26  C   UNL     1      44.176 -11.858   5.271  1.00  0.00     0.037 A 
HETATM   27  C   UNL     1      43.494 -12.340   6.388  1.00  0.00     0.068 A 
HETATM   28  C   UNL     1      42.225 -12.895   6.225  1.00  0.00     0.037 A 
HETATM   29  C   UNL     1      41.641 -12.958   4.953  1.00  0.00     0.012 A 
BRANCH  27  30
HETATM   30  O   UNL     1      44.173 -12.214   7.569  1.00  0.00    -0.356 OA
HETATM   31  C   UNL     1      45.124 -11.161   7.651  1.00  0.00     0.210 C 
ENDBRANCH  27  30
ENDBRANCH   2  24
TORSDOF 4
ENDMDL
MODEL 2
REMARK VINA RESULT:      -8.6      2.523      4.968
REMARK  4 active torsions:
REMARK  status: ('A' for Active; 'I' for Inactive)
REMARK    1  A    between atoms: C_3  and  N_4 
REMARK       I    between atoms: N_4  and  C_5 
REMARK    2  A    between atoms: C_5  and  C_6 
REMARK    3  A    between atoms: C_7  and  C_8 
REMARK    4  A    between atoms: C_11  and  O_12 
ROOT
HETATM    1  C   UNL     1      42.445 -14.811   5.711  1.00  0.00     0.062 A 
HETATM    2  C   UNL     1      41.483 -13.780   5.135  1.00  0.00     0.202 A 
HETATM    3  N   UNL     1      41.894 -12.413   5.481  1.00  0.00    -0.083 N 
HETATM    4  C   UNL     1      42.966 -12.114   6.277  1.00  0.00     0.726 A 
HETATM    5  N   UNL     1      43.717 -13.112   6.777  1.00  0.00    -0.192 N 
HETATM    6  N   UNL     1      41.204 -11.299   5.152  1.00  0.00    -0.141 NA
HETATM    7  C   UNL     1      41.979 -10.352   5.700  1.00  0.00     0.162 A 
HETATM    8  C   UNL     1      41.706  -8.909   5.543  1.00  0.00     0.096 C 
HETATM    9  N   UNL     1      43.059 -10.817   6.414  1.00  0.00    -0.046 NA
HETATM   10  C   UNL     1      43.498 -14.453   6.488  1.00  0.00     0.037 A 
HETATM   11  C   UNL     1      44.481 -15.424   7.093  1.00  0.00     0.070 C 
HETATM   12  H   UNL     1      44.537 -12.875   7.330  1.00  0.00     0.184 HD
ENDROOT
BRANCH   1  13
HETATM   13  C   UNL     1      42.267 -16.226   5.290  1.00  0.00     0.256 C 
HETATM   14  N   UNL     1      43.338 -16.713   4.572  1.00  0.00    -0.323 N 
HETATM   15  H   UNL     1      44.069 -16.062   4.336  1.00  0.00     0.169 HD
HETATM   16  O   UNL     1      41.229 -16.806   5.583  1.00  0.00    -0.267 OA
BRANCH  14  17
HETATM   17  C   UNL     1      43.516 -18.037   4.092  1.00  0.00     0.041 A 
HETATM   18  C   UNL     1      43.231 -18.316   2.736  1.00  0.00    -0.035 A 
HETATM   19  C   UNL     1      42.748 -17.262   1.776  1.00  0.00     0.050 C 
HETATM   20  C   UNL     1      43.417 -19.622   2.246  1.00  0.00     0.009 A 
HETATM   21  C   UNL     1      43.873 -20.642   3.078  1.00  0.00     0.001 A 
HETATM   22  C   UNL     1      44.155 -20.367   4.409  1.00  0.00     0.002 A 
HETATM   23  C   UNL     1      43.979 -19.075   4.911  1.00  0.00     0.030 A 
ENDBRANCH  14  17
ENDBRANCH   1  13
BRANCH   2  24
HETATM   24  C   UNL     1      41.265 -13.913   3.633  1.00  0.00    -0.028 A 
HETATM   25  C   UNL     1      40.046 -14.412   3.147  1.00  0.00     0.012 A 
HETATM   26  C   UNL     1      39.832 -14.546   1.773  1.00  0.00     0.037 A 
HETATM   27  C   UNL     1      40.821 -14.183   0.860  1.00  0.00     0.068 A 
HETATM   28  C   UNL     1      42.038 -13.691   1.332  1.00  0.00     0.037 A 
HETATM   29  C   UNL     1      42.259 -13.556   2.708  1.00  0.00     0.012 A 
BRANCH  27  30
HETATM   30  O   UNL     1      40.477 -14.359  -0.452  1.00  0.00    -0.356 OA
HETATM   31  C   UNL     1      39.368 -13.609  -0.930  1.00  0.00     0.210 C 
ENDBRANCH  27  30
ENDBRANCH   2  24
TORSDOF 4
ENDMDL
MODEL 3
REMARK VINA RESULT:      -8.5      2.115      5.584
REMARK  4 active torsions:
REMARK  status: ('A' for Active; 'I' for Inactive)
REMARK    1  A    between atoms: C_3  and  N_4 
REMARK       I    between atoms: N_4  and  C_5 
REMARK    2  A    between atoms: C_5  and  C_6 
REMARK    3  A    between atoms: C_7  and  C_8 
REMARK    4  A    between atoms: C_11  and  O_12 
ROOT
HETATM    1  C   UNL     1      40.255 -12.528   2.312  1.00  0.00     0.062 A 
HETATM    2  C   UNL     1      39.980 -13.868   1.642  1.00  0.00     0.202 A 
HETATM    3  N   UNL     1      39.740 -13.707   0.201  1.00  0.00    -0.083 N 
HETATM    4  C   UNL     1      39.701 -12.497  -0.437  1.00  0.00     0.726 A 
HETATM    5  N   UNL     1      39.906 -11.370   0.269  1.00  0.00    -0.192 N 
HETATM    6  N   UNL     1      39.419 -14.714  -0.639  1.00  0.00    -0.141 NA
HETATM    7  C   UNL     1      39.300 -14.047  -1.797  1.00  0.00     0.162 A 
HETATM    8  C   UNL     1      39.040 -14.723  -3.083  1.00  0.00     0.096 C 
HETATM    9  N   UNL     1      39.448 -12.682  -1.707  1.00  0.00    -0.046 NA
HETATM   10  C   UNL     1      40.211 -11.361   1.624  1.00  0.00     0.037 A 
HETATM   11  C   UNL     1      40.466 -10.003   2.230  1.00  0.00     0.070 C 
HETATM   12  H   UNL     1      39.919 -10.482  -0.225  1.00  0.00     0.184 HD
ENDROOT
BRANCH   1  13
HETATM   13  C   UNL     1      40.700 -12.550   3.731  1.00  0.00     0.256 C 
HETATM   14  N   UNL     1      42.022 -12.192   3.887  1.00  0.00    -0.323 N 
HETATM   15  H   UNL     1      42.560 -12.041   3.048  1.00  0.00     0.169 HD
HETATM   16  O   UNL     1      39.902 -12.886   4.598  1.00  0.00    -0.267 OA
BRANCH  14  17
HETATM   17  C   UNL     1      42.729 -12.039   5.107  1.00  0.00     0.041 A 
HETATM   18  C   UNL     1      43.231 -13.191   5.754  1.00  0.00    -0.035 A 
HETATM   19  C   UNL     1      43.047 -14.577   5.198  1.00  0.00     0.050 C 
HETATM   20  C   UNL     1      43.946 -13.051   6.958  1.00  0.00     0.009 A 
HETATM   21  C   UNL     1      44.163 -11.795   7.521  1.00  0.00     0.001 A 
HETATM   22  C   UNL     1      43.672 -10.664   6.884  1.00  0.00     0.002 A 
HETATM   23  C   UNL     1      42.963 -10.785   5.686  1.00  0.00     0.030 A 
ENDBRANCH  14  17
ENDBRANCH   1  13
BRANCH   2  24
HETATM   24  C   UNL     1      41.057 -14.916   1.894  1.00  0.00    -0.028 A 
HETATM   25  C   UNL     1      40.758 -16.055   2.656  1.00  0.00     0.012 A 
HETATM   26  C   UNL     1      41.735 -17.022   2.902  1.00  0.00     0.037 A 
HETATM   27  C   UNL     1      43.025 -16.876   2.392  1.00  0.00     0.068 A 
HETATM   28  C   UNL     1      43.335 -15.746   1.637  1.00  0.00     0.037 A 
HETATM   29  C   UNL     1      42.359 -14.772   1.389  1.00  0.00     0.012 A 
BRANCH  27  30
HETATM   30  O   UNL     1      43.879 -17.898   2.702  1.00  0.00    -0.356 OA
HETATM   31  C   UNL     1      43.453 -19.213   2.371  1.00  0.00     0.210 C 
ENDBRANCH  27  30
ENDBRANCH   2  24
TORSDOF 4
ENDMDL
MODEL 4
REMARK VINA RESULT:      -8.4      2.432      7.455
REMARK  4 active torsions:
REMARK  status: ('A' for Active; 'I' for Inactive)
REMARK    1  A    between atoms: C_3  and  N_4 
REMARK       I    between atoms: N_4  and  C_5 
REMARK    2  A    between atoms: C_5  and  C_6 
REMARK    3  A    between atoms: C_7  and  C_8 
REMARK    4  A    between atoms: C_11  and  O_12 
ROOT
HETATM    1  C   UNL     1      43.033 -15.112   4.941  1.00  0.00     0.062 A 
HETATM    2  C   UNL     1      43.290 -15.797   3.605  1.00  0.00     0.202 A 
HETATM    3  N   UNL     1      43.479 -17.244   3.773  1.00  0.00    -0.083 N 
HETATM    4  C   UNL     1      43.490 -17.879   4.985  1.00  0.00     0.726 A 
HETATM    5  N   UNL     1      43.305 -17.162   6.108  1.00  0.00    -0.192 N 
HETATM    6  N   UNL     1      43.775 -18.099   2.771  1.00  0.00    -0.141 NA
HETATM    7  C   UNL     1      43.850 -19.258   3.442  1.00  0.00     0.162 A 
HETATM    8  C   UNL     1      44.069 -20.555   2.772  1.00  0.00     0.096 C 
HETATM    9  N   UNL     1      43.699 -19.157   4.806  1.00  0.00    -0.046 NA
HETATM   10  C   UNL     1      43.047 -15.797   6.111  1.00  0.00     0.037 A 
HETATM   11  C   UNL     1      42.807 -15.177   7.466  1.00  0.00     0.070 C 
HETATM   12  H   UNL     1      43.271 -17.652   6.999  1.00  0.00     0.184 HD
ENDROOT
BRANCH   1  13
HETATM   13  C   UNL     1      42.638 -13.679   4.912  1.00  0.00     0.256 C 
HETATM   14  N   UNL     1      41.302 -13.482   5.189  1.00  0.00    -0.323 N 
HETATM   15  H   UNL     1      40.727 -14.304   5.294  1.00  0.00     0.169 HD
HETATM   16  O   UNL     1      43.483 -12.836   4.638  1.00  0.00    -0.267 OA
BRANCH  14  17
HETATM   17  C   UNL     1      40.628 -12.241   5.315  1.00  0.00     0.041 A 
HETATM   18  C   UNL     1      39.636 -11.903   4.366  1.00  0.00    -0.035 A 
HETATM   19  C   UNL     1      39.264 -12.812   3.226  1.00  0.00     0.050 C 
HETATM   20  C   UNL     1      38.951 -10.680   4.488  1.00  0.00     0.009 A 
HETATM   21  C   UNL     1      39.238  -9.798   5.528  1.00  0.00     0.001 A 
HETATM   22  C   UNL     1      40.210 -10.131   6.461  1.00  0.00     0.002 A 
HETATM   23  C   UNL     1      40.897 -11.343   6.356  1.00  0.00     0.030 A 
ENDBRANCH  14  17
ENDBRANCH   1  13
BRANCH   2  24
HETATM   24  C   UNL     1      42.227 -15.511   2.551  1.00  0.00    -0.028 A 
HETATM   25  C   UNL     1      42.469 -14.550   1.558  1.00  0.00     0.012 A 
HETATM   26  C   UNL     1      41.503 -14.271   0.590  1.00  0.00     0.037 A 
HETATM   27  C   UNL     1      40.283 -14.946   0.586  1.00  0.00     0.068 A 
HETATM   28  C   UNL     1      40.029 -15.900   1.571  1.00  0.00     0.037 A 
HETATM   29  C   UNL     1      40.994 -16.182   2.547  1.00  0.00     0.012 A 
BRANCH  27  30
HETATM   30  O   UNL     1      39.433 -14.581  -0.421  1.00  0.00    -0.356 OA
HETATM   31  C   UNL     1      39.361 -13.195  -0.728  1.00  0.00     0.210 C 
ENDBRANCH  27  30
ENDBRANCH   2  24
TORSDOF 4
ENDMDL
MODEL 5
REMARK VINA RESULT:      -8.2      2.092      4.588
REMARK  4 active torsions:
REMARK  status: ('A' for Active; 'I' for Inactive)
REMARK    1  A    between atoms: C_3  and  N_4 
REMARK       I    between atoms: N_4  and  C_5 
REMARK    2  A    between atoms: C_5  and  C_6 
REMARK    3  A    between atoms: C_7  and  C_8 
REMARK    4  A    between atoms: C_11  and  O_12 
ROOT
HETATM    1  C   UNL     1      42.005 -12.993   4.029  1.00  0.00     0.062 A 
HETATM    2  C   UNL     1      40.627 -12.698   3.450  1.00  0.00     0.202 A 
HETATM    3  N   UNL     1      40.094 -11.427   3.958  1.00  0.00    -0.083 N 
HETATM    4  C   UNL     1      40.730 -10.647   4.886  1.00  0.00     0.726 A 
HETATM    5  N   UNL     1      41.924 -11.035   5.369  1.00  0.00    -0.192 N 
HETATM    6  N   UNL     1      38.873 -10.934   3.660  1.00  0.00    -0.141 NA
HETATM    7  C   UNL     1      38.881  -9.796   4.369  1.00  0.00     0.162 A 
HETATM    8  C   UNL     1      37.778  -8.815   4.315  1.00  0.00     0.096 C 
HETATM    9  N   UNL     1      39.997  -9.596   5.148  1.00  0.00    -0.046 NA
HETATM   10  C   UNL     1      42.589 -12.176   4.940  1.00  0.00     0.037 A 
HETATM   11  C   UNL     1      43.946 -12.416   5.555  1.00  0.00     0.070 C 
HETATM   12  H   UNL     1      42.406 -10.425   6.025  1.00  0.00     0.184 HD
ENDROOT
BRANCH   1  13
HETATM   13  C   UNL     1      42.751 -14.149   3.466  1.00  0.00     0.256 C 
HETATM   14  N   UNL     1      42.461 -15.339   4.099  1.00  0.00    -0.323 N 
HETATM   15  H   UNL     1      41.861 -15.296   4.908  1.00  0.00     0.169 HD
HETATM   16  O   UNL     1      43.537 -13.957   2.546  1.00  0.00    -0.267 OA
BRANCH  14  17
HETATM   17  C   UNL     1      42.941 -16.630   3.758  1.00  0.00     0.041 A 
HETATM   18  C   UNL     1      43.868 -17.262   4.617  1.00  0.00    -0.035 A 
HETATM   19  C   UNL     1      44.367 -16.621   5.884  1.00  0.00     0.050 C 
HETATM   20  C   UNL     1      44.341 -18.548   4.297  1.00  0.00     0.009 A 
HETATM   21  C   UNL     1      43.911 -19.204   3.146  1.00  0.00     0.001 A 
HETATM   22  C   UNL     1      42.998 -18.584   2.303  1.00  0.00     0.002 A 
HETATM   23  C   UNL     1      42.517 -17.308   2.609  1.00  0.00     0.030 A 
ENDBRANCH  14  17
ENDBRANCH   1  13
BRANCH   2  24
HETATM   24  C   UNL     1      40.578 -12.733   1.927  1.00  0.00    -0.028 A 
HETATM   25  C   UNL     1      39.982 -13.821   1.273  1.00  0.00     0.012 A 
HETATM   26  C   UNL     1      39.934 -13.871  -0.122  1.00  0.00     0.037 A 
HETATM   27  C   UNL     1      40.473 -12.839  -0.890  1.00  0.00     0.068 A 
HETATM   28  C   UNL     1      41.072 -11.755  -0.251  1.00  0.00     0.037 A 
HETATM   29  C   UNL     1      41.125 -11.701   1.148  1.00  0.00     0.012 A 
BRANCH  27  30
HETATM   30  O   UNL     1      40.352 -13.012  -2.242  1.00  0.00    -0.356 OA
HETATM   31  C   UNL     1      41.045 -12.088  -3.070  1.00  0.00     0.210 C 
ENDBRANCH  27  30
ENDBRANCH   2  24
TORSDOF 4
ENDMDL
MODEL 6
REMARK VINA RESULT:      -7.7     16.318     18.522
REMARK  4 active torsions:
REMARK  status: ('A' for Active; 'I' for Inactive)
REMARK    1  A    between atoms: C_3  and  N_4 
REMARK       I    between atoms: N_4  and  C_5 
REMARK    2  A    between atoms: C_5  and  C_6 
REMARK    3  A    between atoms: C_7  and  C_8 
REMARK    4  A    between atoms: C_11  and  O_12 
ROOT
HETATM    1  C   UNL     1      48.040 -29.978   1.126  1.00  0.00     0.062 A 
HETATM    2  C   UNL     1      48.590 -29.460  -0.196  1.00  0.00     0.202 A 
HETATM    3  N   UNL     1      49.787 -30.206  -0.607  1.00  0.00    -0.083 N 
HETATM    4  C   UNL     1      50.369 -31.192   0.141  1.00  0.00     0.726 A 
HETATM    5  N   UNL     1      49.825 -31.532   1.324  1.00  0.00    -0.192 N 
HETATM    6  N   UNL     1      50.519 -29.933  -1.709  1.00  0.00    -0.141 NA
HETATM    7  C   UNL     1      51.475 -30.869  -1.614  1.00  0.00     0.162 A 
HETATM    8  C   UNL     1      52.507 -31.063  -2.653  1.00  0.00     0.096 C 
HETATM    9  N   UNL     1      51.425 -31.647  -0.481  1.00  0.00    -0.046 NA
HETATM   10  C   UNL     1      48.656 -30.967   1.819  1.00  0.00     0.037 A 
HETATM   11  C   UNL     1      48.167 -31.519   3.136  1.00  0.00     0.070 C 
HETATM   12  H   UNL     1      50.240 -32.297   1.850  1.00  0.00     0.184 HD
ENDROOT
BRANCH   1  13
HETATM   13  C   UNL     1      46.726 -29.449   1.576  1.00  0.00     0.256 C 
HETATM   14  N   UNL     1      45.708 -30.372   1.471  1.00  0.00    -0.323 N 
HETATM   15  H   UNL     1      45.928 -31.253   1.033  1.00  0.00     0.169 HD
HETATM   16  O   UNL     1      46.654 -28.290   1.966  1.00  0.00    -0.267 OA
BRANCH  14  17
HETATM   17  C   UNL     1      44.360 -30.212   1.884  1.00  0.00     0.041 A 
HETATM   18  C   UNL     1      43.456 -29.550   1.023  1.00  0.00    -0.035 A 
HETATM   19  C   UNL     1      43.866 -29.008  -0.320  1.00  0.00     0.050 C 
HETATM   20  C   UNL     1      42.114 -29.397   1.416  1.00  0.00     0.009 A 
HETATM   21  C   UNL     1      41.665 -29.885   2.641  1.00  0.00     0.001 A 
HETATM   22  C   UNL     1      42.552 -30.538   3.485  1.00  0.00     0.002 A 
HETATM   23  C   UNL     1      43.888 -30.701   3.108  1.00  0.00     0.030 A 
ENDBRANCH  14  17
ENDBRANCH   1  13
BRANCH   2  24
HETATM   24  C   UNL     1      47.562 -29.429  -1.321  1.00  0.00    -0.028 A 
HETATM   25  C   UNL     1      47.101 -28.198  -1.811  1.00  0.00     0.012 A 
HETATM   26  C   UNL     1      46.155 -28.152  -2.837  1.00  0.00     0.037 A 
HETATM   27  C   UNL     1      45.655 -29.327  -3.398  1.00  0.00     0.068 A 
HETATM   28  C   UNL     1      46.103 -30.556  -2.916  1.00  0.00     0.037 A 
HETATM   29  C   UNL     1      47.050 -30.608  -1.885  1.00  0.00     0.012 A 
BRANCH  27  30
HETATM   30  O   UNL     1      44.741 -29.138  -4.398  1.00  0.00    -0.356 OA
HETATM   31  C   UNL     1      44.433 -30.265  -5.206  1.00  0.00     0.210 C 
ENDBRANCH  27  30
ENDBRANCH   2  24
TORSDOF 4
ENDMDL
MODEL 7
REMARK VINA RESULT:      -7.6      2.473      3.143
REMARK  4 active torsions:
REMARK  status: ('A' for Active; 'I' for Inactive)
REMARK    1  A    between atoms: C_3  and  N_4 
REMARK       I    between atoms: N_4  and  C_5 
REMARK    2  A    between atoms: C_5  and  C_6 
REMARK    3  A    between atoms: C_7  and  C_8 
REMARK    4  A    between atoms: C_11  and  O_12 
ROOT
HETATM    1  C   UNL     1      41.308 -13.308   1.717  1.00  0.00     0.062 A 
HETATM    2  C   UNL     1      41.883 -11.904   1.846  1.00  0.00     0.202 A 
HETATM    3  N   UNL     1      41.541 -11.076   0.682  1.00  0.00    -0.083 N 
HETATM    4  C   UNL     1      40.851 -11.535  -0.407  1.00  0.00     0.726 A 
HETATM    5  N   UNL     1      40.435 -12.815  -0.435  1.00  0.00    -0.192 N 
HETATM    6  N   UNL     1      41.958  -9.806   0.495  1.00  0.00    -0.141 NA
HETATM    7  C   UNL     1      41.394  -9.526  -0.688  1.00  0.00     0.162 A 
HETATM    8  C   UNL     1      41.473  -8.191  -1.314  1.00  0.00     0.096 C 
HETATM    9  N   UNL     1      40.722 -10.570  -1.280  1.00  0.00    -0.046 NA
HETATM   10  C   UNL     1      40.623 -13.703   0.615  1.00  0.00     0.037 A 
HETATM   11  C   UNL     1      40.035 -15.080   0.425  1.00  0.00     0.070 C 
HETATM   12  H   UNL     1      39.885 -13.131  -1.230  1.00  0.00     0.184 HD
ENDROOT
BRANCH   1  13
HETATM   13  C   UNL     1      41.411 -14.203   2.900  1.00  0.00     0.256 C 
HETATM   14  N   UNL     1      42.674 -14.729   3.070  1.00  0.00    -0.323 N 
HETATM   15  H   UNL     1      43.355 -14.533   2.352  1.00  0.00     0.169 HD
HETATM   16  O   UNL     1      40.413 -14.404   3.581  1.00  0.00    -0.267 OA
BRANCH  14  17
HETATM   17  C   UNL     1      43.124 -15.551   4.135  1.00  0.00     0.041 A 
HETATM   18  C   UNL     1      43.406 -16.911   3.876  1.00  0.00    -0.035 A 
HETATM   19  C   UNL     1      43.251 -17.525   2.510  1.00  0.00     0.050 C 
HETATM   20  C   UNL     1      43.865 -17.733   4.921  1.00  0.00     0.009 A 
HETATM   21  C   UNL     1      44.042 -17.226   6.207  1.00  0.00     0.001 A 
HETATM   22  C   UNL     1      43.768 -15.889   6.461  1.00  0.00     0.002 A 
HETATM   23  C   UNL     1      43.314 -15.059   5.432  1.00  0.00     0.030 A 
ENDBRANCH  14  17
ENDBRANCH   1  13
BRANCH   2  24
HETATM   24  C   UNL     1      41.501 -11.198   3.141  1.00  0.00    -0.028 A 
HETATM   25  C   UNL     1      40.158 -10.882   3.393  1.00  0.00     0.012 A 
HETATM   26  C   UNL     1      39.791 -10.228   4.571  1.00  0.00     0.037 A 
HETATM   27  C   UNL     1      40.751  -9.882   5.522  1.00  0.00     0.068 A 
HETATM   28  C   UNL     1      42.090 -10.187   5.280  1.00  0.00     0.037 A 
HETATM   29  C   UNL     1      42.463 -10.840   4.098  1.00  0.00     0.012 A 
BRANCH  27  30
HETATM   30  O   UNL     1      40.255  -9.254   6.630  1.00  0.00    -0.356 OA
HETATM   31  C   UNL     1      41.031  -9.341   7.818  1.00  0.00     0.210 C 
ENDBRANCH  27  30
ENDBRANCH   2  24
TORSDOF 4
ENDMDL
MODEL 8
REMARK VINA RESULT:      -7.5     15.863     18.579
REMARK  4 active torsions:
REMARK  status: ('A' for Active; 'I' for Inactive)
REMARK    1  A    between atoms: C_3  and  N_4 
REMARK       I    between atoms: N_4  and  C_5 
REMARK    2  A    between atoms: C_5  and  C_6 
REMARK    3  A    between atoms: C_7  and  C_8 
REMARK    4  A    between atoms: C_11  and  O_12 
ROOT
HETATM    1  C   UNL     1      46.355 -29.795   0.096  1.00  0.00     0.062 A 
HETATM    2  C   UNL     1      45.192 -30.699  -0.290  1.00  0.00     0.202 A 
HETATM    3  N   UNL     1      44.051 -30.520   0.619  1.00  0.00    -0.083 N 
HETATM    4  C   UNL     1      44.064 -29.696   1.711  1.00  0.00     0.726 A 
HETATM    5  N   UNL     1      45.171 -28.983   1.987  1.00  0.00    -0.192 N 
HETATM    6  N   UNL     1      42.901 -31.226   0.553  1.00  0.00    -0.141 NA
HETATM    7  C   UNL     1      42.223 -30.698   1.583  1.00  0.00     0.162 A 
HETATM    8  C   UNL     1      40.830 -31.074   1.896  1.00  0.00     0.096 C 
HETATM    9  N   UNL     1      42.913 -29.770   2.327  1.00  0.00    -0.046 NA
HETATM   10  C   UNL     1      46.307 -28.991   1.187  1.00  0.00     0.037 A 
HETATM   11  C   UNL     1      47.426 -28.080   1.626  1.00  0.00     0.070 C 
HETATM   12  H   UNL     1      45.153 -28.341   2.776  1.00  0.00     0.184 HD
ENDROOT
BRANCH   1  13
HETATM   13  C   UNL     1      47.509 -29.727  -0.839  1.00  0.00     0.256 C 
HETATM   14  N   UNL     1      48.334 -30.828  -0.759  1.00  0.00    -0.323 N 
HETATM   15  H   UNL     1      48.131 -31.505  -0.040  1.00  0.00     0.169 HD
HETATM   16  O   UNL     1      47.637 -28.739  -1.553  1.00  0.00    -0.267 OA
BRANCH  14  17
HETATM   17  C   UNL     1      49.470 -31.107  -1.562  1.00  0.00     0.041 A 
HETATM   18  C   UNL     1      49.374 -32.108  -2.555  1.00  0.00    -0.035 A 
HETATM   19  C   UNL     1      48.112 -32.890  -2.799  1.00  0.00     0.050 C 
HETATM   20  C   UNL     1      50.490 -32.385  -3.367  1.00  0.00     0.009 A 
HETATM   21  C   UNL     1      51.686 -31.690  -3.203  1.00  0.00     0.001 A 
HETATM   22  C   UNL     1      51.779 -30.705  -2.229  1.00  0.00     0.002 A 
HETATM   23  C   UNL     1      50.679 -30.416  -1.417  1.00  0.00     0.030 A 
ENDBRANCH  14  17
ENDBRANCH   1  13
BRANCH   2  24
HETATM   24  C   UNL     1      44.752 -30.551  -1.741  1.00  0.00    -0.028 A 
HETATM   25  C   UNL     1      44.773 -31.666  -2.594  1.00  0.00     0.012 A 
HETATM   26  C   UNL     1      44.380 -31.546  -3.928  1.00  0.00     0.037 A 
HETATM   27  C   UNL     1      43.953 -30.320  -4.438  1.00  0.00     0.068 A 
HETATM   28  C   UNL     1      43.932 -29.205  -3.601  1.00  0.00     0.037 A 
HETATM   29  C   UNL     1      44.328 -29.319  -2.263  1.00  0.00     0.012 A 
BRANCH  27  30
HETATM   30  O   UNL     1      43.591 -30.346  -5.756  1.00  0.00    -0.356 OA
HETATM   31  C   UNL     1      44.301 -31.245  -6.598  1.00  0.00     0.210 C 
ENDBRANCH  27  30
ENDBRANCH   2  24
TORSDOF 4
ENDMDL
MODEL 9
REMARK VINA RESULT:      -7.5      2.629      7.534
REMARK  4 active torsions:
REMARK  status: ('A' for Active; 'I' for Inactive)
REMARK    1  A    between atoms: C_3  and  N_4 
REMARK       I    between atoms: N_4  and  C_5 
REMARK    2  A    between atoms: C_5  and  C_6 
REMARK    3  A    between atoms: C_7  and  C_8 
REMARK    4  A    between atoms: C_11  and  O_12 
ROOT
HETATM    1  C   UNL     1      43.223 -15.119   5.239  1.00  0.00     0.062 A 
HETATM    2  C   UNL     1      43.410 -15.962   3.985  1.00  0.00     0.202 A 
HETATM    3  N   UNL     1      43.551 -17.387   4.313  1.00  0.00    -0.083 N 
HETATM    4  C   UNL     1      43.579 -17.879   5.589  1.00  0.00     0.726 A 
HETATM    5  N   UNL     1      43.457 -17.032   6.627  1.00  0.00    -0.192 N 
HETATM    6  N   UNL     1      43.782 -18.362   3.408  1.00  0.00    -0.141 NA
HETATM    7  C   UNL     1      43.837 -19.438   4.206  1.00  0.00     0.162 A 
HETATM    8  C   UNL     1      43.986 -20.812   3.684  1.00  0.00     0.096 C 
HETATM    9  N   UNL     1      43.735 -19.177   5.553  1.00  0.00    -0.046 NA
HETATM   10  C   UNL     1      43.250 -15.666   6.480  1.00  0.00     0.037 A 
HETATM   11  C   UNL     1      43.077 -14.886   7.760  1.00  0.00     0.070 C 
HETATM   12  H   UNL     1      43.434 -17.415   7.569  1.00  0.00     0.184 HD
ENDROOT
BRANCH   1  13
HETATM   13  C   UNL     1      42.880 -13.684   5.056  1.00  0.00     0.256 C 
HETATM   14  N   UNL     1      41.751 -13.306   5.752  1.00  0.00    -0.323 N 
HETATM   15  H   UNL     1      41.239 -14.032   6.228  1.00  0.00     0.169 HD
HETATM   16  O   UNL     1      43.580 -12.995   4.325  1.00  0.00    -0.267 OA
BRANCH  14  17
HETATM   17  C   UNL     1      41.203 -12.002   5.852  1.00  0.00     0.041 A 
HETATM   18  C   UNL     1      41.928 -11.008   6.547  1.00  0.00    -0.035 A 
HETATM   19  C   UNL     1      43.264 -11.277   7.186  1.00  0.00     0.050 C 
HETATM   20  C   UNL     1      41.401  -9.706   6.641  1.00  0.00     0.009 A 
HETATM   21  C   UNL     1      40.175  -9.386   6.062  1.00  0.00     0.001 A 
HETATM   22  C   UNL     1      39.464 -10.362   5.377  1.00  0.00     0.002 A 
HETATM   23  C   UNL     1      39.976 -11.658   5.272  1.00  0.00     0.030 A 
ENDBRANCH  14  17
ENDBRANCH   1  13
BRANCH   2  24
HETATM   24  C   UNL     1      42.324 -15.755   2.936  1.00  0.00    -0.028 A 
HETATM   25  C   UNL     1      42.645 -15.158   1.707  1.00  0.00     0.012 A 
HETATM   26  C   UNL     1      41.661 -14.956   0.738  1.00  0.00     0.037 A 
HETATM   27  C   UNL     1      40.342 -15.348   0.969  1.00  0.00     0.068 A 
HETATM   28  C   UNL     1      40.011 -15.939   2.188  1.00  0.00     0.037 A 
HETATM   29  C   UNL     1      40.994 -16.142   3.165  1.00  0.00     0.012 A 
BRANCH  27  30
HETATM   30  O   UNL     1      39.484 -15.098  -0.066  1.00  0.00    -0.356 OA
HETATM   31  C   UNL     1      39.951 -14.231  -1.090  1.00  0.00     0.210 C 
ENDBRANCH  27  30
ENDBRANCH   2  24
TORSDOF 4
ENDMDL
MODEL 10
REMARK VINA RESULT:      -7.2      2.342      5.948
REMARK  4 active torsions:
REMARK  status: ('A' for Active; 'I' for Inactive)
REMARK    1  A    between atoms: C_3  and  N_4 
REMARK       I    between atoms: N_4  and  C_5 
REMARK    2  A    between atoms: C_5  and  C_6 
REMARK    3  A    between atoms: C_7  and  C_8 
REMARK    4  A    between atoms: C_11  and  O_12 
ROOT
HETATM    1  C   UNL     1      42.748 -13.835   4.511  1.00  0.00     0.062 A 
HETATM    2  C   UNL     1      41.980 -12.994   3.500  1.00  0.00     0.202 A 
HETATM    3  N   UNL     1      41.451 -13.822   2.407  1.00  0.00    -0.083 N 
HETATM    4  C   UNL     1      41.682 -15.165   2.284  1.00  0.00     0.726 A 
HETATM    5  N   UNL     1      42.424 -15.796   3.213  1.00  0.00    -0.192 N 
HETATM    6  N   UNL     1      40.775 -13.343   1.341  1.00  0.00    -0.141 NA
HETATM    7  C   UNL     1      40.540 -14.475   0.662  1.00  0.00     0.162 A 
HETATM    8  C   UNL     1      39.730 -14.511  -0.572  1.00  0.00     0.096 C 
HETATM    9  N   UNL     1      41.099 -15.611   1.202  1.00  0.00    -0.046 NA
HETATM   10  C   UNL     1      42.937 -15.167   4.339  1.00  0.00     0.037 A 
HETATM   11  C   UNL     1      43.693 -16.052   5.299  1.00  0.00     0.070 C 
HETATM   12  H   UNL     1      42.551 -16.802   3.133  1.00  0.00     0.184 HD
ENDROOT
BRANCH   1  13
HETATM   13  C   UNL     1      43.182 -13.169   5.768  1.00  0.00     0.256 C 
HETATM   14  N   UNL     1      44.002 -12.083   5.547  1.00  0.00    -0.323 N 
HETATM   15  H   UNL     1      44.288 -11.907   4.597  1.00  0.00     0.169 HD
HETATM   16  O   UNL     1      42.810 -13.627   6.841  1.00  0.00    -0.267 OA
BRANCH  14  17
HETATM   17  C   UNL     1      44.523 -11.192   6.520  1.00  0.00     0.041 A 
HETATM   18  C   UNL     1      43.639 -10.306   7.178  1.00  0.00    -0.035 A 
HETATM   19  C   UNL     1      42.162 -10.273   6.889  1.00  0.00     0.050 C 
HETATM   20  C   UNL     1      44.141  -9.427   8.154  1.00  0.00     0.009 A 
HETATM   21  C   UNL     1      45.496  -9.414   8.479  1.00  0.00     0.001 A 
HETATM   22  C   UNL     1      46.364 -10.285   7.834  1.00  0.00     0.002 A 
HETATM   23  C   UNL     1      45.880 -11.167   6.865  1.00  0.00     0.030 A 
ENDBRANCH  14  17
ENDBRANCH   1  13
BRANCH   2  24
HETATM   24  C   UNL     1      40.874 -12.147   4.117  1.00  0.00    -0.028 A 
HETATM   25  C   UNL     1      40.726 -10.806   3.732  1.00  0.00     0.012 A 
HETATM   26  C   UNL     1      39.722 -10.013   4.293  1.00  0.00     0.037 A 
HETATM   27  C   UNL     1      38.844 -10.540   5.240  1.00  0.00     0.068 A 
HETATM   28  C   UNL     1      38.985 -11.870   5.633  1.00  0.00     0.037 A 
HETATM   29  C   UNL     1      39.992 -12.669   5.076  1.00  0.00     0.012 A 
BRANCH  27  30
HETATM   30  O   UNL     1      37.906  -9.658   5.700  1.00  0.00    -0.356 OA
HETATM   31  C   UNL     1      37.814  -8.411   5.025  1.00  0.00     0.210 C 
ENDBRANCH  27  30
ENDBRANCH   2  24
TORSDOF 4
ENDMDL
