MODEL 1
REMARK VINA RESULT:      -8.2      0.000      0.000
REMARK  5 active torsions:
REMARK  status: ('A' for Active; 'I' for Inactive)
REMARK    1  A    between atoms: C_2  and  O_3 
REMARK    2  A    between atoms: O_3  and  C_4 
REMARK    3  A    between atoms: C_7  and  C_8 
REMARK       I    between atoms: C_8  and  N_9 
REMARK    4  A    between atoms: N_12  and  C_13 
REMARK    5  A    between atoms: C_17  and  C_18 
ROOT
HETATM    1  C   UNL     1      44.652  -8.536   8.677  1.00  0.00     0.253 C 
HETATM    2  N   UNL     1      44.397  -9.778   8.104  1.00  0.00    -0.345 N 
HETATM    3  C   UNL     1      45.309 -10.239   7.052  1.00  0.00     0.146 C 
HETATM    4  C   UNL     1      45.379 -11.773   6.997  1.00  0.00     0.144 C 
HETATM    5  N   UNL     1      44.026 -12.355   6.908  1.00  0.00    -0.363 N 
HETATM    6  C   UNL     1      43.101 -11.912   7.965  1.00  0.00     0.144 C 
HETATM    7  C   UNL     1      43.052 -10.372   8.026  1.00  0.00     0.146 C 
HETATM    8  O   UNL     1      45.537  -7.781   8.280  1.00  0.00    -0.267 OA
ENDROOT
BRANCH   5   9
HETATM    9  C   UNL     1      43.691 -13.227   5.918  1.00  0.00     0.122 A 
HETATM   10  N   UNL     1      42.984 -12.874   4.797  1.00  0.00    -0.262 N 
HETATM   11  H   UNL     1      42.603 -11.966   4.568  1.00  0.00     0.191 HD
HETATM   12  N   UNL     1      42.762 -13.879   3.936  1.00  0.00    -0.173 NA
HETATM   13  C   UNL     1      43.342 -14.945   4.511  1.00  0.00     0.090 A 
HETATM   14  C   UNL     1      43.916 -14.577   5.760  1.00  0.00     0.084 A 
BRANCH  13  15
HETATM   15  C   UNL     1      43.336 -16.265   3.871  1.00  0.00    -0.005 A 
HETATM   16  C   UNL     1      43.938 -17.365   4.507  1.00  0.00     0.015 A 
HETATM   17  C   UNL     1      43.940 -18.627   3.906  1.00  0.00     0.024 A 
HETATM   18  C   UNL     1      43.336 -18.802   2.664  1.00  0.00     0.034 A 
HETATM   19 CL   UNL     1      43.335 -20.354   1.922  1.00  0.00    -0.084 Cl
HETATM   20  C   UNL     1      42.730 -17.727   2.019  1.00  0.00     0.024 A 
HETATM   21  C   UNL     1      42.731 -16.464   2.621  1.00  0.00     0.015 A 
ENDBRANCH  13  15
ENDBRANCH   5   9
BRANCH   1  22
HETATM   22  C   UNL     1      43.875  -8.124   9.871  1.00  0.00     0.032 A 
HETATM   23  C   UNL     1      43.987  -8.824  11.076  1.00  0.00     0.020 A 
HETATM   24  C   UNL     1      43.292  -8.382  12.202  1.00  0.00     0.038 A 
HETATM   25  C   UNL     1      42.520  -7.218  12.146  1.00  0.00     0.068 A 
HETATM   26  C   UNL     1      42.417  -6.512  10.945  1.00  0.00     0.038 A 
HETATM   27  C   UNL     1      43.101  -6.960   9.810  1.00  0.00     0.020 A 
BRANCH  25  28
HETATM   28  O   UNL     1      41.908  -6.878  13.320  1.00  0.00    -0.352 OA
BRANCH  28  29
HETATM   29  C   UNL     1      42.151  -7.744  14.428  1.00  0.00     0.171 C 
HETATM   30  C   UNL     1      42.483  -6.878  15.631  1.00  0.00     0.034 C 
ENDBRANCH  28  29
ENDBRANCH  25  28
ENDBRANCH   1  22
TORSDOF 5
ENDMDL
MODEL 2
REMARK VINA RESULT:      -8.1      4.995     11.016
REMARK  5 active torsions:
REMARK  status: ('A' for Active; 'I' for Inactive)
REMARK    1  A    between atoms: C_2  and  O_3 
REMARK    2  A    between atoms: O_3  and  C_4 
REMARK    3  A    between atoms: C_7  and  C_8 
REMARK       I    between atoms: C_8  and  N_9 
REMARK    4  A    between atoms: N_12  and  C_13 
REMARK    5  A    between atoms: C_17  and  C_18 
ROOT
HETATM    1  C   UNL     1      42.649 -14.774   4.894  1.00  0.00     0.253 C 
HETATM    2  N   UNL     1      43.039 -13.575   5.483  1.00  0.00    -0.345 N 
HETATM    3  C   UNL     1      43.971 -13.646   6.613  1.00  0.00     0.146 C 
HETATM    4  C   UNL     1      44.831 -12.376   6.718  1.00  0.00     0.144 C 
HETATM    5  N   UNL     1      43.981 -11.169   6.722  1.00  0.00    -0.363 N 
HETATM    6  C   UNL     1      43.049 -11.076   5.587  1.00  0.00     0.144 C 
HETATM    7  C   UNL     1      42.205 -12.362   5.477  1.00  0.00     0.146 C 
HETATM    8  O   UNL     1      42.972 -15.875   5.334  1.00  0.00    -0.267 OA
ENDROOT
BRANCH   5   9
HETATM    9  C   UNL     1      44.077 -10.237   7.710  1.00  0.00     0.122 A 
HETATM   10  N   UNL     1      45.146  -9.392   7.860  1.00  0.00    -0.262 N 
HETATM   11  H   UNL     1      45.991  -9.359   7.305  1.00  0.00     0.191 HD
HETATM   12  N   UNL     1      45.045  -8.540   8.892  1.00  0.00    -0.173 NA
HETATM   13  C   UNL     1      43.861  -8.834   9.452  1.00  0.00     0.090 A 
HETATM   14  C   UNL     1      43.238  -9.903   8.749  1.00  0.00     0.084 A 
BRANCH  13  15
HETATM   15  C   UNL     1      43.359  -8.106  10.623  1.00  0.00    -0.005 A 
HETATM   16  C   UNL     1      43.592  -8.597  11.918  1.00  0.00     0.015 A 
HETATM   17  C   UNL     1      43.116  -7.912  13.041  1.00  0.00     0.024 A 
HETATM   18  C   UNL     1      42.406  -6.726  12.878  1.00  0.00     0.034 A 
HETATM   19 CL   UNL     1      41.820  -5.880  14.256  1.00  0.00    -0.084 Cl
HETATM   20  C   UNL     1      42.168  -6.220  11.602  1.00  0.00     0.024 A 
HETATM   21  C   UNL     1      42.643  -6.907  10.480  1.00  0.00     0.015 A 
ENDBRANCH  13  15
ENDBRANCH   5   9
BRANCH   1  22
HETATM   22  C   UNL     1      41.869 -14.733   3.634  1.00  0.00     0.032 A 
HETATM   23  C   UNL     1      42.406 -14.163   2.476  1.00  0.00     0.020 A 
HETATM   24  C   UNL     1      41.676 -14.191   1.287  1.00  0.00     0.038 A 
HETATM   25  C   UNL     1      40.432 -14.825   1.235  1.00  0.00     0.068 A 
HETATM   26  C   UNL     1      39.900 -15.404   2.389  1.00  0.00     0.038 A 
HETATM   27  C   UNL     1      40.622 -15.366   3.587  1.00  0.00     0.020 A 
BRANCH  25  28
HETATM   28  O   UNL     1      39.828 -14.803   0.009  1.00  0.00    -0.352 OA
BRANCH  28  29
HETATM   29  C   UNL     1      40.178 -13.714  -0.845  1.00  0.00     0.171 C 
HETATM   30  C   UNL     1      39.840 -14.113  -2.270  1.00  0.00     0.034 C 
ENDBRANCH  28  29
ENDBRANCH  25  28
ENDBRANCH   1  22
TORSDOF 5
ENDMDL
MODEL 3
REMARK VINA RESULT:      -8.0      3.364      3.897
REMARK  5 active torsions:
REMARK  status: ('A' for Active; 'I' for Inactive)
REMARK    1  A    between atoms: C_2  and  O_3 
REMARK    2  A    between atoms: O_3  and  C_4 
REMARK    3  A    between atoms: C_7  and  C_8 
REMARK       I    between atoms: C_8  and  N_9 
REMARK    4  A    between atoms: N_12  and  C_13 
REMARK    5  A    between atoms: C_17  and  C_18 
ROOT
HETATM    1  C   UNL     1      44.675 -10.540   8.868  1.00  0.00     0.253 C 
HETATM    2  N   UNL     1      43.958 -10.885   7.727  1.00  0.00    -0.345 N 
HETATM    3  C   UNL     1      44.635 -11.716   6.725  1.00  0.00     0.146 C 
HETATM    4  C   UNL     1      43.636 -12.570   5.930  1.00  0.00     0.144 C 
HETATM    5  N   UNL     1      42.556 -11.731   5.375  1.00  0.00    -0.363 N 
HETATM    6  C   UNL     1      41.858 -10.900   6.369  1.00  0.00     0.144 C 
HETATM    7  C   UNL     1      42.869 -10.061   7.176  1.00  0.00     0.146 C 
HETATM    8  O   UNL     1      45.862 -10.817   9.026  1.00  0.00    -0.267 OA
ENDROOT
BRANCH   5   9
HETATM    9  C   UNL     1      42.256 -11.746   4.047  1.00  0.00     0.122 A 
HETATM   10  N   UNL     1      42.647 -10.772   3.165  1.00  0.00    -0.262 N 
HETATM   11  H   UNL     1      43.166  -9.928   3.368  1.00  0.00     0.191 HD
HETATM   12  N   UNL     1      42.256 -10.976   1.898  1.00  0.00    -0.173 NA
HETATM   13  C   UNL     1      41.574 -12.131   1.940  1.00  0.00     0.090 A 
HETATM   14  C   UNL     1      41.538 -12.630   3.273  1.00  0.00     0.084 A 
BRANCH  13  15
HETATM   15  C   UNL     1      40.981 -12.722   0.736  1.00  0.00    -0.005 A 
HETATM   16  C   UNL     1      40.493 -14.039   0.758  1.00  0.00     0.015 A 
HETATM   17  C   UNL     1      39.927 -14.613  -0.385  1.00  0.00     0.024 A 
HETATM   18  C   UNL     1      39.841 -13.872  -1.560  1.00  0.00     0.034 A 
HETATM   19 CL   UNL     1      39.145 -14.574  -2.968  1.00  0.00    -0.084 Cl
HETATM   20  C   UNL     1      40.314 -12.563  -1.602  1.00  0.00     0.024 A 
HETATM   21  C   UNL     1      40.882 -11.991  -0.458  1.00  0.00     0.015 A 
ENDBRANCH  13  15
ENDBRANCH   5   9
BRANCH   1  22
HETATM   22  C   UNL     1      43.966  -9.871   9.985  1.00  0.00     0.032 A 
HETATM   23  C   UNL     1      43.557 -10.593  11.110  1.00  0.00     0.020 A 
HETATM   24  C   UNL     1      42.945  -9.931  12.175  1.00  0.00     0.038 A 
HETATM   25  C   UNL     1      42.780  -8.544  12.144  1.00  0.00     0.068 A 
HETATM   26  C   UNL     1      43.199  -7.820  11.026  1.00  0.00     0.038 A 
HETATM   27  C   UNL     1      43.800  -8.482   9.950  1.00  0.00     0.020 A 
BRANCH  25  28
HETATM   28  O   UNL     1      42.189  -8.011  13.256  1.00  0.00    -0.352 OA
BRANCH  28  29
HETATM   29  C   UNL     1      41.627  -8.947  14.177  1.00  0.00     0.171 C 
HETATM   30  C   UNL     1      41.382  -8.219  15.487  1.00  0.00     0.034 C 
ENDBRANCH  28  29
ENDBRANCH  25  28
ENDBRANCH   1  22
TORSDOF 5
ENDMDL
MODEL 4
REMARK VINA RESULT:      -7.9      8.357     11.301
REMARK  5 active torsions:
REMARK  status: ('A' for Active; 'I' for Inactive)
REMARK    1  A    between atoms: C_2  and  O_3 
REMARK    2  A    between atoms: O_3  and  C_4 
REMARK    3  A    between atoms: C_7  and  C_8 
REMARK       I    between atoms: C_8  and  N_9 
REMARK    4  A    between atoms: N_12  and  C_13 
REMARK    5  A    between atoms: C_17  and  C_18 
ROOT
HETATM    1  C   UNL     1      40.607 -15.745   1.671  1.00  0.00     0.253 C 
HETATM    2  N   UNL     1      40.798 -14.392   1.407  1.00  0.00    -0.345 N 
HETATM    3  C   UNL     1      39.816 -13.723   0.547  1.00  0.00     0.146 C 
HETATM    4  C   UNL     1      39.706 -12.225   0.874  1.00  0.00     0.144 C 
HETATM    5  N   UNL     1      41.038 -11.589   0.862  1.00  0.00    -0.363 N 
HETATM    6  C   UNL     1      42.032 -12.241   1.731  1.00  0.00     0.144 C 
HETATM    7  C   UNL     1      42.121 -13.746   1.410  1.00  0.00     0.146 C 
HETATM    8  O   UNL     1      39.719 -16.413   1.146  1.00  0.00    -0.267 OA
ENDROOT
BRANCH   5   9
HETATM    9  C   UNL     1      41.294 -10.490   0.101  1.00  0.00     0.122 A 
HETATM   10  N   UNL     1      41.670  -9.276   0.616  1.00  0.00    -0.262 N 
HETATM   11  H   UNL     1      41.780  -9.025   1.589  1.00  0.00     0.191 HD
HETATM   12  N   UNL     1      41.883  -8.321  -0.303  1.00  0.00    -0.173 NA
HETATM   13  C   UNL     1      41.633  -8.924  -1.476  1.00  0.00     0.090 A 
HETATM   14  C   UNL     1      41.244 -10.276  -1.259  1.00  0.00     0.084 A 
BRANCH  13  15
HETATM   15  C   UNL     1      41.767  -8.215  -2.753  1.00  0.00    -0.005 A 
HETATM   16  C   UNL     1      42.830  -7.321  -2.961  1.00  0.00     0.015 A 
HETATM   17  C   UNL     1      42.966  -6.638  -4.173  1.00  0.00     0.024 A 
HETATM   18  C   UNL     1      42.040  -6.846  -5.191  1.00  0.00     0.034 A 
HETATM   19 CL   UNL     1      42.204  -6.009  -6.685  1.00  0.00    -0.084 Cl
HETATM   20  C   UNL     1      40.981  -7.731  -5.007  1.00  0.00     0.024 A 
HETATM   21  C   UNL     1      40.845  -8.413  -3.793  1.00  0.00     0.015 A 
ENDBRANCH  13  15
ENDBRANCH   5   9
BRANCH   1  22
HETATM   22  C   UNL     1      41.461 -16.405   2.687  1.00  0.00     0.032 A 
HETATM   23  C   UNL     1      42.547 -17.199   2.305  1.00  0.00     0.020 A 
HETATM   24  C   UNL     1      43.372 -17.761   3.280  1.00  0.00     0.038 A 
HETATM   25  C   UNL     1      43.149 -17.497   4.633  1.00  0.00     0.068 A 
HETATM   26  C   UNL     1      42.072 -16.695   5.015  1.00  0.00     0.038 A 
HETATM   27  C   UNL     1      41.233 -16.141   4.041  1.00  0.00     0.020 A 
BRANCH  25  28
HETATM   28  O   UNL     1      44.039 -18.087   5.487  1.00  0.00    -0.352 OA
BRANCH  28  29
HETATM   29  C   UNL     1      43.538 -19.175   6.263  1.00  0.00     0.171 C 
HETATM   30  C   UNL     1      43.933 -20.464   5.564  1.00  0.00     0.034 C 
ENDBRANCH  28  29
ENDBRANCH  25  28
ENDBRANCH   1  22
TORSDOF 5
ENDMDL
MODEL 5
REMARK VINA RESULT:      -7.8      7.582     11.144
REMARK  5 active torsions:
REMARK  status: ('A' for Active; 'I' for Inactive)
REMARK    1  A    between atoms: C_2  and  O_3 
REMARK    2  A    between atoms: O_3  and  C_4 
REMARK    3  A    between atoms: C_7  and  C_8 
REMARK       I    between atoms: C_8  and  N_9 
REMARK    4  A    between atoms: N_12  and  C_13 
REMARK    5  A    between atoms: C_17  and  C_18 
ROOT
HETATM    1  C   UNL     1      41.771 -13.747   3.517  1.00  0.00     0.253 C 
HETATM    2  N   UNL     1      41.132 -13.745   2.280  1.00  0.00    -0.345 N 
HETATM    3  C   UNL     1      40.905 -12.446   1.636  1.00  0.00     0.146 C 
HETATM    4  C   UNL     1      40.863 -12.574   0.106  1.00  0.00     0.144 C 
HETATM    5  N   UNL     1      39.904 -13.618  -0.306  1.00  0.00    -0.363 N 
HETATM    6  C   UNL     1      40.127 -14.930   0.321  1.00  0.00     0.144 C 
HETATM    7  C   UNL     1      40.187 -14.791   1.856  1.00  0.00     0.146 C 
HETATM    8  O   UNL     1      42.061 -12.720   4.125  1.00  0.00    -0.267 OA
ENDROOT
BRANCH   5   9
HETATM    9  C   UNL     1      38.907 -13.356  -1.195  1.00  0.00     0.122 A 
HETATM   10  N   UNL     1      38.438 -14.268  -2.105  1.00  0.00    -0.262 N 
HETATM   11  H   UNL     1      38.767 -15.211  -2.260  1.00  0.00     0.191 HD
HETATM   12  N   UNL     1      37.445 -13.817  -2.887  1.00  0.00    -0.173 NA
HETATM   13  C   UNL     1      37.250 -12.551  -2.483  1.00  0.00     0.090 A 
HETATM   14  C   UNL     1      38.160 -12.225  -1.439  1.00  0.00     0.084 A 
BRANCH  13  15
HETATM   15  C   UNL     1      36.223 -11.697  -3.089  1.00  0.00    -0.005 A 
HETATM   16  C   UNL     1      36.327 -10.298  -3.013  1.00  0.00     0.015 A 
HETATM   17  C   UNL     1      35.353  -9.474  -3.585  1.00  0.00     0.024 A 
HETATM   18  C   UNL     1      34.266 -10.044  -4.242  1.00  0.00     0.034 A 
HETATM   19 CL   UNL     1      33.066  -9.034  -4.948  1.00  0.00    -0.084 Cl
HETATM   20  C   UNL     1      34.146 -11.428  -4.333  1.00  0.00     0.024 A 
HETATM   21  C   UNL     1      35.120 -12.251  -3.758  1.00  0.00     0.015 A 
ENDBRANCH  13  15
ENDBRANCH   5   9
BRANCH   1  22
HETATM   22  C   UNL     1      42.192 -15.042   4.103  1.00  0.00     0.032 A 
HETATM   23  C   UNL     1      43.192 -15.810   3.502  1.00  0.00     0.020 A 
HETATM   24  C   UNL     1      43.614 -16.996   4.105  1.00  0.00     0.038 A 
HETATM   25  C   UNL     1      43.074 -17.397   5.330  1.00  0.00     0.068 A 
HETATM   26  C   UNL     1      42.083 -16.623   5.937  1.00  0.00     0.038 A 
HETATM   27  C   UNL     1      41.647 -15.441   5.329  1.00  0.00     0.020 A 
BRANCH  25  28
HETATM   28  O   UNL     1      43.586 -18.563   5.828  1.00  0.00    -0.352 OA
BRANCH  28  29
HETATM   29  C   UNL     1      44.245 -19.411   4.888  1.00  0.00     0.171 C 
HETATM   30  C   UNL     1      43.929 -20.849   5.258  1.00  0.00     0.034 C 
ENDBRANCH  28  29
ENDBRANCH  25  28
ENDBRANCH   1  22
TORSDOF 5
ENDMDL
MODEL 6
REMARK VINA RESULT:      -7.8      2.727      3.355
REMARK  5 active torsions:
REMARK  status: ('A' for Active; 'I' for Inactive)
REMARK    1  A    between atoms: C_2  and  O_3 
REMARK    2  A    between atoms: O_3  and  C_4 
REMARK    3  A    between atoms: C_7  and  C_8 
REMARK       I    between atoms: C_8  and  N_9 
REMARK    4  A    between atoms: N_12  and  C_13 
REMARK    5  A    between atoms: C_17  and  C_18 
ROOT
HETATM    1  C   UNL     1      45.221  -9.346   8.184  1.00  0.00     0.253 C 
HETATM    2  N   UNL     1      44.592 -10.355   7.461  1.00  0.00    -0.345 N 
HETATM    3  C   UNL     1      45.414 -11.136   6.530  1.00  0.00     0.146 C 
HETATM    4  C   UNL     1      44.859 -12.556   6.340  1.00  0.00     0.144 C 
HETATM    5  N   UNL     1      43.429 -12.514   5.979  1.00  0.00    -0.363 N 
HETATM    6  C   UNL     1      42.587 -11.745   6.910  1.00  0.00     0.144 C 
HETATM    7  C   UNL     1      43.162 -10.328   7.110  1.00  0.00     0.146 C 
HETATM    8  O   UNL     1      46.394  -9.025   8.010  1.00  0.00    -0.267 OA
ENDROOT
BRANCH   5   9
HETATM    9  C   UNL     1      42.958 -13.146   4.869  1.00  0.00     0.122 A 
HETATM   10  N   UNL     1      43.177 -14.471   4.595  1.00  0.00    -0.262 N 
HETATM   11  H   UNL     1      43.718 -15.133   5.136  1.00  0.00     0.191 HD
HETATM   12  N   UNL     1      42.622 -14.905   3.453  1.00  0.00    -0.173 NA
HETATM   13  C   UNL     1      42.012 -13.822   2.945  1.00  0.00     0.090 A 
HETATM   14  C   UNL     1      42.218 -12.700   3.796  1.00  0.00     0.084 A 
BRANCH  13  15
HETATM   15  C   UNL     1      41.262 -13.877   1.686  1.00  0.00    -0.005 A 
HETATM   16  C   UNL     1      40.616 -15.062   1.295  1.00  0.00     0.015 A 
HETATM   17  C   UNL     1      39.900 -15.127   0.096  1.00  0.00     0.024 A 
HETATM   18  C   UNL     1      39.820 -14.004  -0.723  1.00  0.00     0.034 A 
HETATM   19 CL   UNL     1      38.940 -14.079  -2.198  1.00  0.00    -0.084 Cl
HETATM   20  C   UNL     1      40.449 -12.818  -0.352  1.00  0.00     0.024 A 
HETATM   21  C   UNL     1      41.167 -12.756   0.847  1.00  0.00     0.015 A 
ENDBRANCH  13  15
ENDBRANCH   5   9
BRANCH   1  22
HETATM   22  C   UNL     1      44.472  -8.670   9.271  1.00  0.00     0.032 A 
HETATM   23  C   UNL     1      43.832  -7.447   9.048  1.00  0.00     0.020 A 
HETATM   24  C   UNL     1      43.083  -6.859  10.068  1.00  0.00     0.038 A 
HETATM   25  C   UNL     1      42.931  -7.508  11.296  1.00  0.00     0.068 A 
HETATM   26  C   UNL     1      43.560  -8.735  11.516  1.00  0.00     0.038 A 
HETATM   27  C   UNL     1      44.323  -9.321  10.500  1.00  0.00     0.020 A 
BRANCH  25  28
HETATM   28  O   UNL     1      42.156  -6.841  12.205  1.00  0.00    -0.352 OA
BRANCH  28  29
HETATM   29  C   UNL     1      42.019  -7.458  13.485  1.00  0.00     0.171 C 
HETATM   30  C   UNL     1      43.196  -7.022  14.339  1.00  0.00     0.034 C 
ENDBRANCH  28  29
ENDBRANCH  25  28
ENDBRANCH   1  22
TORSDOF 5
ENDMDL
MODEL 7
REMARK VINA RESULT:      -7.8      4.835     11.109
REMARK  5 active torsions:
REMARK  status: ('A' for Active; 'I' for Inactive)
REMARK    1  A    between atoms: C_2  and  O_3 
REMARK    2  A    between atoms: O_3  and  C_4 
REMARK    3  A    between atoms: C_7  and  C_8 
REMARK       I    between atoms: C_8  and  N_9 
REMARK    4  A    between atoms: N_12  and  C_13 
REMARK    5  A    between atoms: C_17  and  C_18 
ROOT
HETATM    1  C   UNL     1      42.253 -12.581   2.630  1.00  0.00     0.253 C 
HETATM    2  N   UNL     1      42.251 -12.041   3.913  1.00  0.00    -0.345 N 
HETATM    3  C   UNL     1      42.075 -10.590   4.038  1.00  0.00     0.146 C 
HETATM    4  C   UNL     1      41.418 -10.214   5.376  1.00  0.00     0.144 C 
HETATM    5  N   UNL     1      42.146 -10.825   6.505  1.00  0.00    -0.363 N 
HETATM    6  C   UNL     1      42.321 -12.283   6.401  1.00  0.00     0.144 C 
HETATM    7  C   UNL     1      42.962 -12.653   5.049  1.00  0.00     0.146 C 
HETATM    8  O   UNL     1      42.209 -11.894   1.612  1.00  0.00    -0.267 OA
ENDROOT
BRANCH   5   9
HETATM    9  C   UNL     1      42.606 -10.074   7.544  1.00  0.00     0.122 A 
HETATM   10  N   UNL     1      43.860  -9.521   7.588  1.00  0.00    -0.262 N 
HETATM   11  H   UNL     1      44.599  -9.610   6.904  1.00  0.00     0.191 HD
HETATM   12  N   UNL     1      44.117  -8.809   8.696  1.00  0.00    -0.173 NA
HETATM   13  C   UNL     1      42.989  -8.895   9.419  1.00  0.00     0.090 A 
HETATM   14  C   UNL     1      42.030  -9.695   8.736  1.00  0.00     0.084 A 
BRANCH  13  15
HETATM   15  C   UNL     1      42.852  -8.229  10.718  1.00  0.00    -0.005 A 
HETATM   16  C   UNL     1      42.224  -6.975  10.811  1.00  0.00     0.015 A 
HETATM   17  C   UNL     1      42.090  -6.330  12.044  1.00  0.00     0.024 A 
HETATM   18  C   UNL     1      42.578  -6.936  13.198  1.00  0.00     0.034 A 
HETATM   19 CL   UNL     1      42.413  -6.147  14.717  1.00  0.00    -0.084 Cl
HETATM   20  C   UNL     1      43.199  -8.181  13.129  1.00  0.00     0.024 A 
HETATM   21  C   UNL     1      43.335  -8.824  11.894  1.00  0.00     0.015 A 
ENDBRANCH  13  15
ENDBRANCH   5   9
BRANCH   1  22
HETATM   22  C   UNL     1      42.232 -14.055   2.473  1.00  0.00     0.032 A 
HETATM   23  C   UNL     1      43.321 -14.733   1.918  1.00  0.00     0.020 A 
HETATM   24  C   UNL     1      43.303 -16.126   1.835  1.00  0.00     0.038 A 
HETATM   25  C   UNL     1      42.222 -16.850   2.345  1.00  0.00     0.068 A 
HETATM   26  C   UNL     1      41.139 -16.175   2.910  1.00  0.00     0.038 A 
HETATM   27  C   UNL     1      41.147 -14.777   2.982  1.00  0.00     0.020 A 
BRANCH  25  28
HETATM   28  O   UNL     1      42.334 -18.208   2.225  1.00  0.00    -0.352 OA
BRANCH  28  29
HETATM   29  C   UNL     1      43.574 -18.775   2.646  1.00  0.00     0.171 C 
HETATM   30  C   UNL     1      43.627 -20.205   2.138  1.00  0.00     0.034 C 
ENDBRANCH  28  29
ENDBRANCH  25  28
ENDBRANCH   1  22
TORSDOF 5
ENDMDL
MODEL 8
REMARK VINA RESULT:      -7.7      2.385      2.925
REMARK  5 active torsions:
REMARK  status: ('A' for Active; 'I' for Inactive)
REMARK    1  A    between atoms: C_2  and  O_3 
REMARK    2  A    between atoms: O_3  and  C_4 
REMARK    3  A    between atoms: C_7  and  C_8 
REMARK       I    between atoms: C_8  and  N_9 
REMARK    4  A    between atoms: N_12  and  C_13 
REMARK    5  A    between atoms: C_17  and  C_18 
ROOT
HETATM    1  C   UNL     1      40.424  -8.675   6.659  1.00  0.00     0.253 C 
HETATM    2  N   UNL     1      41.137  -9.665   5.988  1.00  0.00    -0.345 N 
HETATM    3  C   UNL     1      40.687 -10.028   4.640  1.00  0.00     0.146 C 
HETATM    4  C   UNL     1      41.849 -10.547   3.778  1.00  0.00     0.144 C 
HETATM    5  N   UNL     1      42.574 -11.627   4.474  1.00  0.00    -0.363 N 
HETATM    6  C   UNL     1      43.043 -11.274   5.824  1.00  0.00     0.144 C 
HETATM    7  C   UNL     1      41.876 -10.736   6.676  1.00  0.00     0.146 C 
HETATM    8  O   UNL     1      39.396  -8.169   6.216  1.00  0.00    -0.267 OA
ENDROOT
BRANCH   5   9
HETATM    9  C   UNL     1      42.777 -12.839   3.889  1.00  0.00     0.122 A 
HETATM   10  N   UNL     1      42.924 -13.018   2.537  1.00  0.00    -0.262 N 
HETATM   11  H   UNL     1      42.877 -12.315   1.812  1.00  0.00     0.191 HD
HETATM   12  N   UNL     1      43.122 -14.291   2.160  1.00  0.00    -0.173 NA
HETATM   13  C   UNL     1      43.102 -14.986   3.308  1.00  0.00     0.090 A 
HETATM   14  C   UNL     1      42.869 -14.112   4.407  1.00  0.00     0.084 A 
BRANCH  13  15
HETATM   15  C   UNL     1      43.299 -16.440   3.334  1.00  0.00    -0.005 A 
HETATM   16  C   UNL     1      43.833 -17.064   4.474  1.00  0.00     0.015 A 
HETATM   17  C   UNL     1      44.027 -18.448   4.509  1.00  0.00     0.024 A 
HETATM   18  C   UNL     1      43.684 -19.222   3.403  1.00  0.00     0.034 A 
HETATM   19 CL   UNL     1      43.920 -20.925   3.443  1.00  0.00    -0.084 Cl
HETATM   20  C   UNL     1      43.149 -18.624   2.265  1.00  0.00     0.024 A 
HETATM   21  C   UNL     1      42.957 -17.238   2.231  1.00  0.00     0.015 A 
ENDBRANCH  13  15
ENDBRANCH   5   9
BRANCH   1  22
HETATM   22  C   UNL     1      40.961  -8.146   7.936  1.00  0.00     0.032 A 
HETATM   23  C   UNL     1      42.228  -7.557   7.991  1.00  0.00     0.020 A 
HETATM   24  C   UNL     1      42.688  -7.012   9.191  1.00  0.00     0.038 A 
HETATM   25  C   UNL     1      41.872  -7.009  10.325  1.00  0.00     0.068 A 
HETATM   26  C   UNL     1      40.602  -7.587  10.267  1.00  0.00     0.038 A 
HETATM   27  C   UNL     1      40.143  -8.147   9.070  1.00  0.00     0.020 A 
BRANCH  25  28
HETATM   28  O   UNL     1      42.427  -6.426  11.430  1.00  0.00    -0.352 OA
BRANCH  28  29
HETATM   29  C   UNL     1      42.271  -7.135  12.659  1.00  0.00     0.171 C 
HETATM   30  C   UNL     1      43.354  -8.198  12.723  1.00  0.00     0.034 C 
ENDBRANCH  28  29
ENDBRANCH  25  28
ENDBRANCH   1  22
TORSDOF 5
ENDMDL
MODEL 9
REMARK VINA RESULT:      -7.6      2.136      3.853
REMARK  5 active torsions:
REMARK  status: ('A' for Active; 'I' for Inactive)
REMARK    1  A    between atoms: C_2  and  O_3 
REMARK    2  A    between atoms: O_3  and  C_4 
REMARK    3  A    between atoms: C_7  and  C_8 
REMARK       I    between atoms: C_8  and  N_9 
REMARK    4  A    between atoms: N_12  and  C_13 
REMARK    5  A    between atoms: C_17  and  C_18 
ROOT
HETATM    1  C   UNL     1      42.402  -6.802  11.495  1.00  0.00     0.253 C 
HETATM    2  N   UNL     1      42.994  -7.836  10.776  1.00  0.00    -0.345 N 
HETATM    3  C   UNL     1      43.460  -7.538   9.418  1.00  0.00     0.146 C 
HETATM    4  C   UNL     1      44.638  -8.439   9.013  1.00  0.00     0.144 C 
HETATM    5  N   UNL     1      44.306  -9.861   9.231  1.00  0.00    -0.363 N 
HETATM    6  C   UNL     1      43.850 -10.179  10.593  1.00  0.00     0.144 C 
HETATM    7  C   UNL     1      42.681  -9.258  10.998  1.00  0.00     0.146 C 
HETATM    8  O   UNL     1      42.171  -5.695  11.013  1.00  0.00    -0.267 OA
ENDROOT
BRANCH   5   9
HETATM    9  C   UNL     1      44.424 -10.779   8.232  1.00  0.00     0.122 A 
HETATM   10  N   UNL     1      45.525 -10.885   7.421  1.00  0.00    -0.262 N 
HETATM   11  H   UNL     1      46.355 -10.309   7.427  1.00  0.00     0.191 HD
HETATM   12  N   UNL     1      45.449 -11.860   6.501  1.00  0.00    -0.173 NA
HETATM   13  C   UNL     1      44.246 -12.421   6.707  1.00  0.00     0.090 A 
HETATM   14  C   UNL     1      43.572 -11.756   7.770  1.00  0.00     0.084 A 
BRANCH  13  15
HETATM   15  C   UNL     1      43.775 -13.553   5.903  1.00  0.00    -0.005 A 
HETATM   16  C   UNL     1      43.146 -13.332   4.666  1.00  0.00     0.015 A 
HETATM   17  C   UNL     1      42.691 -14.404   3.892  1.00  0.00     0.024 A 
HETATM   18  C   UNL     1      42.864 -15.708   4.348  1.00  0.00     0.034 A 
HETATM   19 CL   UNL     1      42.306 -17.029   3.398  1.00  0.00    -0.084 Cl
HETATM   20  C   UNL     1      43.488 -15.949   5.569  1.00  0.00     0.024 A 
HETATM   21  C   UNL     1      43.941 -14.875   6.343  1.00  0.00     0.015 A 
ENDBRANCH  13  15
ENDBRANCH   5   9
BRANCH   1  22
HETATM   22  C   UNL     1      42.099  -7.009  12.932  1.00  0.00     0.032 A 
HETATM   23  C   UNL     1      43.110  -6.942  13.895  1.00  0.00     0.020 A 
HETATM   24  C   UNL     1      42.791  -7.080  15.246  1.00  0.00     0.038 A 
HETATM   25  C   UNL     1      41.462  -7.240  15.646  1.00  0.00     0.068 A 
HETATM   26  C   UNL     1      40.450  -7.295  14.685  1.00  0.00     0.038 A 
HETATM   27  C   UNL     1      40.767  -7.171  13.328  1.00  0.00     0.020 A 
BRANCH  25  28
HETATM   28  O   UNL     1      41.277  -7.341  16.997  1.00  0.00    -0.352 OA
BRANCH  28  29
HETATM   29  C   UNL     1      39.959  -7.069  17.473  1.00  0.00     0.171 C 
HETATM   30  C   UNL     1      39.744  -7.882  18.737  1.00  0.00     0.034 C 
ENDBRANCH  28  29
ENDBRANCH  25  28
ENDBRANCH   1  22
TORSDOF 5
ENDMDL
MODEL 10
REMARK VINA RESULT:      -7.6      8.285     11.400
REMARK  5 active torsions:
REMARK  status: ('A' for Active; 'I' for Inactive)
REMARK    1  A    between atoms: C_2  and  O_3 
REMARK    2  A    between atoms: O_3  and  C_4 
REMARK    3  A    between atoms: C_7  and  C_8 
REMARK       I    between atoms: C_8  and  N_9 
REMARK    4  A    between atoms: N_12  and  C_13 
REMARK    5  A    between atoms: C_17  and  C_18 
ROOT
HETATM    1  C   UNL     1      40.686  -8.297  -1.461  1.00  0.00     0.253 C 
HETATM    2  N   UNL     1      40.560  -9.649  -1.154  1.00  0.00    -0.345 N 
HETATM    3  C   UNL     1      39.911  -9.998   0.115  1.00  0.00     0.146 C 
HETATM    4  C   UNL     1      39.225 -11.372   0.039  1.00  0.00     0.144 C 
HETATM    5  N   UNL     1      40.165 -12.399  -0.451  1.00  0.00    -0.363 N 
HETATM    6  C   UNL     1      40.816 -12.069  -1.730  1.00  0.00     0.144 C 
HETATM    7  C   UNL     1      41.484 -10.681  -1.652  1.00  0.00     0.146 C 
HETATM    8  O   UNL     1      40.369  -7.399  -0.685  1.00  0.00    -0.267 OA
ENDROOT
BRANCH   5   9
HETATM    9  C   UNL     1      40.391 -13.546   0.246  1.00  0.00     0.122 A 
HETATM   10  N   UNL     1      39.544 -14.625   0.232  1.00  0.00    -0.262 N 
HETATM   11  H   UNL     1      38.660 -14.710  -0.251  1.00  0.00     0.191 HD
HETATM   12  N   UNL     1      39.950 -15.663   0.980  1.00  0.00    -0.173 NA
HETATM   13  C   UNL     1      41.111 -15.255   1.516  1.00  0.00     0.090 A 
HETATM   14  C   UNL     1      41.407 -13.929   1.092  1.00  0.00     0.084 A 
BRANCH  13  15
HETATM   15  C   UNL     1      41.898 -16.119   2.403  1.00  0.00    -0.005 A 
HETATM   16  C   UNL     1      41.751 -16.027   3.797  1.00  0.00     0.015 A 
HETATM   17  C   UNL     1      42.497 -16.844   4.652  1.00  0.00     0.024 A 
HETATM   18  C   UNL     1      43.395 -17.764   4.119  1.00  0.00     0.034 A 
HETATM   19 CL   UNL     1      44.313 -18.772   5.167  1.00  0.00    -0.084 Cl
HETATM   20  C   UNL     1      43.552 -17.875   2.739  1.00  0.00     0.024 A 
HETATM   21  C   UNL     1      42.806 -17.055   1.886  1.00  0.00     0.015 A 
ENDBRANCH  13  15
ENDBRANCH   5   9
BRANCH   1  22
HETATM   22  C   UNL     1      41.156  -7.910  -2.813  1.00  0.00     0.032 A 
HETATM   23  C   UNL     1      40.290  -7.946  -3.910  1.00  0.00     0.020 A 
HETATM   24  C   UNL     1      40.739  -7.520  -5.161  1.00  0.00     0.038 A 
HETATM   25  C   UNL     1      42.032  -7.015  -5.315  1.00  0.00     0.068 A 
HETATM   26  C   UNL     1      42.893  -6.968  -4.217  1.00  0.00     0.038 A 
HETATM   27  C   UNL     1      42.452  -7.407  -2.963  1.00  0.00     0.020 A 
BRANCH  25  28
HETATM   28  O   UNL     1      42.343  -6.609  -6.583  1.00  0.00    -0.352 OA
BRANCH  28  29
HETATM   29  C   UNL     1      43.660  -6.093  -6.771  1.00  0.00     0.171 C 
HETATM   30  C   UNL     1      44.084  -6.409  -8.195  1.00  0.00     0.034 C 
ENDBRANCH  28  29
ENDBRANCH  25  28
ENDBRANCH   1  22
TORSDOF 5
ENDMDL
