MODEL 1
REMARK VINA RESULT:      -8.7      0.000      0.000
REMARK  3 active torsions:
REMARK  status: ('A' for Active; 'I' for Inactive)
REMARK    1  A    between atoms: N_3  and  C_4 
REMARK    2  A    between atoms: C_12  and  C_13 
REMARK       I    between atoms: C_13  and  N_14 
REMARK    3  A    between atoms: N_14  and  C_15 
ROOT
HETATM    1  C   UNL     1      41.937  -7.780   6.977  1.00  0.00     0.070 C 
HETATM    2  C   UNL     1      41.798  -9.210   6.509  1.00  0.00     0.036 C 
HETATM    3  N   UNL     1      42.562 -10.233   7.093  1.00  0.00    -0.235 N 
HETATM    4  N   UNL     1      42.482 -11.554   6.711  1.00  0.00    -0.157 NA
HETATM    5  C   UNL     1      41.699 -11.855   5.715  1.00  0.00     0.195 C 
HETATM    6  C   UNL     1      40.950 -10.805   4.943  1.00  0.00     0.209 C 
HETATM    7  O   UNL     1      40.399 -11.072   3.885  1.00  0.00    -0.286 OA
HETATM    8  C   UNL     1      40.981  -9.441   5.470  1.00  0.00     0.084 C 
ENDROOT
BRANCH   5   9
HETATM    9  C   UNL     1      41.602 -13.314   5.329  1.00  0.00     0.280 C 
HETATM   10  N   UNL     1      42.766 -13.819   4.775  1.00  0.00    -0.322 N 
HETATM   11  H   UNL     1      43.596 -13.242   4.898  1.00  0.00     0.169 HD
HETATM   12  O   UNL     1      40.561 -13.915   5.544  1.00  0.00    -0.265 OA
BRANCH  10  13
HETATM   13  C   UNL     1      42.895 -15.056   4.117  1.00  0.00     0.035 A 
HETATM   14  C   UNL     1      43.649 -16.111   4.643  1.00  0.00     0.039 A 
HETATM   15  C   UNL     1      43.672 -17.324   3.971  1.00  0.00    -0.022 A 
HETATM   16  C   UNL     1      42.970 -17.506   2.782  1.00  0.00    -0.025 A 
HETATM   17  C   UNL     1      44.347 -18.580   4.397  1.00  0.00     0.274 C 
HETATM   18  C   UNL     1      43.124 -18.905   2.293  1.00  0.00     0.273 C 
HETATM   19  C   UNL     1      42.225 -16.472   2.238  1.00  0.00     0.012 A 
HETATM   20  N   UNL     1      44.124 -19.558   3.247  1.00  0.00    -0.067 N 
HETATM   21  H   UNL     1      45.015 -19.610   2.742  1.00  0.00     0.280 HD
HETATM   22  C   UNL     1      43.740 -20.928   3.689  1.00  0.00     0.270 C 
HETATM   23  C   UNL     1      42.183 -15.247   2.919  1.00  0.00     0.030 A 
ENDBRANCH  10  13
ENDBRANCH   5   9
BRANCH   3  24
HETATM   24  C   UNL     1      43.534 -10.011   8.114  1.00  0.00     0.097 A 
HETATM   25  C   UNL     1      43.142  -9.759   9.440  1.00  0.00     0.145 A 
HETATM   26  F   UNL     1      41.839  -9.720   9.767  1.00  0.00    -0.204 F 
HETATM   27  C   UNL     1      44.081  -9.576  10.455  1.00  0.00     0.045 A 
HETATM   28  C   UNL     1      45.440  -9.625  10.159  1.00  0.00     0.003 A 
HETATM   29  C   UNL     1      45.855  -9.840   8.845  1.00  0.00     0.002 A 
HETATM   30  C   UNL     1      44.911 -10.025   7.831  1.00  0.00     0.035 A 
ENDBRANCH   3  24
TORSDOF 3
ENDMDL
MODEL 2
REMARK VINA RESULT:      -8.7      4.770      8.465
REMARK  3 active torsions:
REMARK  status: ('A' for Active; 'I' for Inactive)
REMARK    1  A    between atoms: N_3  and  C_4 
REMARK    2  A    between atoms: C_12  and  C_13 
REMARK       I    between atoms: C_13  and  N_14 
REMARK    3  A    between atoms: N_14  and  C_15 
ROOT
HETATM    1  C   UNL     1      44.652 -16.048   6.410  1.00  0.00     0.070 C 
HETATM    2  C   UNL     1      43.566 -15.764   5.398  1.00  0.00     0.036 C 
HETATM    3  N   UNL     1      42.990 -16.805   4.653  1.00  0.00    -0.235 N 
HETATM    4  N   UNL     1      41.998 -16.612   3.717  1.00  0.00    -0.157 NA
HETATM    5  C   UNL     1      41.620 -15.390   3.472  1.00  0.00     0.195 C 
HETATM    6  C   UNL     1      42.277 -14.205   4.123  1.00  0.00     0.209 C 
HETATM    7  O   UNL     1      42.067 -13.069   3.726  1.00  0.00    -0.286 OA
HETATM    8  C   UNL     1      43.237 -14.480   5.192  1.00  0.00     0.084 C 
ENDROOT
BRANCH   5   9
HETATM    9  C   UNL     1      40.510 -15.200   2.463  1.00  0.00     0.280 C 
HETATM   10  N   UNL     1      40.868 -14.404   1.389  1.00  0.00    -0.322 N 
HETATM   11  H   UNL     1      41.866 -14.234   1.283  1.00  0.00     0.169 HD
HETATM   12  O   UNL     1      39.437 -15.754   2.652  1.00  0.00    -0.265 OA
BRANCH  10  13
HETATM   13  C   UNL     1      39.986 -13.868   0.431  1.00  0.00     0.035 A 
HETATM   14  C   UNL     1      39.387 -12.613   0.582  1.00  0.00     0.039 A 
HETATM   15  C   UNL     1      38.585 -12.121  -0.437  1.00  0.00    -0.022 A 
HETATM   16  C   UNL     1      38.358 -12.858  -1.598  1.00  0.00    -0.025 A 
HETATM   17  C   UNL     1      37.919 -10.792  -0.502  1.00  0.00     0.274 C 
HETATM   18  C   UNL     1      37.503 -12.088  -2.545  1.00  0.00     0.273 C 
HETATM   19  C   UNL     1      38.934 -14.107  -1.764  1.00  0.00     0.012 A 
HETATM   20  N   UNL     1      37.100 -10.823  -1.788  1.00  0.00    -0.067 N 
HETATM   21  H   UNL     1      36.124 -10.956  -1.499  1.00  0.00     0.280 HD
HETATM   22  C   UNL     1      37.197  -9.573  -2.594  1.00  0.00     0.270 C 
HETATM   23  C   UNL     1      39.759 -14.604  -0.746  1.00  0.00     0.030 A 
ENDBRANCH  10  13
ENDBRANCH   5   9
BRANCH   3  24
HETATM   24  C   UNL     1      43.398 -18.169   4.751  1.00  0.00     0.097 A 
HETATM   25  C   UNL     1      43.927 -18.846   3.639  1.00  0.00     0.145 A 
HETATM   26  F   UNL     1      44.055 -18.216   2.459  1.00  0.00    -0.204 F 
HETATM   27  C   UNL     1      44.364 -20.168   3.729  1.00  0.00     0.045 A 
HETATM   28  C   UNL     1      44.263 -20.850   4.938  1.00  0.00     0.003 A 
HETATM   29  C   UNL     1      43.710 -20.212   6.049  1.00  0.00     0.002 A 
HETATM   30  C   UNL     1      43.275 -18.886   5.954  1.00  0.00     0.035 A 
ENDBRANCH   3  24
TORSDOF 3
ENDMDL
MODEL 3
REMARK VINA RESULT:      -8.5      4.309     10.103
REMARK  3 active torsions:
REMARK  status: ('A' for Active; 'I' for Inactive)
REMARK    1  A    between atoms: N_3  and  C_4 
REMARK    2  A    between atoms: C_12  and  C_13 
REMARK       I    between atoms: C_13  and  N_14 
REMARK    3  A    between atoms: N_14  and  C_15 
ROOT
HETATM    1  C   UNL     1      45.912 -11.391   5.389  1.00  0.00     0.070 C 
HETATM    2  C   UNL     1      45.421 -11.206   6.806  1.00  0.00     0.036 C 
HETATM    3  N   UNL     1      44.332 -11.949   7.291  1.00  0.00    -0.235 N 
HETATM    4  N   UNL     1      43.838 -11.827   8.570  1.00  0.00    -0.157 NA
HETATM    5  C   UNL     1      44.374 -10.931   9.349  1.00  0.00     0.195 C 
HETATM    6  C   UNL     1      45.451  -9.998   8.870  1.00  0.00     0.209 C 
HETATM    7  O   UNL     1      45.788  -9.028   9.532  1.00  0.00    -0.286 OA
HETATM    8  C   UNL     1      46.015 -10.257   7.544  1.00  0.00     0.084 C 
ENDROOT
BRANCH   5   9
HETATM    9  C   UNL     1      43.837 -10.831  10.759  1.00  0.00     0.280 C 
HETATM   10  N   UNL     1      42.902  -9.825  10.926  1.00  0.00    -0.322 N 
HETATM   11  H   UNL     1      42.522  -9.432  10.067  1.00  0.00     0.169 HD
HETATM   12  O   UNL     1      44.235 -11.622  11.601  1.00  0.00    -0.265 OA
BRANCH  10  13
HETATM   13  C   UNL     1      42.413  -9.350  12.158  1.00  0.00     0.035 A 
HETATM   14  C   UNL     1      43.061  -8.346  12.886  1.00  0.00     0.039 A 
HETATM   15  C   UNL     1      42.483  -7.882  14.057  1.00  0.00    -0.022 A 
HETATM   16  C   UNL     1      41.278  -8.403  14.524  1.00  0.00    -0.025 A 
HETATM   17  C   UNL     1      42.970  -6.781  14.932  1.00  0.00     0.274 C 
HETATM   18  C   UNL     1      40.856  -7.702  15.770  1.00  0.00     0.273 C 
HETATM   19  C   UNL     1      40.624  -9.403  13.824  1.00  0.00     0.012 A 
HETATM   20  N   UNL     1      42.009  -6.761  16.116  1.00  0.00    -0.067 N 
HETATM   21  H   UNL     1      42.513  -7.194  16.897  1.00  0.00     0.280 HD
HETATM   22  C   UNL     1      41.580  -5.392  16.519  1.00  0.00     0.270 C 
HETATM   23  C   UNL     1      41.194  -9.868  12.631  1.00  0.00     0.030 A 
ENDBRANCH  10  13
ENDBRANCH   5   9
BRANCH   3  24
HETATM   24  C   UNL     1      43.593 -12.878   6.500  1.00  0.00     0.097 A 
HETATM   25  C   UNL     1      42.558 -12.443   5.654  1.00  0.00     0.145 A 
HETATM   26  F   UNL     1      42.246 -11.138   5.580  1.00  0.00    -0.204 F 
HETATM   27  C   UNL     1      41.851 -13.334   4.848  1.00  0.00     0.045 A 
HETATM   28  C   UNL     1      42.155 -14.693   4.884  1.00  0.00     0.003 A 
HETATM   29  C   UNL     1      43.155 -15.155   5.739  1.00  0.00     0.002 A 
HETATM   30  C   UNL     1      43.863 -14.257   6.545  1.00  0.00     0.035 A 
ENDBRANCH   3  24
TORSDOF 3
ENDMDL
MODEL 4
REMARK VINA RESULT:      -8.3      3.516      9.574
REMARK  3 active torsions:
REMARK  status: ('A' for Active; 'I' for Inactive)
REMARK    1  A    between atoms: N_3  and  C_4 
REMARK    2  A    between atoms: C_12  and  C_13 
REMARK       I    between atoms: C_13  and  N_14 
REMARK    3  A    between atoms: N_14  and  C_15 
ROOT
HETATM    1  C   UNL     1      42.779 -13.233   3.886  1.00  0.00     0.070 C 
HETATM    2  C   UNL     1      43.076 -12.521   5.186  1.00  0.00     0.036 C 
HETATM    3  N   UNL     1      43.406 -13.247   6.342  1.00  0.00    -0.235 N 
HETATM    4  N   UNL     1      43.686 -12.658   7.555  1.00  0.00    -0.157 NA
HETATM    5  C   UNL     1      43.580 -11.363   7.644  1.00  0.00     0.195 C 
HETATM    6  C   UNL     1      43.099 -10.521   6.496  1.00  0.00     0.209 C 
HETATM    7  O   UNL     1      42.797  -9.348   6.655  1.00  0.00    -0.286 OA
HETATM    8  C   UNL     1      42.934 -11.188   5.203  1.00  0.00     0.084 C 
ENDROOT
BRANCH   5   9
HETATM    9  C   UNL     1      43.919 -10.733   8.976  1.00  0.00     0.280 C 
HETATM   10  N   UNL     1      42.811 -10.297   9.681  1.00  0.00    -0.322 N 
HETATM   11  H   UNL     1      41.914 -10.645   9.348  1.00  0.00     0.169 HD
HETATM   12  O   UNL     1      45.089 -10.675   9.322  1.00  0.00    -0.265 OA
BRANCH  10  13
HETATM   13  C   UNL     1      42.833  -9.473  10.823  1.00  0.00     0.035 A 
HETATM   14  C   UNL     1      42.620  -8.092  10.756  1.00  0.00     0.039 A 
HETATM   15  C   UNL     1      42.587  -7.357  11.931  1.00  0.00    -0.022 A 
HETATM   16  C   UNL     1      42.772  -7.966  13.170  1.00  0.00    -0.025 A 
HETATM   17  C   UNL     1      42.306  -5.903  12.080  1.00  0.00     0.274 C 
HETATM   18  C   UNL     1      42.644  -6.965  14.267  1.00  0.00     0.273 C 
HETATM   19  C   UNL     1      42.993  -9.330  13.259  1.00  0.00     0.012 A 
HETATM   20  N   UNL     1      42.490  -5.615  13.567  1.00  0.00    -0.067 N 
HETATM   21  H   UNL     1      43.394  -5.138  13.654  1.00  0.00     0.280 HD
HETATM   22  C   UNL     1      41.428  -4.745  14.147  1.00  0.00     0.270 C 
HETATM   23  C   UNL     1      43.013 -10.084  12.077  1.00  0.00     0.030 A 
ENDBRANCH  10  13
ENDBRANCH   5   9
BRANCH   3  24
HETATM   24  C   UNL     1      43.444 -14.672   6.398  1.00  0.00     0.097 A 
HETATM   25  C   UNL     1      42.278 -15.417   6.644  1.00  0.00     0.145 A 
HETATM   26  F   UNL     1      41.102 -14.793   6.833  1.00  0.00    -0.204 F 
HETATM   27  C   UNL     1      42.293 -16.811   6.666  1.00  0.00     0.045 A 
HETATM   28  C   UNL     1      43.488 -17.494   6.458  1.00  0.00     0.003 A 
HETATM   29  C   UNL     1      44.666 -16.779   6.245  1.00  0.00     0.002 A 
HETATM   30  C   UNL     1      44.646 -15.381   6.223  1.00  0.00     0.035 A 
ENDBRANCH   3  24
TORSDOF 3
ENDMDL
MODEL 5
REMARK VINA RESULT:      -8.1      8.000     11.625
REMARK  3 active torsions:
REMARK  status: ('A' for Active; 'I' for Inactive)
REMARK    1  A    between atoms: N_3  and  C_4 
REMARK    2  A    between atoms: C_12  and  C_13 
REMARK       I    between atoms: C_13  and  N_14 
REMARK    3  A    between atoms: N_14  and  C_15 
ROOT
HETATM    1  C   UNL     1      40.597  -5.326  19.847  1.00  0.00     0.070 C 
HETATM    2  C   UNL     1      40.794  -5.891  18.459  1.00  0.00     0.036 C 
HETATM    3  N   UNL     1      41.054  -7.258  18.271  1.00  0.00    -0.235 N 
HETATM    4  N   UNL     1      41.243  -7.833  17.034  1.00  0.00    -0.157 NA
HETATM    5  C   UNL     1      41.238  -7.052  15.991  1.00  0.00     0.195 C 
HETATM    6  C   UNL     1      41.104  -5.560  16.111  1.00  0.00     0.209 C 
HETATM    7  O   UNL     1      41.319  -4.827  15.157  1.00  0.00    -0.286 OA
HETATM    8  C   UNL     1      40.787  -5.024  17.436  1.00  0.00     0.084 C 
ENDROOT
BRANCH   5   9
HETATM    9  C   UNL     1      41.418  -7.705  14.639  1.00  0.00     0.280 C 
HETATM   10  N   UNL     1      42.583  -7.330  13.994  1.00  0.00    -0.322 N 
HETATM   11  H   UNL     1      43.274  -6.859  14.574  1.00  0.00     0.169 HD
HETATM   12  O   UNL     1      40.571  -8.493  14.245  1.00  0.00    -0.265 OA
BRANCH  10  13
HETATM   13  C   UNL     1      42.897  -7.588  12.646  1.00  0.00     0.035 A 
HETATM   14  C   UNL     1      43.592  -8.734  12.243  1.00  0.00     0.039 A 
HETATM   15  C   UNL     1      43.804  -8.954  10.890  1.00  0.00    -0.022 A 
HETATM   16  C   UNL     1      43.347  -8.052   9.931  1.00  0.00    -0.025 A 
HETATM   17  C   UNL     1      44.452 -10.134  10.257  1.00  0.00     0.274 C 
HETATM   18  C   UNL     1      43.663  -8.545   8.561  1.00  0.00     0.273 C 
HETATM   19  C   UNL     1      42.664  -6.907  10.308  1.00  0.00     0.012 A 
HETATM   20  N   UNL     1      44.499  -9.807   8.767  1.00  0.00    -0.067 N 
HETATM   21  H   UNL     1      45.470  -9.548   8.565  1.00  0.00     0.280 HD
HETATM   22  C   UNL     1      44.111 -10.947   7.889  1.00  0.00     0.270 C 
HETATM   23  C   UNL     1      42.433  -6.685  11.673  1.00  0.00     0.030 A 
ENDBRANCH  10  13
ENDBRANCH   5   9
BRANCH   3  24
HETATM   24  C   UNL     1      41.194  -8.192  19.341  1.00  0.00     0.097 A 
HETATM   25  C   UNL     1      40.074  -8.856  19.870  1.00  0.00     0.145 A 
HETATM   26  F   UNL     1      38.847  -8.619  19.375  1.00  0.00    -0.204 F 
HETATM   27  C   UNL     1      40.199  -9.798  20.891  1.00  0.00     0.045 A 
HETATM   28  C   UNL     1      41.455 -10.083  21.420  1.00  0.00     0.003 A 
HETATM   29  C   UNL     1      42.579  -9.414  20.936  1.00  0.00     0.002 A 
HETATM   30  C   UNL     1      42.448  -8.471  19.911  1.00  0.00     0.035 A 
ENDBRANCH   3  24
TORSDOF 3
ENDMDL
MODEL 6
REMARK VINA RESULT:      -8.1      2.470      3.381
REMARK  3 active torsions:
REMARK  status: ('A' for Active; 'I' for Inactive)
REMARK    1  A    between atoms: N_3  and  C_4 
REMARK    2  A    between atoms: C_12  and  C_13 
REMARK       I    between atoms: C_13  and  N_14 
REMARK    3  A    between atoms: N_14  and  C_15 
ROOT
HETATM    1  C   UNL     1      40.096  -6.818   9.869  1.00  0.00     0.070 C 
HETATM    2  C   UNL     1      40.839  -7.870   9.077  1.00  0.00     0.036 C 
HETATM    3  N   UNL     1      41.695  -8.780   9.719  1.00  0.00    -0.235 N 
HETATM    4  N   UNL     1      42.399  -9.759   9.055  1.00  0.00    -0.157 NA
HETATM    5  C   UNL     1      42.308  -9.802   7.756  1.00  0.00     0.195 C 
HETATM    6  C   UNL     1      41.526  -8.782   6.976  1.00  0.00     0.209 C 
HETATM    7  O   UNL     1      41.627  -8.702   5.761  1.00  0.00    -0.286 OA
HETATM    8  C   UNL     1      40.706  -7.843   7.743  1.00  0.00     0.084 C 
ENDROOT
BRANCH   5   9
HETATM    9  C   UNL     1      43.065 -10.902   7.047  1.00  0.00     0.280 C 
HETATM   10  N   UNL     1      42.246 -11.803   6.389  1.00  0.00    -0.322 N 
HETATM   11  H   UNL     1      41.280 -11.507   6.264  1.00  0.00     0.169 HD
HETATM   12  O   UNL     1      44.286 -10.902   7.089  1.00  0.00    -0.265 OA
BRANCH  10  13
HETATM   13  C   UNL     1      42.648 -13.040   5.851  1.00  0.00     0.035 A 
HETATM   14  C   UNL     1      43.144 -14.078   6.647  1.00  0.00     0.039 A 
HETATM   15  C   UNL     1      43.454 -15.293   6.054  1.00  0.00    -0.022 A 
HETATM   16  C   UNL     1      43.289 -15.493   4.685  1.00  0.00    -0.025 A 
HETATM   17  C   UNL     1      43.923 -16.535   6.729  1.00  0.00     0.274 C 
HETATM   18  C   UNL     1      43.649 -16.891   4.316  1.00  0.00     0.273 C 
HETATM   19  C   UNL     1      42.807 -14.476   3.878  1.00  0.00     0.012 A 
HETATM   20  N   UNL     1      44.194 -17.521   5.597  1.00  0.00    -0.067 N 
HETATM   21  H   UNL     1      45.214 -17.557   5.491  1.00  0.00     0.280 HD
HETATM   22  C   UNL     1      43.688 -18.897   5.864  1.00  0.00     0.270 C 
HETATM   23  C   UNL     1      42.478 -13.250   4.471  1.00  0.00     0.030 A 
ENDBRANCH  10  13
ENDBRANCH   5   9
BRANCH   3  24
HETATM   24  C   UNL     1      41.962  -8.762  11.120  1.00  0.00     0.097 A 
HETATM   25  C   UNL     1      41.147  -9.471  12.020  1.00  0.00     0.145 A 
HETATM   26  F   UNL     1      40.096 -10.179  11.570  1.00  0.00    -0.204 F 
HETATM   27  C   UNL     1      41.416  -9.493  13.388  1.00  0.00     0.045 A 
HETATM   28  C   UNL     1      42.505  -8.785  13.891  1.00  0.00     0.003 A 
HETATM   29  C   UNL     1      43.310  -8.046  13.024  1.00  0.00     0.002 A 
HETATM   30  C   UNL     1      43.036  -8.029  11.653  1.00  0.00     0.035 A 
ENDBRANCH   3  24
TORSDOF 3
ENDMDL
MODEL 7
REMARK VINA RESULT:      -8.1      4.863      8.566
REMARK  3 active torsions:
REMARK  status: ('A' for Active; 'I' for Inactive)
REMARK    1  A    between atoms: N_3  and  C_4 
REMARK    2  A    between atoms: C_12  and  C_13 
REMARK       I    between atoms: C_13  and  N_14 
REMARK    3  A    between atoms: N_14  and  C_15 
ROOT
HETATM    1  C   UNL     1      40.640 -16.107   6.219  1.00  0.00     0.070 C 
HETATM    2  C   UNL     1      40.965 -14.952   5.300  1.00  0.00     0.036 C 
HETATM    3  N   UNL     1      41.871 -15.113   4.239  1.00  0.00    -0.235 N 
HETATM    4  N   UNL     1      42.209 -14.102   3.368  1.00  0.00    -0.157 NA
HETATM    5  C   UNL     1      41.705 -12.919   3.580  1.00  0.00     0.195 C 
HETATM    6  C   UNL     1      40.836 -12.624   4.771  1.00  0.00     0.209 C 
HETATM    7  O   UNL     1      40.553 -11.475   5.077  1.00  0.00    -0.286 OA
HETATM    8  C   UNL     1      40.417 -13.763   5.589  1.00  0.00     0.084 C 
ENDROOT
BRANCH   5   9
HETATM    9  C   UNL     1      42.065 -11.829   2.597  1.00  0.00     0.280 C 
HETATM   10  N   UNL     1      41.033 -11.497   1.736  1.00  0.00    -0.322 N 
HETATM   11  H   UNL     1      40.113 -11.842   2.001  1.00  0.00     0.169 HD
HETATM   12  O   UNL     1      43.179 -11.332   2.646  1.00  0.00    -0.265 OA
BRANCH  10  13
HETATM   13  C   UNL     1      41.148 -10.698   0.582  1.00  0.00     0.035 A 
HETATM   14  C   UNL     1      41.313  -9.310   0.644  1.00  0.00     0.039 A 
HETATM   15  C   UNL     1      41.490  -8.599  -0.534  1.00  0.00    -0.022 A 
HETATM   16  C   UNL     1      41.495  -9.239  -1.771  1.00  0.00    -0.025 A 
HETATM   17  C   UNL     1      41.751  -7.141  -0.679  1.00  0.00     0.274 C 
HETATM   18  C   UNL     1      41.747  -8.259  -2.864  1.00  0.00     0.273 C 
HETATM   19  C   UNL     1      41.324 -10.612  -1.856  1.00  0.00     0.012 A 
HETATM   20  N   UNL     1      41.768  -6.891  -2.184  1.00  0.00    -0.067 N 
HETATM   21  H   UNL     1      40.872  -6.442  -2.407  1.00  0.00     0.280 HD
HETATM   22  C   UNL     1      42.876  -6.002  -2.633  1.00  0.00     0.270 C 
HETATM   23  C   UNL     1      41.160 -11.340  -0.669  1.00  0.00     0.030 A 
ENDBRANCH  10  13
ENDBRANCH   5   9
BRANCH   3  24
HETATM   24  C   UNL     1      42.571 -16.327   3.974  1.00  0.00     0.097 A 
HETATM   25  C   UNL     1      42.224 -17.137   2.878  1.00  0.00     0.145 A 
HETATM   26  F   UNL     1      41.220 -16.777   2.061  1.00  0.00    -0.204 F 
HETATM   27  C   UNL     1      42.923 -18.307   2.585  1.00  0.00     0.045 A 
HETATM   28  C   UNL     1      43.980 -18.705   3.398  1.00  0.00     0.003 A 
HETATM   29  C   UNL     1      44.324 -17.938   4.512  1.00  0.00     0.002 A 
HETATM   30  C   UNL     1      43.621 -16.764   4.800  1.00  0.00     0.035 A 
ENDBRANCH   3  24
TORSDOF 3
ENDMDL
MODEL 8
REMARK VINA RESULT:      -8.0      3.823      8.768
REMARK  3 active torsions:
REMARK  status: ('A' for Active; 'I' for Inactive)
REMARK    1  A    between atoms: N_3  and  C_4 
REMARK    2  A    between atoms: C_12  and  C_13 
REMARK       I    between atoms: C_13  and  N_14 
REMARK    3  A    between atoms: N_14  and  C_15 
ROOT
HETATM    1  C   UNL     1      39.897 -15.279   0.392  1.00  0.00     0.070 C 
HETATM    2  C   UNL     1      40.800 -14.481   1.304  1.00  0.00     0.036 C 
HETATM    3  N   UNL     1      40.944 -13.094   1.138  1.00  0.00    -0.235 N 
HETATM    4  N   UNL     1      41.751 -12.312   1.935  1.00  0.00    -0.157 NA
HETATM    5  C   UNL     1      42.461 -12.905   2.852  1.00  0.00     0.195 C 
HETATM    6  C   UNL     1      42.473 -14.400   3.011  1.00  0.00     0.209 C 
HETATM    7  O   UNL     1      43.301 -14.953   3.720  1.00  0.00    -0.286 OA
HETATM    8  C   UNL     1      41.508 -15.162   2.218  1.00  0.00     0.084 C 
ENDROOT
BRANCH   5   9
HETATM    9  C   UNL     1      43.317 -12.027   3.736  1.00  0.00     0.280 C 
HETATM   10  N   UNL     1      43.334 -12.424   5.062  1.00  0.00    -0.322 N 
HETATM   11  H   UNL     1      42.973 -13.358   5.245  1.00  0.00     0.169 HD
HETATM   12  O   UNL     1      43.919 -11.089   3.234  1.00  0.00    -0.265 OA
BRANCH  10  13
HETATM   13  C   UNL     1      43.844 -11.675   6.139  1.00  0.00     0.035 A 
HETATM   14  C   UNL     1      43.023 -10.919   6.983  1.00  0.00     0.039 A 
HETATM   15  C   UNL     1      43.590 -10.264   8.065  1.00  0.00    -0.022 A 
HETATM   16  C   UNL     1      44.958 -10.336   8.320  1.00  0.00    -0.025 A 
HETATM   17  C   UNL     1      42.887  -9.474   9.113  1.00  0.00     0.274 C 
HETATM   18  C   UNL     1      45.298  -9.585   9.561  1.00  0.00     0.273 C 
HETATM   19  C   UNL     1      45.790 -11.072   7.492  1.00  0.00     0.012 A 
HETATM   20  N   UNL     1      43.998  -8.909   9.994  1.00  0.00    -0.067 N 
HETATM   21  H   UNL     1      44.086  -7.919   9.739  1.00  0.00     0.280 HD
HETATM   22  C   UNL     1      43.715  -9.007  11.454  1.00  0.00     0.270 C 
HETATM   23  C   UNL     1      45.224 -11.750   6.404  1.00  0.00     0.030 A 
ENDBRANCH  10  13
ENDBRANCH   5   9
BRANCH   3  24
HETATM   24  C   UNL     1      40.306 -12.351   0.100  1.00  0.00     0.097 A 
HETATM   25  C   UNL     1      39.005 -11.848   0.268  1.00  0.00     0.145 A 
HETATM   26  F   UNL     1      38.337 -12.063   1.414  1.00  0.00    -0.204 F 
HETATM   27  C   UNL     1      38.382 -11.090  -0.723  1.00  0.00     0.045 A 
HETATM   28  C   UNL     1      39.048 -10.832  -1.919  1.00  0.00     0.003 A 
HETATM   29  C   UNL     1      40.327 -11.347  -2.124  1.00  0.00     0.002 A 
HETATM   30  C   UNL     1      40.948 -12.106  -1.127  1.00  0.00     0.035 A 
ENDBRANCH   3  24
TORSDOF 3
ENDMDL
MODEL 9
REMARK VINA RESULT:      -8.0      2.796      8.965
REMARK  3 active torsions:
REMARK  status: ('A' for Active; 'I' for Inactive)
REMARK    1  A    between atoms: N_3  and  C_4 
REMARK    2  A    between atoms: C_12  and  C_13 
REMARK       I    between atoms: C_13  and  N_14 
REMARK    3  A    between atoms: N_14  and  C_15 
ROOT
HETATM    1  C   UNL     1      39.977 -16.070   2.211  1.00  0.00     0.070 C 
HETATM    2  C   UNL     1      40.665 -14.884   2.845  1.00  0.00     0.036 C 
HETATM    3  N   UNL     1      41.937 -15.017   3.424  1.00  0.00    -0.235 N 
HETATM    4  N   UNL     1      42.616 -13.976   4.017  1.00  0.00    -0.157 NA
HETATM    5  C   UNL     1      42.017 -12.822   4.095  1.00  0.00     0.195 C 
HETATM    6  C   UNL     1      40.603 -12.624   3.626  1.00  0.00     0.209 C 
HETATM    7  O   UNL     1      39.982 -11.609   3.902  1.00  0.00    -0.286 OA
HETATM    8  C   UNL     1      39.980 -13.731   2.899  1.00  0.00     0.084 C 
ENDROOT
BRANCH   5   9
HETATM    9  C   UNL     1      42.789 -11.684   4.723  1.00  0.00     0.280 C 
HETATM   10  N   UNL     1      42.433 -11.432   6.037  1.00  0.00    -0.322 N 
HETATM   11  H   UNL     1      41.883 -12.158   6.489  1.00  0.00     0.169 HD
HETATM   12  O   UNL     1      43.643 -11.113   4.062  1.00  0.00    -0.265 OA
BRANCH  10  13
HETATM   13  C   UNL     1      42.807 -10.301   6.788  1.00  0.00     0.035 A 
HETATM   14  C   UNL     1      41.991  -9.170   6.897  1.00  0.00     0.039 A 
HETATM   15  C   UNL     1      42.395  -8.123   7.712  1.00  0.00    -0.022 A 
HETATM   16  C   UNL     1      43.599  -8.175   8.412  1.00  0.00    -0.025 A 
HETATM   17  C   UNL     1      41.647  -6.874   8.017  1.00  0.00     0.274 C 
HETATM   18  C   UNL     1      43.771  -6.950   9.243  1.00  0.00     0.273 C 
HETATM   19  C   UNL     1      44.425  -9.282   8.312  1.00  0.00     0.012 A 
HETATM   20  N   UNL     1      42.592  -6.047   8.883  1.00  0.00    -0.067 N 
HETATM   21  H   UNL     1      42.966  -5.312   8.272  1.00  0.00     0.280 HD
HETATM   22  C   UNL     1      41.931  -5.409  10.055  1.00  0.00     0.270 C 
HETATM   23  C   UNL     1      44.018 -10.351   7.502  1.00  0.00     0.030 A 
ENDBRANCH  10  13
ENDBRANCH   5   9
BRANCH   3  24
HETATM   24  C   UNL     1      42.646 -16.253   3.500  1.00  0.00     0.097 A 
HETATM   25  C   UNL     1      43.215 -16.831   2.352  1.00  0.00     0.145 A 
HETATM   26  F   UNL     1      43.096 -16.225   1.158  1.00  0.00    -0.204 F 
HETATM   27  C   UNL     1      43.941 -18.020   2.416  1.00  0.00     0.045 A 
HETATM   28  C   UNL     1      44.101 -18.669   3.637  1.00  0.00     0.003 A 
HETATM   29  C   UNL     1      43.518 -18.135   4.787  1.00  0.00     0.002 A 
HETATM   30  C   UNL     1      42.792 -16.942   4.717  1.00  0.00     0.035 A 
ENDBRANCH   3  24
TORSDOF 3
ENDMDL
MODEL 10
REMARK VINA RESULT:      -8.0      4.842      6.834
REMARK  3 active torsions:
REMARK  status: ('A' for Active; 'I' for Inactive)
REMARK    1  A    between atoms: N_3  and  C_4 
REMARK    2  A    between atoms: C_12  and  C_13 
REMARK       I    between atoms: C_13  and  N_14 
REMARK    3  A    between atoms: N_14  and  C_15 
ROOT
HETATM    1  C   UNL     1      39.212  -8.772   1.420  1.00  0.00     0.070 C 
HETATM    2  C   UNL     1      39.548 -10.204   1.766  1.00  0.00     0.036 C 
HETATM    3  N   UNL     1      39.673 -11.175   0.759  1.00  0.00    -0.235 N 
HETATM    4  N   UNL     1      39.976 -12.495   1.009  1.00  0.00    -0.157 NA
HETATM    5  C   UNL     1      40.093 -12.869   2.251  1.00  0.00     0.195 C 
HETATM    6  C   UNL     1      39.840 -11.929   3.396  1.00  0.00     0.209 C 
HETATM    7  O   UNL     1      39.739 -12.341   4.542  1.00  0.00    -0.286 OA
HETATM    8  C   UNL     1      39.641 -10.517   3.067  1.00  0.00     0.084 C 
ENDROOT
BRANCH   5   9
HETATM    9  C   UNL     1      40.455 -14.315   2.505  1.00  0.00     0.280 C 
HETATM   10  N   UNL     1      41.726 -14.485   3.027  1.00  0.00    -0.322 N 
HETATM   11  H   UNL     1      42.169 -13.642   3.386  1.00  0.00     0.169 HD
HETATM   12  O   UNL     1      39.631 -15.183   2.261  1.00  0.00    -0.265 OA
BRANCH  10  13
HETATM   13  C   UNL     1      42.412 -15.709   3.141  1.00  0.00     0.035 A 
HETATM   14  C   UNL     1      42.656 -16.321   4.375  1.00  0.00     0.039 A 
HETATM   15  C   UNL     1      43.276 -17.560   4.403  1.00  0.00    -0.022 A 
HETATM   16  C   UNL     1      43.669 -18.199   3.229  1.00  0.00    -0.025 A 
HETATM   17  C   UNL     1      43.559 -18.404   5.597  1.00  0.00     0.274 C 
HETATM   18  C   UNL     1      44.267 -19.529   3.533  1.00  0.00     0.273 C 
HETATM   19  C   UNL     1      43.446 -17.608   1.996  1.00  0.00     0.012 A 
HETATM   20  N   UNL     1      44.331 -19.604   5.058  1.00  0.00    -0.067 N 
HETATM   21  H   UNL     1      45.312 -19.448   5.315  1.00  0.00     0.280 HD
HETATM   22  C   UNL     1      43.887 -20.908   5.626  1.00  0.00     0.270 C 
HETATM   23  C   UNL     1      42.805 -16.361   1.958  1.00  0.00     0.030 A 
ENDBRANCH  10  13
ENDBRANCH   5   9
BRANCH   3  24
HETATM   24  C   UNL     1      39.457 -10.911  -0.626  1.00  0.00     0.097 A 
HETATM   25  C   UNL     1      38.184 -11.067  -1.202  1.00  0.00     0.145 A 
HETATM   26  F   UNL     1      37.146 -11.473  -0.451  1.00  0.00    -0.204 F 
HETATM   27  C   UNL     1      37.951 -10.778  -2.546  1.00  0.00     0.045 A 
HETATM   28  C   UNL     1      38.997 -10.340  -3.352  1.00  0.00     0.003 A 
HETATM   29  C   UNL     1      40.277 -10.208  -2.815  1.00  0.00     0.002 A 
HETATM   30  C   UNL     1      40.506 -10.498  -1.466  1.00  0.00     0.035 A 
ENDBRANCH   3  24
TORSDOF 3
ENDMDL
