MODEL 1
REMARK VINA RESULT:      -8.9      0.000      0.000
REMARK  9 active torsions:
REMARK  status: ('A' for Active; 'I' for Inactive)
REMARK    1  A    between atoms: C_7  and  C_8 
REMARK    2  A    between atoms: C_9  and  O_10 
REMARK    3  A    between atoms: C_12  and  N_13 
REMARK    4  A    between atoms: N_13  and  C_14 
REMARK    5  A    between atoms: C_14  and  N_15 
REMARK       I    between atoms: N_15  and  C_16 
REMARK    6  A    between atoms: C_16  and  C_17 
REMARK    7  A    between atoms: C_19  and  O_20 
REMARK    8  A    between atoms: O_20  and  C_21 
REMARK    9  A    between atoms: C_21  and  C_22 
ROOT
HETATM    1  N   UNL     1      40.667 -11.605   1.473  1.00  0.00    -0.337 N 
HETATM    2  H   UNL     1      41.234 -11.371   0.664  1.00  0.00     0.168 HD
ENDROOT
BRANCH   1   3
HETATM    3  C   UNL     1      41.248 -11.249   2.707  1.00  0.00     0.036 A 
HETATM    4  C   UNL     1      42.624 -11.458   2.843  1.00  0.00     0.067 A 
HETATM    5  C   UNL     1      43.271 -11.191   4.052  1.00  0.00     0.082 A 
HETATM    6  C   UNL     1      42.561 -10.731   5.171  1.00  0.00     0.050 A 
HETATM    7  C   UNL     1      41.175 -10.538   5.023  1.00  0.00     0.021 A 
HETATM    8  C   UNL     1      40.525 -10.792   3.806  1.00  0.00     0.030 A 
BRANCH   5   9
HETATM    9  O   UNL     1      44.623 -11.427   4.047  1.00  0.00    -0.360 OA
HETATM   10  H   UNL     1      44.773 -12.368   3.841  1.00  0.00     0.217 HD
ENDBRANCH   5   9
BRANCH   6  11
HETATM   11  C   UNL     1      43.170 -10.466   6.473  1.00  0.00     0.183 A 
HETATM   12  N   UNL     1      44.405 -10.702   6.882  1.00  0.00    -0.221 NA
HETATM   13  C   UNL     1      44.418 -10.242   8.175  1.00  0.00     0.093 A 
HETATM   14  C   UNL     1      43.172  -9.743   8.510  1.00  0.00     0.107 A 
HETATM   15  C   UNL     1      45.438 -10.209   9.133  1.00  0.00     0.035 A 
HETATM   16  C   UNL     1      42.837  -9.202   9.745  1.00  0.00     0.046 A 
HETATM   17  O   UNL     1      42.362  -9.881   7.422  1.00  0.00    -0.289 OA
HETATM   18  C   UNL     1      43.865  -9.164  10.703  1.00  0.00    -0.059 A 
HETATM   19  C   UNL     1      43.594  -8.622  12.078  1.00  0.00     0.048 C 
HETATM   20  C   UNL     1      45.143  -9.668  10.396  1.00  0.00     0.009 A 
ENDBRANCH   6  11
ENDBRANCH   1   3
BRANCH   1  21
HETATM   21  C   UNL     1      39.644 -12.437   1.191  1.00  0.00     0.157 C 
HETATM   22  S   UNL     1      38.436 -11.910   0.156  1.00  0.00    -0.047 SA
BRANCH  21  23
HETATM   23  N   UNL     1      39.484 -13.656   1.770  1.00  0.00    -0.201 NA
HETATM   24  C   UNL     1      40.072 -14.799   1.241  1.00  0.00     0.237 C 
HETATM   25  O   UNL     1      39.833 -15.284   0.141  1.00  0.00    -0.274 OA
HETATM   26  H   UNL     1      39.666 -13.525   2.754  1.00  0.00     0.139 HD
BRANCH  24  27
HETATM   27  C   UNL     1      41.057 -15.499   2.118  1.00  0.00     0.029 A 
HETATM   28  C   UNL     1      40.790 -15.842   3.454  1.00  0.00     0.053 A 
HETATM   29  C   UNL     1      41.794 -16.421   4.234  1.00  0.00     0.069 A 
HETATM   30  C   UNL     1      43.042 -16.697   3.665  1.00  0.00     0.037 A 
HETATM   31  C   UNL     1      43.300 -16.389   2.332  1.00  0.00     0.004 A 
HETATM   32  C   UNL     1      42.309 -15.790   1.560  1.00  0.00     0.017 A 
BRANCH  29  33
HETATM   33  O   UNL     1      41.692 -16.769   5.552  1.00  0.00    -0.351 OA
BRANCH  33  34
HETATM   34  C   UNL     1      41.359 -15.744   6.488  1.00  0.00     0.179 C 
BRANCH  34  35
HETATM   35  C   UNL     1      42.613 -15.348   7.286  1.00  0.00     0.002 C 
HETATM   36  C   UNL     1      43.561 -16.533   7.474  1.00  0.00     0.011 C 
HETATM   37  C   UNL     1      43.352 -14.192   6.607  1.00  0.00     0.011 C 
ENDBRANCH  34  35
ENDBRANCH  33  34
ENDBRANCH  29  33
ENDBRANCH  24  27
ENDBRANCH  21  23
ENDBRANCH   1  21
TORSDOF 9
ENDMDL
MODEL 2
REMARK VINA RESULT:      -8.7      1.182      2.089
REMARK  9 active torsions:
REMARK  status: ('A' for Active; 'I' for Inactive)
REMARK    1  A    between atoms: C_7  and  C_8 
REMARK    2  A    between atoms: C_9  and  O_10 
REMARK    3  A    between atoms: C_12  and  N_13 
REMARK    4  A    between atoms: N_13  and  C_14 
REMARK    5  A    between atoms: C_14  and  N_15 
REMARK       I    between atoms: N_15  and  C_16 
REMARK    6  A    between atoms: C_16  and  C_17 
REMARK    7  A    between atoms: C_19  and  O_20 
REMARK    8  A    between atoms: O_20  and  C_21 
REMARK    9  A    between atoms: C_21  and  C_22 
ROOT
HETATM    1  N   UNL     1      40.461 -11.605   1.487  1.00  0.00    -0.337 N 
HETATM    2  H   UNL     1      40.749 -11.034   0.699  1.00  0.00     0.168 HD
ENDROOT
BRANCH   1   3
HETATM    3  C   UNL     1      41.068 -11.251   2.709  1.00  0.00     0.036 A 
HETATM    4  C   UNL     1      42.446 -11.458   2.815  1.00  0.00     0.067 A 
HETATM    5  C   UNL     1      43.119 -11.193   4.011  1.00  0.00     0.082 A 
HETATM    6  C   UNL     1      42.432 -10.737   5.145  1.00  0.00     0.050 A 
HETATM    7  C   UNL     1      41.043 -10.548   5.029  1.00  0.00     0.021 A 
HETATM    8  C   UNL     1      40.367 -10.800   3.825  1.00  0.00     0.030 A 
BRANCH   5   9
HETATM    9  O   UNL     1      44.471 -11.425   3.976  1.00  0.00    -0.360 OA
HETATM   10  H   UNL     1      44.897 -10.701   3.480  1.00  0.00     0.217 HD
ENDBRANCH   5   9
BRANCH   6  11
HETATM   11  C   UNL     1      43.068 -10.474   6.435  1.00  0.00     0.183 A 
HETATM   12  N   UNL     1      44.305 -10.733   6.826  1.00  0.00    -0.221 NA
HETATM   13  C   UNL     1      44.350 -10.262   8.114  1.00  0.00     0.093 A 
HETATM   14  C   UNL     1      43.121  -9.734   8.465  1.00  0.00     0.107 A 
HETATM   15  C   UNL     1      45.386 -10.243   9.054  1.00  0.00     0.035 A 
HETATM   16  C   UNL     1      42.818  -9.176   9.701  1.00  0.00     0.046 A 
HETATM   17  O   UNL     1      42.289  -9.864   7.392  1.00  0.00    -0.289 OA
HETATM   18  C   UNL     1      43.862  -9.152  10.641  1.00  0.00    -0.059 A 
HETATM   19  C   UNL     1      43.626  -8.593  12.016  1.00  0.00     0.048 C 
HETATM   20  C   UNL     1      45.124  -9.686  10.317  1.00  0.00     0.009 A 
ENDBRANCH   6  11
ENDBRANCH   1   3
BRANCH   1  21
HETATM   21  C   UNL     1      39.796 -12.722   1.127  1.00  0.00     0.157 C 
HETATM   22  S   UNL     1      39.305 -12.891  -0.466  1.00  0.00    -0.047 SA
BRANCH  21  23
HETATM   23  N   UNL     1      39.416 -13.688   2.005  1.00  0.00    -0.201 NA
HETATM   24  C   UNL     1      40.121 -14.880   2.129  1.00  0.00     0.237 C 
HETATM   25  O   UNL     1      40.261 -15.724   1.252  1.00  0.00    -0.274 OA
HETATM   26  H   UNL     1      39.254 -13.220   2.884  1.00  0.00     0.139 HD
BRANCH  24  27
HETATM   27  C   UNL     1      40.728 -15.150   3.466  1.00  0.00     0.029 A 
HETATM   28  C   UNL     1      41.567 -16.246   3.724  1.00  0.00     0.053 A 
HETATM   29  C   UNL     1      42.028 -16.475   5.023  1.00  0.00     0.069 A 
HETATM   30  C   UNL     1      41.686 -15.586   6.047  1.00  0.00     0.037 A 
HETATM   31  C   UNL     1      40.881 -14.479   5.789  1.00  0.00     0.004 A 
HETATM   32  C   UNL     1      40.401 -14.262   4.501  1.00  0.00     0.017 A 
BRANCH  29  33
HETATM   33  O   UNL     1      42.814 -17.517   5.427  1.00  0.00    -0.351 OA
BRANCH  33  34
HETATM   34  C   UNL     1      44.163 -17.555   4.961  1.00  0.00     0.179 C 
BRANCH  34  35
HETATM   35  C   UNL     1      44.463 -18.940   4.363  1.00  0.00     0.002 C 
HETATM   36  C   UNL     1      43.964 -20.067   5.268  1.00  0.00     0.011 C 
HETATM   37  C   UNL     1      43.846 -19.080   2.969  1.00  0.00     0.011 C 
ENDBRANCH  34  35
ENDBRANCH  33  34
ENDBRANCH  29  33
ENDBRANCH  24  27
ENDBRANCH  21  23
ENDBRANCH   1  21
TORSDOF 9
ENDMDL
MODEL 3
REMARK VINA RESULT:      -8.7      2.570      7.366
REMARK  9 active torsions:
REMARK  status: ('A' for Active; 'I' for Inactive)
REMARK    1  A    between atoms: C_7  and  C_8 
REMARK    2  A    between atoms: C_9  and  O_10 
REMARK    3  A    between atoms: C_12  and  N_13 
REMARK    4  A    between atoms: N_13  and  C_14 
REMARK    5  A    between atoms: C_14  and  N_15 
REMARK       I    between atoms: N_15  and  C_16 
REMARK    6  A    between atoms: C_16  and  C_17 
REMARK    7  A    between atoms: C_19  and  O_20 
REMARK    8  A    between atoms: O_20  and  C_21 
REMARK    9  A    between atoms: C_21  and  C_22 
ROOT
HETATM    1  N   UNL     1      38.406 -10.522   4.407  1.00  0.00    -0.337 N 
HETATM    2  H   UNL     1      37.432 -10.665   4.654  1.00  0.00     0.168 HD
ENDROOT
BRANCH   1   3
HETATM    3  C   UNL     1      39.147 -11.713   4.270  1.00  0.00     0.036 A 
HETATM    4  C   UNL     1      39.494 -12.382   5.448  1.00  0.00     0.067 A 
HETATM    5  C   UNL     1      40.280 -13.537   5.409  1.00  0.00     0.082 A 
HETATM    6  C   UNL     1      40.764 -14.045   4.194  1.00  0.00     0.050 A 
HETATM    7  C   UNL     1      40.419 -13.354   3.019  1.00  0.00     0.021 A 
HETATM    8  C   UNL     1      39.619 -12.202   3.054  1.00  0.00     0.030 A 
BRANCH   5   9
HETATM    9  O   UNL     1      40.536 -14.102   6.632  1.00  0.00    -0.360 OA
HETATM   10  H   UNL     1      41.491 -14.029   6.814  1.00  0.00     0.217 HD
ENDBRANCH   5   9
BRANCH   6  11
HETATM   11  C   UNL     1      41.619 -15.227   4.086  1.00  0.00     0.183 A 
HETATM   12  N   UNL     1      42.575 -15.645   4.899  1.00  0.00    -0.221 NA
HETATM   13  C   UNL     1      43.022 -16.803   4.314  1.00  0.00     0.093 A 
HETATM   14  C   UNL     1      42.316 -17.045   3.149  1.00  0.00     0.107 A 
HETATM   15  C   UNL     1      44.018 -17.707   4.700  1.00  0.00     0.035 A 
HETATM   16  C   UNL     1      42.518 -18.132   2.307  1.00  0.00     0.046 A 
HETATM   17  O   UNL     1      41.410 -16.038   2.994  1.00  0.00    -0.289 OA
HETATM   18  C   UNL     1      43.515 -19.041   2.701  1.00  0.00    -0.059 A 
HETATM   19  C   UNL     1      43.827 -20.235   1.843  1.00  0.00     0.048 C 
HETATM   20  C   UNL     1      44.254 -18.822   3.879  1.00  0.00     0.009 A 
ENDBRANCH   6  11
ENDBRANCH   1   3
BRANCH   1  21
HETATM   21  C   UNL     1      38.814  -9.244   4.544  1.00  0.00     0.157 C 
HETATM   22  S   UNL     1      37.671  -8.020   4.481  1.00  0.00    -0.047 SA
BRANCH  21  23
HETATM   23  N   UNL     1      40.119  -8.877   4.642  1.00  0.00    -0.201 NA
HETATM   24  C   UNL     1      40.811  -8.954   5.846  1.00  0.00     0.237 C 
HETATM   25  O   UNL     1      40.551  -8.322   6.863  1.00  0.00    -0.274 OA
HETATM   26  H   UNL     1      40.595  -9.324   3.872  1.00  0.00     0.139 HD
BRANCH  24  27
HETATM   27  C   UNL     1      41.989  -9.870   5.870  1.00  0.00     0.029 A 
HETATM   28  C   UNL     1      42.686 -10.197   7.045  1.00  0.00     0.053 A 
HETATM   29  C   UNL     1      43.830 -10.996   6.972  1.00  0.00     0.069 A 
HETATM   30  C   UNL     1      44.246 -11.500   5.735  1.00  0.00     0.037 A 
HETATM   31  C   UNL     1      43.539 -11.206   4.572  1.00  0.00     0.004 A 
HETATM   32  C   UNL     1      42.413 -10.390   4.639  1.00  0.00     0.017 A 
BRANCH  29  33
HETATM   33  O   UNL     1      44.626 -11.362   8.020  1.00  0.00    -0.351 OA
BRANCH  33  34
HETATM   34  C   UNL     1      45.850 -10.651   8.209  1.00  0.00     0.179 C 
BRANCH  34  35
HETATM   35  C   UNL     1      45.671  -9.604   9.322  1.00  0.00     0.002 C 
HETATM   36  C   UNL     1      45.117  -8.287   8.776  1.00  0.00     0.011 C 
HETATM   37  C   UNL     1      44.759 -10.133  10.431  1.00  0.00     0.011 C 
ENDBRANCH  34  35
ENDBRANCH  33  34
ENDBRANCH  29  33
ENDBRANCH  24  27
ENDBRANCH  21  23
ENDBRANCH   1  21
TORSDOF 9
ENDMDL
MODEL 4
REMARK VINA RESULT:      -8.6      3.300      8.992
REMARK  9 active torsions:
REMARK  status: ('A' for Active; 'I' for Inactive)
REMARK    1  A    between atoms: C_7  and  C_8 
REMARK    2  A    between atoms: C_9  and  O_10 
REMARK    3  A    between atoms: C_12  and  N_13 
REMARK    4  A    between atoms: N_13  and  C_14 
REMARK    5  A    between atoms: C_14  and  N_15 
REMARK       I    between atoms: N_15  and  C_16 
REMARK    6  A    between atoms: C_16  and  C_17 
REMARK    7  A    between atoms: C_19  and  O_20 
REMARK    8  A    between atoms: O_20  and  C_21 
REMARK    9  A    between atoms: C_21  and  C_22 
ROOT
HETATM    1  N   UNL     1      41.787 -10.488   7.035  1.00  0.00    -0.337 N 
HETATM    2  H   UNL     1      42.404 -10.127   7.755  1.00  0.00     0.168 HD
ENDROOT
BRANCH   1   3
HETATM    3  C   UNL     1      42.160 -11.753   6.537  1.00  0.00     0.036 A 
HETATM    4  C   UNL     1      41.157 -12.518   5.934  1.00  0.00     0.067 A 
HETATM    5  C   UNL     1      41.424 -13.808   5.468  1.00  0.00     0.082 A 
HETATM    6  C   UNL     1      42.695 -14.384   5.614  1.00  0.00     0.050 A 
HETATM    7  C   UNL     1      43.690 -13.609   6.236  1.00  0.00     0.021 A 
HETATM    8  C   UNL     1      43.428 -12.308   6.692  1.00  0.00     0.030 A 
BRANCH   5   9
HETATM    9  O   UNL     1      40.358 -14.443   4.885  1.00  0.00    -0.360 OA
HETATM   10  H   UNL     1      39.873 -14.934   5.575  1.00  0.00     0.217 HD
ENDBRANCH   5   9
BRANCH   6  11
HETATM   11  C   UNL     1      43.032 -15.740   5.181  1.00  0.00     0.183 A 
HETATM   12  N   UNL     1      43.550 -16.735   5.880  1.00  0.00    -0.221 NA
HETATM   13  C   UNL     1      43.636 -17.764   4.975  1.00  0.00     0.093 A 
HETATM   14  C   UNL     1      43.167 -17.346   3.743  1.00  0.00     0.107 A 
HETATM   15  C   UNL     1      44.098 -19.078   5.112  1.00  0.00     0.035 A 
HETATM   16  C   UNL     1      43.117 -18.137   2.601  1.00  0.00     0.046 A 
HETATM   17  O   UNL     1      42.774 -16.046   3.865  1.00  0.00    -0.289 OA
HETATM   18  C   UNL     1      43.575 -19.458   2.743  1.00  0.00    -0.059 A 
HETATM   19  C   UNL     1      43.585 -20.383   1.559  1.00  0.00     0.048 C 
HETATM   20  C   UNL     1      44.063 -19.913   3.983  1.00  0.00     0.009 A 
ENDBRANCH   6  11
ENDBRANCH   1   3
BRANCH   1  21
HETATM   21  C   UNL     1      40.939  -9.563   6.539  1.00  0.00     0.157 C 
HETATM   22  S   UNL     1      41.239  -8.926   5.019  1.00  0.00    -0.047 SA
BRANCH  21  23
HETATM   23  N   UNL     1      39.897  -9.046   7.240  1.00  0.00    -0.201 NA
HETATM   24  C   UNL     1      39.296  -9.746   8.280  1.00  0.00     0.237 C 
HETATM   25  O   UNL     1      38.703 -10.814   8.177  1.00  0.00    -0.274 OA
HETATM   26  H   UNL     1      40.164  -8.105   7.487  1.00  0.00     0.139 HD
BRANCH  24  27
HETATM   27  C   UNL     1      39.364  -9.109   9.629  1.00  0.00     0.029 A 
HETATM   28  C   UNL     1      40.037  -9.684  10.719  1.00  0.00     0.053 A 
HETATM   29  C   UNL     1      39.984  -9.065  11.971  1.00  0.00     0.069 A 
HETATM   30  C   UNL     1      39.299  -7.855  12.117  1.00  0.00     0.037 A 
HETATM   31  C   UNL     1      38.659  -7.264  11.031  1.00  0.00     0.004 A 
HETATM   32  C   UNL     1      38.689  -7.891   9.789  1.00  0.00     0.017 A 
BRANCH  29  33
HETATM   33  O   UNL     1      40.554  -9.528  13.123  1.00  0.00    -0.351 OA
BRANCH  33  34
HETATM   34  C   UNL     1      41.976  -9.643  13.163  1.00  0.00     0.179 C 
BRANCH  34  35
HETATM   35  C   UNL     1      42.615  -8.338  12.659  1.00  0.00     0.002 C 
HETATM   36  C   UNL     1      43.178  -7.503  13.809  1.00  0.00     0.011 C 
HETATM   37  C   UNL     1      43.716  -8.626  11.635  1.00  0.00     0.011 C 
ENDBRANCH  34  35
ENDBRANCH  33  34
ENDBRANCH  29  33
ENDBRANCH  24  27
ENDBRANCH  21  23
ENDBRANCH   1  21
TORSDOF 9
ENDMDL
MODEL 5
REMARK VINA RESULT:      -8.5      2.696      7.830
REMARK  9 active torsions:
REMARK  status: ('A' for Active; 'I' for Inactive)
REMARK    1  A    between atoms: C_7  and  C_8 
REMARK    2  A    between atoms: C_9  and  O_10 
REMARK    3  A    between atoms: C_12  and  N_13 
REMARK    4  A    between atoms: N_13  and  C_14 
REMARK    5  A    between atoms: C_14  and  N_15 
REMARK       I    between atoms: N_15  and  C_16 
REMARK    6  A    between atoms: C_16  and  C_17 
REMARK    7  A    between atoms: C_19  and  O_20 
REMARK    8  A    between atoms: O_20  and  C_21 
REMARK    9  A    between atoms: C_21  and  C_22 
ROOT
HETATM    1  N   UNL     1      41.827  -9.386   4.217  1.00  0.00    -0.337 N 
HETATM    2  H   UNL     1      42.594  -8.798   3.904  1.00  0.00     0.168 HD
ENDROOT
BRANCH   1   3
HETATM    3  C   UNL     1      42.084 -10.768   4.118  1.00  0.00     0.036 A 
HETATM    4  C   UNL     1      41.814 -11.546   5.248  1.00  0.00     0.067 A 
HETATM    5  C   UNL     1      42.096 -12.914   5.258  1.00  0.00     0.082 A 
HETATM    6  C   UNL     1      42.681 -13.544   4.150  1.00  0.00     0.050 A 
HETATM    7  C   UNL     1      42.961 -12.746   3.025  1.00  0.00     0.021 A 
HETATM    8  C   UNL     1      42.666 -11.375   3.007  1.00  0.00     0.030 A 
BRANCH   5   9
HETATM    9  O   UNL     1      41.770 -13.562   6.423  1.00  0.00    -0.360 OA
HETATM   10  H   UNL     1      42.169 -14.451   6.406  1.00  0.00     0.217 HD
ENDBRANCH   5   9
BRANCH   6  11
HETATM   11  C   UNL     1      43.034 -14.962   4.107  1.00  0.00     0.183 A 
HETATM   12  N   UNL     1      43.565 -15.720   5.052  1.00  0.00    -0.221 NA
HETATM   13  C   UNL     1      43.662 -16.957   4.467  1.00  0.00     0.093 A 
HETATM   14  C   UNL     1      43.187 -16.902   3.169  1.00  0.00     0.107 A 
HETATM   15  C   UNL     1      44.140 -18.177   4.960  1.00  0.00     0.035 A 
HETATM   16  C   UNL     1      43.146 -17.978   2.290  1.00  0.00     0.046 A 
HETATM   17  O   UNL     1      42.779 -15.624   2.928  1.00  0.00    -0.289 OA
HETATM   18  C   UNL     1      43.620 -19.203   2.790  1.00  0.00    -0.059 A 
HETATM   19  C   UNL     1      43.641 -20.420   1.909  1.00  0.00     0.048 C 
HETATM   20  C   UNL     1      44.114 -19.292   4.106  1.00  0.00     0.009 A 
ENDBRANCH   6  11
ENDBRANCH   1   3
BRANCH   1  21
HETATM   21  C   UNL     1      40.668  -8.717   4.382  1.00  0.00     0.157 C 
HETATM   22  S   UNL     1      39.686  -8.462   3.048  1.00  0.00    -0.047 SA
BRANCH  21  23
HETATM   23  N   UNL     1      40.285  -8.153   5.558  1.00  0.00    -0.201 NA
HETATM   24  C   UNL     1      39.663  -8.895   6.555  1.00  0.00     0.237 C 
HETATM   25  O   UNL     1      38.574  -9.450   6.461  1.00  0.00    -0.274 OA
HETATM   26  H   UNL     1      41.078  -7.620   5.884  1.00  0.00     0.139 HD
BRANCH  24  27
HETATM   27  C   UNL     1      40.386  -8.985   7.858  1.00  0.00     0.029 A 
HETATM   28  C   UNL     1      41.786  -8.935   7.966  1.00  0.00     0.053 A 
HETATM   29  C   UNL     1      42.391  -9.110   9.213  1.00  0.00     0.069 A 
HETATM   30  C   UNL     1      41.596  -9.288  10.350  1.00  0.00     0.037 A 
HETATM   31  C   UNL     1      40.207  -9.304  10.253  1.00  0.00     0.004 A 
HETATM   32  C   UNL     1      39.603  -9.155   9.008  1.00  0.00     0.017 A 
BRANCH  29  33
HETATM   33  O   UNL     1      43.734  -9.125   9.462  1.00  0.00    -0.351 OA
BRANCH  33  34
HETATM   34  C   UNL     1      44.373 -10.394   9.597  1.00  0.00     0.179 C 
BRANCH  34  35
HETATM   35  C   UNL     1      45.480 -10.529   8.537  1.00  0.00     0.002 C 
HETATM   36  C   UNL     1      44.982 -11.258   7.289  1.00  0.00     0.011 C 
HETATM   37  C   UNL     1      46.040  -9.158   8.152  1.00  0.00     0.011 C 
ENDBRANCH  34  35
ENDBRANCH  33  34
ENDBRANCH  29  33
ENDBRANCH  24  27
ENDBRANCH  21  23
ENDBRANCH   1  21
TORSDOF 9
ENDMDL
MODEL 6
REMARK VINA RESULT:      -8.4      3.605      7.423
REMARK  9 active torsions:
REMARK  status: ('A' for Active; 'I' for Inactive)
REMARK    1  A    between atoms: C_7  and  C_8 
REMARK    2  A    between atoms: C_9  and  O_10 
REMARK    3  A    between atoms: C_12  and  N_13 
REMARK    4  A    between atoms: N_13  and  C_14 
REMARK    5  A    between atoms: C_14  and  N_15 
REMARK       I    between atoms: N_15  and  C_16 
REMARK    6  A    between atoms: C_16  and  C_17 
REMARK    7  A    between atoms: C_19  and  O_20 
REMARK    8  A    between atoms: O_20  and  C_21 
REMARK    9  A    between atoms: C_21  and  C_22 
ROOT
HETATM    1  N   UNL     1      42.046  -9.397   4.367  1.00  0.00    -0.337 N 
HETATM    2  H   UNL     1      42.894  -8.845   4.452  1.00  0.00     0.168 HD
ENDROOT
BRANCH   1   3
HETATM    3  C   UNL     1      42.272 -10.783   4.242  1.00  0.00     0.036 A 
HETATM    4  C   UNL     1      41.888 -11.588   5.319  1.00  0.00     0.067 A 
HETATM    5  C   UNL     1      42.131 -12.964   5.306  1.00  0.00     0.082 A 
HETATM    6  C   UNL     1      42.788 -13.575   4.227  1.00  0.00     0.050 A 
HETATM    7  C   UNL     1      43.181 -12.751   3.157  1.00  0.00     0.021 A 
HETATM    8  C   UNL     1      42.926 -11.371   3.162  1.00  0.00     0.030 A 
BRANCH   5   9
HETATM    9  O   UNL     1      41.692 -13.638   6.417  1.00  0.00    -0.360 OA
HETATM   10  H   UNL     1      41.264 -13.000   7.018  1.00  0.00     0.217 HD
ENDBRANCH   5   9
BRANCH   6  11
HETATM   11  C   UNL     1      43.104 -15.001   4.166  1.00  0.00     0.183 A 
HETATM   12  N   UNL     1      43.590 -15.791   5.108  1.00  0.00    -0.221 NA
HETATM   13  C   UNL     1      43.669 -17.019   4.501  1.00  0.00     0.093 A 
HETATM   14  C   UNL     1      43.229 -16.927   3.193  1.00  0.00     0.107 A 
HETATM   15  C   UNL     1      44.101 -18.261   4.981  1.00  0.00     0.035 A 
HETATM   16  C   UNL     1      43.181 -17.984   2.292  1.00  0.00     0.046 A 
HETATM   17  O   UNL     1      42.861 -15.633   2.967  1.00  0.00    -0.289 OA
HETATM   18  C   UNL     1      43.609 -19.230   2.779  1.00  0.00    -0.059 A 
HETATM   19  C   UNL     1      43.620 -20.430   1.874  1.00  0.00     0.048 C 
HETATM   20  C   UNL     1      44.068 -19.358   4.104  1.00  0.00     0.009 A 
ENDBRANCH   6  11
ENDBRANCH   1   3
BRANCH   1  21
HETATM   21  C   UNL     1      40.946  -8.660   4.115  1.00  0.00     0.157 C 
HETATM   22  S   UNL     1      40.388  -7.612   5.297  1.00  0.00    -0.047 SA
BRANCH  21  23
HETATM   23  N   UNL     1      40.202  -8.780   2.984  1.00  0.00    -0.201 NA
HETATM   24  C   UNL     1      40.565  -8.149   1.799  1.00  0.00     0.237 C 
HETATM   25  O   UNL     1      40.640  -6.938   1.627  1.00  0.00    -0.274 OA
HETATM   26  H   UNL     1      40.013  -9.766   2.876  1.00  0.00     0.139 HD
BRANCH  24  27
HETATM   27  C   UNL     1      40.856  -9.042   0.639  1.00  0.00     0.029 A 
HETATM   28  C   UNL     1      40.414 -10.373   0.563  1.00  0.00     0.053 A 
HETATM   29  C   UNL     1      40.798 -11.170  -0.519  1.00  0.00     0.069 A 
HETATM   30  C   UNL     1      41.582 -10.622  -1.539  1.00  0.00     0.037 A 
HETATM   31  C   UNL     1      41.995  -9.293  -1.484  1.00  0.00     0.004 A 
HETATM   32  C   UNL     1      41.634  -8.505  -0.396  1.00  0.00     0.017 A 
BRANCH  29  33
HETATM   33  O   UNL     1      40.478 -12.485  -0.705  1.00  0.00    -0.351 OA
BRANCH  33  34
HETATM   34  C   UNL     1      39.473 -13.052   0.135  1.00  0.00     0.179 C 
BRANCH  34  35
HETATM   35  C   UNL     1      40.138 -13.871   1.255  1.00  0.00     0.002 C 
HETATM   36  C   UNL     1      39.543 -13.543   2.625  1.00  0.00     0.011 C 
HETATM   37  C   UNL     1      40.018 -15.372   0.980  1.00  0.00     0.011 C 
ENDBRANCH  34  35
ENDBRANCH  33  34
ENDBRANCH  29  33
ENDBRANCH  24  27
ENDBRANCH  21  23
ENDBRANCH   1  21
TORSDOF 9
ENDMDL
MODEL 7
REMARK VINA RESULT:      -8.2      2.735      8.526
REMARK  9 active torsions:
REMARK  status: ('A' for Active; 'I' for Inactive)
REMARK    1  A    between atoms: C_7  and  C_8 
REMARK    2  A    between atoms: C_9  and  O_10 
REMARK    3  A    between atoms: C_12  and  N_13 
REMARK    4  A    between atoms: N_13  and  C_14 
REMARK    5  A    between atoms: C_14  and  N_15 
REMARK       I    between atoms: N_15  and  C_16 
REMARK    6  A    between atoms: C_16  and  C_17 
REMARK    7  A    between atoms: C_19  and  O_20 
REMARK    8  A    between atoms: O_20  and  C_21 
REMARK    9  A    between atoms: C_21  and  C_22 
ROOT
HETATM    1  N   UNL     1      42.095  -9.471   4.621  1.00  0.00    -0.337 N 
HETATM    2  H   UNL     1      42.695  -8.900   4.034  1.00  0.00     0.168 HD
ENDROOT
BRANCH   1   3
HETATM    3  C   UNL     1      42.294 -10.859   4.471  1.00  0.00     0.036 A 
HETATM    4  C   UNL     1      42.057 -11.658   5.593  1.00  0.00     0.067 A 
HETATM    5  C   UNL     1      42.288 -13.035   5.551  1.00  0.00     0.082 A 
HETATM    6  C   UNL     1      42.788 -13.653   4.396  1.00  0.00     0.050 A 
HETATM    7  C   UNL     1      43.036 -12.835   3.279  1.00  0.00     0.021 A 
HETATM    8  C   UNL     1      42.792 -11.453   3.314  1.00  0.00     0.030 A 
BRANCH   5   9
HETATM    9  O   UNL     1      42.001 -13.704   6.714  1.00  0.00    -0.360 OA
HETATM   10  H   UNL     1      41.825 -14.639   6.500  1.00  0.00     0.217 HD
ENDBRANCH   5   9
BRANCH   6  11
HETATM   11  C   UNL     1      43.085 -15.082   4.296  1.00  0.00     0.183 A 
HETATM   12  N   UNL     1      43.533 -15.909   5.225  1.00  0.00    -0.221 NA
HETATM   13  C   UNL     1      43.611 -17.118   4.581  1.00  0.00     0.093 A 
HETATM   14  C   UNL     1      43.209 -16.977   3.265  1.00  0.00     0.107 A 
HETATM   15  C   UNL     1      44.012 -18.381   5.032  1.00  0.00     0.035 A 
HETATM   16  C   UNL     1      43.170 -18.004   2.329  1.00  0.00     0.046 A 
HETATM   17  O   UNL     1      42.866 -15.671   3.072  1.00  0.00    -0.289 OA
HETATM   18  C   UNL     1      43.567 -19.272   2.787  1.00  0.00    -0.059 A 
HETATM   19  C   UNL     1      43.585 -20.442   1.844  1.00  0.00     0.048 C 
HETATM   20  C   UNL     1      43.987 -19.449   4.119  1.00  0.00     0.009 A 
ENDBRANCH   6  11
ENDBRANCH   1   3
BRANCH   1  21
HETATM   21  C   UNL     1      41.079  -8.784   5.182  1.00  0.00     0.157 C 
HETATM   22  S   UNL     1      39.679  -8.543   4.292  1.00  0.00    -0.047 SA
BRANCH  21  23
HETATM   23  N   UNL     1      41.154  -8.193   6.403  1.00  0.00    -0.201 NA
HETATM   24  C   UNL     1      40.871  -8.891   7.572  1.00  0.00     0.237 C 
HETATM   25  O   UNL     1      39.788  -9.381   7.870  1.00  0.00    -0.274 OA
HETATM   26  H   UNL     1      42.038  -7.707   6.426  1.00  0.00     0.139 HD
BRANCH  24  27
HETATM   27  C   UNL     1      41.992  -9.018   8.550  1.00  0.00     0.029 A 
HETATM   28  C   UNL     1      41.796  -9.288   9.915  1.00  0.00     0.053 A 
HETATM   29  C   UNL     1      42.892  -9.309  10.781  1.00  0.00     0.069 A 
HETATM   30  C   UNL     1      44.179  -9.105  10.275  1.00  0.00     0.037 A 
HETATM   31  C   UNL     1      44.382  -8.870   8.917  1.00  0.00     0.004 A 
HETATM   32  C   UNL     1      43.289  -8.824   8.057  1.00  0.00     0.017 A 
BRANCH  29  33
HETATM   33  O   UNL     1      42.848  -9.518  12.130  1.00  0.00    -0.351 OA
BRANCH  33  34
HETATM   34  C   UNL     1      41.830  -8.852  12.876  1.00  0.00     0.179 C 
BRANCH  34  35
HETATM   35  C   UNL     1      42.406  -8.371  14.220  1.00  0.00     0.002 C 
HETATM   36  C   UNL     1      43.200  -7.074  14.063  1.00  0.00     0.011 C 
HETATM   37  C   UNL     1      41.295  -8.180  15.255  1.00  0.00     0.011 C 
ENDBRANCH  34  35
ENDBRANCH  33  34
ENDBRANCH  29  33
ENDBRANCH  24  27
ENDBRANCH  21  23
ENDBRANCH   1  21
TORSDOF 9
ENDMDL
MODEL 8
REMARK VINA RESULT:      -8.2      3.679      6.709
REMARK  9 active torsions:
REMARK  status: ('A' for Active; 'I' for Inactive)
REMARK    1  A    between atoms: C_7  and  C_8 
REMARK    2  A    between atoms: C_9  and  O_10 
REMARK    3  A    between atoms: C_12  and  N_13 
REMARK    4  A    between atoms: N_13  and  C_14 
REMARK    5  A    between atoms: C_14  and  N_15 
REMARK       I    between atoms: N_15  and  C_16 
REMARK    6  A    between atoms: C_16  and  C_17 
REMARK    7  A    between atoms: C_19  and  O_20 
REMARK    8  A    between atoms: O_20  and  C_21 
REMARK    9  A    between atoms: C_21  and  C_22 
ROOT
HETATM    1  N   UNL     1      41.538  -9.687   1.389  1.00  0.00    -0.337 N 
HETATM    2  H   UNL     1      42.257  -9.100   0.978  1.00  0.00     0.168 HD
ENDROOT
BRANCH   1   3
HETATM    3  C   UNL     1      41.985 -10.973   1.755  1.00  0.00     0.036 A 
HETATM    4  C   UNL     1      41.479 -12.052   1.025  1.00  0.00     0.067 A 
HETATM    5  C   UNL     1      41.820 -13.365   1.360  1.00  0.00     0.082 A 
HETATM    6  C   UNL     1      42.658 -13.642   2.450  1.00  0.00     0.050 A 
HETATM    7  C   UNL     1      43.148 -12.548   3.185  1.00  0.00     0.021 A 
HETATM    8  C   UNL     1      42.818 -11.227   2.842  1.00  0.00     0.030 A 
BRANCH   5   9
HETATM    9  O   UNL     1      41.266 -14.328   0.555  1.00  0.00    -0.360 OA
HETATM   10  H   UNL     1      41.294 -14.015  -0.368  1.00  0.00     0.217 HD
ENDBRANCH   5   9
BRANCH   6  11
HETATM   11  C   UNL     1      43.026 -14.992   2.876  1.00  0.00     0.183 A 
HETATM   12  N   UNL     1      43.521 -15.398   4.032  1.00  0.00    -0.221 NA
HETATM   13  C   UNL     1      43.657 -16.755   3.876  1.00  0.00     0.093 A 
HETATM   14  C   UNL     1      43.240 -17.126   2.610  1.00  0.00     0.107 A 
HETATM   15  C   UNL     1      44.124 -17.744   4.749  1.00  0.00     0.035 A 
HETATM   16  C   UNL     1      43.249 -18.426   2.118  1.00  0.00     0.046 A 
HETATM   17  O   UNL     1      42.831 -16.000   1.958  1.00  0.00    -0.289 OA
HETATM   18  C   UNL     1      43.712 -19.417   3.000  1.00  0.00    -0.059 A 
HETATM   19  C   UNL     1      43.784 -20.850   2.552  1.00  0.00     0.048 C 
HETATM   20  C   UNL     1      44.147 -19.072   4.294  1.00  0.00     0.009 A 
ENDBRANCH   6  11
ENDBRANCH   1   3
BRANCH   1  21
HETATM   21  C   UNL     1      40.290  -9.204   1.227  1.00  0.00     0.157 C 
HETATM   22  S   UNL     1      39.877  -8.510  -0.241  1.00  0.00    -0.047 SA
BRANCH  21  23
HETATM   23  N   UNL     1      39.364  -9.163   2.221  1.00  0.00    -0.201 NA
HETATM   24  C   UNL     1      38.724 -10.312   2.671  1.00  0.00     0.237 C 
HETATM   25  O   UNL     1      37.985 -11.028   2.005  1.00  0.00    -0.274 OA
HETATM   26  H   UNL     1      39.771  -8.610   2.961  1.00  0.00     0.139 HD
BRANCH  24  27
HETATM   27  C   UNL     1      38.945 -10.671   4.103  1.00  0.00     0.029 A 
HETATM   28  C   UNL     1      39.401 -11.933   4.519  1.00  0.00     0.053 A 
HETATM   29  C   UNL     1      39.503 -12.217   5.884  1.00  0.00     0.069 A 
HETATM   30  C   UNL     1      39.194 -11.228   6.823  1.00  0.00     0.037 A 
HETATM   31  C   UNL     1      38.773  -9.965   6.414  1.00  0.00     0.004 A 
HETATM   32  C   UNL     1      38.647  -9.688   5.057  1.00  0.00     0.017 A 
BRANCH  29  33
HETATM   33  O   UNL     1      39.893 -13.406   6.432  1.00  0.00    -0.351 OA
BRANCH  33  34
HETATM   34  C   UNL     1      41.215 -13.868   6.154  1.00  0.00     0.179 C 
BRANCH  34  35
HETATM   35  C   UNL     1      41.279 -15.393   6.347  1.00  0.00     0.002 C 
HETATM   36  C   UNL     1      42.284 -15.783   7.432  1.00  0.00     0.011 C 
HETATM   37  C   UNL     1      39.899 -15.961   6.686  1.00  0.00     0.011 C 
ENDBRANCH  34  35
ENDBRANCH  33  34
ENDBRANCH  29  33
ENDBRANCH  24  27
ENDBRANCH  21  23
ENDBRANCH   1  21
TORSDOF 9
ENDMDL
MODEL 9
REMARK VINA RESULT:      -8.2      3.440      7.421
REMARK  9 active torsions:
REMARK  status: ('A' for Active; 'I' for Inactive)
REMARK    1  A    between atoms: C_7  and  C_8 
REMARK    2  A    between atoms: C_9  and  O_10 
REMARK    3  A    between atoms: C_12  and  N_13 
REMARK    4  A    between atoms: N_13  and  C_14 
REMARK    5  A    between atoms: C_14  and  N_15 
REMARK       I    between atoms: N_15  and  C_16 
REMARK    6  A    between atoms: C_16  and  C_17 
REMARK    7  A    between atoms: C_19  and  O_20 
REMARK    8  A    between atoms: O_20  and  C_21 
REMARK    9  A    between atoms: C_21  and  C_22 
ROOT
HETATM    1  N   UNL     1      41.822  -9.609   5.170  1.00  0.00    -0.337 N 
HETATM    2  H   UNL     1      42.585  -8.994   5.436  1.00  0.00     0.168 HD
ENDROOT
BRANCH   1   3
HETATM    3  C   UNL     1      42.183 -10.969   5.084  1.00  0.00     0.036 A 
HETATM    4  C   UNL     1      42.873 -11.370   3.936  1.00  0.00     0.067 A 
HETATM    5  C   UNL     1      43.216 -12.710   3.740  1.00  0.00     0.082 A 
HETATM    6  C   UNL     1      42.856 -13.696   4.670  1.00  0.00     0.050 A 
HETATM    7  C   UNL     1      42.148 -13.281   5.813  1.00  0.00     0.021 A 
HETATM    8  C   UNL     1      41.815 -11.933   6.020  1.00  0.00     0.030 A 
BRANCH   5   9
HETATM    9  O   UNL     1      43.904 -12.966   2.581  1.00  0.00    -0.360 OA
HETATM   10  H   UNL     1      43.262 -13.055   1.852  1.00  0.00     0.217 HD
ENDBRANCH   5   9
BRANCH   6  11
HETATM   11  C   UNL     1      43.151 -15.119   4.509  1.00  0.00     0.183 A 
HETATM   12  N   UNL     1      43.616 -15.982   5.397  1.00  0.00    -0.221 NA
HETATM   13  C   UNL     1      43.683 -17.165   4.703  1.00  0.00     0.093 A 
HETATM   14  C   UNL     1      43.259 -16.971   3.401  1.00  0.00     0.107 A 
HETATM   15  C   UNL     1      44.093 -18.444   5.097  1.00  0.00     0.035 A 
HETATM   16  C   UNL     1      43.205 -17.960   2.426  1.00  0.00     0.046 A 
HETATM   17  O   UNL     1      42.913 -15.659   3.266  1.00  0.00    -0.289 OA
HETATM   18  C   UNL     1      43.610 -19.245   2.826  1.00  0.00    -0.059 A 
HETATM   19  C   UNL     1      43.613 -20.376   1.837  1.00  0.00     0.048 C 
HETATM   20  C   UNL     1      44.053 -19.475   4.143  1.00  0.00     0.009 A 
ENDBRANCH   6  11
ENDBRANCH   1   3
BRANCH   1  21
HETATM   21  C   UNL     1      40.742  -8.954   4.698  1.00  0.00     0.157 C 
HETATM   22  S   UNL     1      40.510  -7.355   5.141  1.00  0.00    -0.047 SA
BRANCH  21  23
HETATM   23  N   UNL     1      39.772  -9.543   3.950  1.00  0.00    -0.201 NA
HETATM   24  C   UNL     1      39.933  -9.764   2.587  1.00  0.00     0.237 C 
HETATM   25  O   UNL     1      40.073  -8.897   1.733  1.00  0.00    -0.274 OA
HETATM   26  H   UNL     1      39.483 -10.364   4.462  1.00  0.00     0.139 HD
BRANCH  24  27
HETATM   27  C   UNL     1      39.900 -11.189   2.143  1.00  0.00     0.029 A 
HETATM   28  C   UNL     1      40.264 -11.601   0.850  1.00  0.00     0.053 A 
HETATM   29  C   UNL     1      40.126 -12.943   0.486  1.00  0.00     0.069 A 
HETATM   30  C   UNL     1      39.670 -13.872   1.426  1.00  0.00     0.037 A 
HETATM   31  C   UNL     1      39.340 -13.474   2.719  1.00  0.00     0.004 A 
HETATM   32  C   UNL     1      39.453 -12.134   3.076  1.00  0.00     0.017 A 
BRANCH  29  33
HETATM   33  O   UNL     1      40.402 -13.478  -0.741  1.00  0.00    -0.351 OA
BRANCH  33  34
HETATM   34  C   UNL     1      39.464 -14.403  -1.291  1.00  0.00     0.179 C 
BRANCH  34  35
HETATM   35  C   UNL     1      38.756 -13.764  -2.498  1.00  0.00     0.002 C 
HETATM   36  C   UNL     1      38.290 -14.818  -3.503  1.00  0.00     0.011 C 
HETATM   37  C   UNL     1      37.568 -12.911  -2.047  1.00  0.00     0.011 C 
ENDBRANCH  34  35
ENDBRANCH  33  34
ENDBRANCH  29  33
ENDBRANCH  24  27
ENDBRANCH  21  23
ENDBRANCH   1  21
TORSDOF 9
ENDMDL
MODEL 10
REMARK VINA RESULT:      -8.1      3.513      9.969
REMARK  9 active torsions:
REMARK  status: ('A' for Active; 'I' for Inactive)
REMARK    1  A    between atoms: C_7  and  C_8 
REMARK    2  A    between atoms: C_9  and  O_10 
REMARK    3  A    between atoms: C_12  and  N_13 
REMARK    4  A    between atoms: N_13  and  C_14 
REMARK    5  A    between atoms: C_14  and  N_15 
REMARK       I    between atoms: N_15  and  C_16 
REMARK    6  A    between atoms: C_16  and  C_17 
REMARK    7  A    between atoms: C_19  and  O_20 
REMARK    8  A    between atoms: O_20  and  C_21 
REMARK    9  A    between atoms: C_21  and  C_22 
ROOT
HETATM    1  N   UNL     1      42.725 -10.095   6.885  1.00  0.00    -0.337 N 
HETATM    2  H   UNL     1      43.122  -9.387   6.275  1.00  0.00     0.168 HD
ENDROOT
BRANCH   1   3
HETATM    3  C   UNL     1      42.972 -11.419   6.469  1.00  0.00     0.036 A 
HETATM    4  C   UNL     1      42.227 -11.893   5.386  1.00  0.00     0.067 A 
HETATM    5  C   UNL     1      42.364 -13.212   4.946  1.00  0.00     0.082 A 
HETATM    6  C   UNL     1      43.230 -14.107   5.592  1.00  0.00     0.050 A 
HETATM    7  C   UNL     1      43.962 -13.620   6.690  1.00  0.00     0.021 A 
HETATM    8  C   UNL     1      43.837 -12.292   7.125  1.00  0.00     0.030 A 
BRANCH   5   9
HETATM    9  O   UNL     1      41.586 -13.544   3.866  1.00  0.00    -0.360 OA
HETATM   10  H   UNL     1      42.151 -13.975   3.198  1.00  0.00     0.217 HD
ENDBRANCH   5   9
BRANCH   6  11
HETATM   11  C   UNL     1      43.394 -15.508   5.206  1.00  0.00     0.183 A 
HETATM   12  N   UNL     1      43.711 -16.550   5.956  1.00  0.00    -0.221 NA
HETATM   13  C   UNL     1      43.708 -17.603   5.076  1.00  0.00     0.093 A 
HETATM   14  C   UNL     1      43.392 -17.154   3.806  1.00  0.00     0.107 A 
HETATM   15  C   UNL     1      43.962 -18.966   5.266  1.00  0.00     0.035 A 
HETATM   16  C   UNL     1      43.306 -17.958   2.676  1.00  0.00     0.046 A 
HETATM   17  O   UNL     1      43.187 -15.808   3.879  1.00  0.00    -0.289 OA
HETATM   18  C   UNL     1      43.555 -19.327   2.871  1.00  0.00    -0.059 A 
HETATM   19  C   UNL     1      43.513 -20.274   1.706  1.00  0.00     0.048 C 
HETATM   20  C   UNL     1      43.884 -19.816   4.150  1.00  0.00     0.009 A 
ENDBRANCH   6  11
ENDBRANCH   1   3
BRANCH   1  21
HETATM   21  C   UNL     1      41.835  -9.604   7.771  1.00  0.00     0.157 C 
HETATM   22  S   UNL     1      40.754  -8.429   7.263  1.00  0.00    -0.047 SA
BRANCH  21  23
HETATM   23  N   UNL     1      41.818  -9.942   9.088  1.00  0.00    -0.201 NA
HETATM   24  C   UNL     1      42.894  -9.670   9.925  1.00  0.00     0.237 C 
HETATM   25  O   UNL     1      44.023 -10.135   9.815  1.00  0.00    -0.274 OA
HETATM   26  H   UNL     1      40.933  -9.620   9.449  1.00  0.00     0.139 HD
BRANCH  24  27
HETATM   27  C   UNL     1      42.621  -8.754  11.072  1.00  0.00     0.029 A 
HETATM   28  C   UNL     1      41.475  -7.946  11.156  1.00  0.00     0.053 A 
HETATM   29  C   UNL     1      41.334  -7.053  12.222  1.00  0.00     0.069 A 
HETATM   30  C   UNL     1      42.313  -7.005  13.220  1.00  0.00     0.037 A 
HETATM   31  C   UNL     1      43.434  -7.828  13.158  1.00  0.00     0.004 A 
HETATM   32  C   UNL     1      43.589  -8.700  12.085  1.00  0.00     0.017 A 
BRANCH  29  33
HETATM   33  O   UNL     1      40.298  -6.183  12.412  1.00  0.00    -0.351 OA
BRANCH  33  34
HETATM   34  C   UNL     1      40.253  -5.458  13.640  1.00  0.00     0.179 C 
BRANCH  34  35
HETATM   35  C   UNL     1      39.213  -6.095  14.577  1.00  0.00     0.002 C 
HETATM   36  C   UNL     1      39.812  -6.429  15.944  1.00  0.00     0.011 C 
HETATM   37  C   UNL     1      37.998  -5.179  14.751  1.00  0.00     0.011 C 
ENDBRANCH  34  35
ENDBRANCH  33  34
ENDBRANCH  29  33
ENDBRANCH  24  27
ENDBRANCH  21  23
ENDBRANCH   1  21
TORSDOF 9
ENDMDL
