MODEL 1
REMARK VINA RESULT:      -8.8      0.000      0.000
REMARK  7 active torsions:
REMARK  status: ('A' for Active; 'I' for Inactive)
REMARK    1  A    between atoms: O_2  and  C_3 
REMARK    2  A    between atoms: C_5  and  C_6 
REMARK    3  A    between atoms: C_8  and  C_9 
REMARK    4  A    between atoms: C_9  and  N_10 
REMARK    5  A    between atoms: N_10  and  C_13 
REMARK    6  A    between atoms: C_13  and  C_14 
REMARK    7  A    between atoms: C_24  and  O_25 
ROOT
HETATM    1  C   UNL     1      42.092 -12.245   5.017  1.00  0.00    -0.007 A 
HETATM    2  C   UNL     1      42.186 -12.699   3.686  1.00  0.00     0.025 A 
HETATM    3  C   UNL     1      41.061 -13.128   2.960  1.00  0.00     0.001 A 
HETATM    4  C   UNL     1      39.813 -13.084   3.582  1.00  0.00     0.073 A 
HETATM    5  C   UNL     1      39.679 -12.619   4.885  1.00  0.00     0.038 A 
HETATM    6  C   UNL     1      40.813 -12.209   5.596  1.00  0.00     0.016 A 
ENDROOT
BRANCH   3   7
HETATM    7  C   UNL     1      41.229 -13.670   1.572  1.00  0.00     0.274 C 
BRANCH   7   8
HETATM    8  N   UNL     1      41.934 -14.981   1.551  1.00  0.00    -0.067 N 
HETATM    9  H   UNL     1      42.120 -15.256   0.580  1.00  0.00     0.277 HD
HETATM   10  H   UNL     1      42.856 -14.879   1.992  1.00  0.00     0.277 HD
BRANCH   8  11
HETATM   11  C   UNL     1      41.216 -16.102   2.224  1.00  0.00     0.272 C 
BRANCH  11  12
HETATM   12  C   UNL     1      42.191 -16.934   3.018  1.00  0.00    -0.022 A 
HETATM   13  C   UNL     1      42.340 -16.781   4.429  1.00  0.00    -0.018 A 
HETATM   14  C   UNL     1      43.349 -17.533   5.085  1.00  0.00    -0.025 A 
HETATM   15  C   UNL     1      41.547 -15.920   5.229  1.00  0.00     0.013 A 
HETATM   16  C   UNL     1      43.539 -17.403   6.469  1.00  0.00     0.012 A 
HETATM   17  C   UNL     1      44.159 -18.411   4.352  1.00  0.00     0.012 A 
HETATM   18  C   UNL     1      42.746 -16.544   7.226  1.00  0.00     0.001 A 
HETATM   19  C   UNL     1      41.747 -15.807   6.606  1.00  0.00     0.001 A 
HETATM   20  C   UNL     1      43.997 -18.559   2.978  1.00  0.00     0.002 A 
HETATM   21  C   UNL     1      43.025 -17.823   2.313  1.00  0.00     0.010 A 
ENDBRANCH  11  12
ENDBRANCH   8  11
ENDBRANCH   7   8
ENDBRANCH   3   7
BRANCH   4  22
HETATM   22  O   UNL     1      38.728 -13.541   2.894  1.00  0.00    -0.360 OA
HETATM   23  H   UNL     1      38.011 -13.734   3.530  1.00  0.00     0.217 HD
ENDBRANCH   4  22
BRANCH   1  24
HETATM   24  C   UNL     1      43.313 -11.863   5.757  1.00  0.00     0.070 A 
HETATM   25  N   UNL     1      43.143 -11.713   7.099  1.00  0.00    -0.224 NA
HETATM   26  C   UNL     1      44.226 -11.351   7.826  1.00  0.00     0.164 A 
HETATM   27  C   UNL     1      45.481 -11.134   7.286  1.00  0.00     0.058 A 
HETATM   28  C   UNL     1      45.645 -11.299   5.919  1.00  0.00     0.007 A 
HETATM   29  C   UNL     1      44.550 -11.670   5.142  1.00  0.00     0.032 A 
BRANCH  26  30
HETATM   30  O   UNL     1      44.118 -11.181   9.191  1.00  0.00    -0.339 OA
HETATM   31  C   UNL     1      44.909 -10.114   9.697  1.00  0.00     0.211 C 
ENDBRANCH  26  30
ENDBRANCH   1  24
TORSDOF 7
ENDMDL
MODEL 2
REMARK VINA RESULT:      -8.6      2.589      6.312
REMARK  7 active torsions:
REMARK  status: ('A' for Active; 'I' for Inactive)
REMARK    1  A    between atoms: O_2  and  C_3 
REMARK    2  A    between atoms: C_5  and  C_6 
REMARK    3  A    between atoms: C_8  and  C_9 
REMARK    4  A    between atoms: C_9  and  N_10 
REMARK    5  A    between atoms: N_10  and  C_13 
REMARK    6  A    between atoms: C_13  and  C_14 
REMARK    7  A    between atoms: C_24  and  O_25 
ROOT
HETATM    1  C   UNL     1      40.850 -13.121   1.972  1.00  0.00    -0.007 A 
HETATM    2  C   UNL     1      40.149 -13.045   3.192  1.00  0.00     0.025 A 
HETATM    3  C   UNL     1      40.807 -12.892   4.425  1.00  0.00     0.001 A 
HETATM    4  C   UNL     1      42.199 -12.798   4.428  1.00  0.00     0.073 A 
HETATM    5  C   UNL     1      42.922 -12.847   3.241  1.00  0.00     0.038 A 
HETATM    6  C   UNL     1      42.249 -13.012   2.025  1.00  0.00     0.016 A 
ENDROOT
BRANCH   3   7
HETATM    7  C   UNL     1      40.016 -12.890   5.699  1.00  0.00     0.274 C 
BRANCH   7   8
HETATM    8  N   UNL     1      40.493 -13.911   6.671  1.00  0.00    -0.067 N 
HETATM    9  H   UNL     1      41.491 -13.769   6.858  1.00  0.00     0.277 HD
HETATM   10  H   UNL     1      40.019 -13.771   7.572  1.00  0.00     0.277 HD
BRANCH   8  11
HETATM   11  C   UNL     1      40.293 -15.330   6.255  1.00  0.00     0.272 C 
BRANCH  11  12
HETATM   12  C   UNL     1      41.629 -16.005   6.073  1.00  0.00    -0.022 A 
HETATM   13  C   UNL     1      42.048 -16.521   4.810  1.00  0.00    -0.018 A 
HETATM   14  C   UNL     1      43.276 -17.227   4.745  1.00  0.00    -0.025 A 
HETATM   15  C   UNL     1      41.315 -16.378   3.605  1.00  0.00     0.013 A 
HETATM   16  C   UNL     1      43.720 -17.763   3.527  1.00  0.00     0.012 A 
HETATM   17  C   UNL     1      44.053 -17.392   5.900  1.00  0.00     0.012 A 
HETATM   18  C   UNL     1      42.972 -17.611   2.361  1.00  0.00     0.001 A 
HETATM   19  C   UNL     1      41.773 -16.914   2.399  1.00  0.00     0.001 A 
HETATM   20  C   UNL     1      43.639 -16.875   7.123  1.00  0.00     0.002 A 
HETATM   21  C   UNL     1      42.434 -16.191   7.213  1.00  0.00     0.010 A 
ENDBRANCH  11  12
ENDBRANCH   8  11
ENDBRANCH   7   8
ENDBRANCH   3   7
BRANCH   4  22
HETATM   22  O   UNL     1      42.841 -12.695   5.627  1.00  0.00    -0.360 OA
HETATM   23  H   UNL     1      42.555 -11.869   6.066  1.00  0.00     0.217 HD
ENDBRANCH   4  22
BRANCH   1  24
HETATM   24  C   UNL     1      40.116 -13.344   0.709  1.00  0.00     0.070 A 
HETATM   25  N   UNL     1      39.363 -12.289   0.293  1.00  0.00    -0.224 NA
HETATM   26  C   UNL     1      38.658 -12.440  -0.853  1.00  0.00     0.164 A 
HETATM   27  C   UNL     1      38.666 -13.594  -1.617  1.00  0.00     0.058 A 
HETATM   28  C   UNL     1      39.445 -14.659  -1.189  1.00  0.00     0.007 A 
HETATM   29  C   UNL     1      40.180 -14.535  -0.013  1.00  0.00     0.032 A 
BRANCH  26  30
HETATM   30  O   UNL     1      37.875 -11.408  -1.325  1.00  0.00    -0.339 OA
HETATM   31  C   UNL     1      37.157 -11.733  -2.508  1.00  0.00     0.211 C 
ENDBRANCH  26  30
ENDBRANCH   1  24
TORSDOF 7
ENDMDL
MODEL 3
REMARK VINA RESULT:      -8.5      2.730      5.462
REMARK  7 active torsions:
REMARK  status: ('A' for Active; 'I' for Inactive)
REMARK    1  A    between atoms: O_2  and  C_3 
REMARK    2  A    between atoms: C_5  and  C_6 
REMARK    3  A    between atoms: C_8  and  C_9 
REMARK    4  A    between atoms: C_9  and  N_10 
REMARK    5  A    between atoms: N_10  and  C_13 
REMARK    6  A    between atoms: C_13  and  C_14 
REMARK    7  A    between atoms: C_24  and  O_25 
ROOT
HETATM    1  C   UNL     1      44.332  -9.927   9.472  1.00  0.00    -0.007 A 
HETATM    2  C   UNL     1      43.836 -10.933   8.620  1.00  0.00     0.025 A 
HETATM    3  C   UNL     1      44.538 -11.360   7.478  1.00  0.00     0.001 A 
HETATM    4  C   UNL     1      45.772 -10.773   7.200  1.00  0.00     0.073 A 
HETATM    5  C   UNL     1      46.303  -9.794   8.032  1.00  0.00     0.038 A 
HETATM    6  C   UNL     1      45.584  -9.373   9.156  1.00  0.00     0.016 A 
ENDROOT
BRANCH   3   7
HETATM    7  C   UNL     1      43.929 -12.383   6.566  1.00  0.00     0.274 C 
BRANCH   7   8
HETATM    8  N   UNL     1      43.225 -13.465   7.309  1.00  0.00    -0.067 N 
HETATM    9  H   UNL     1      43.911 -14.137   7.669  1.00  0.00     0.277 HD
HETATM   10  H   UNL     1      42.765 -13.066   8.136  1.00  0.00     0.277 HD
BRANCH   8  11
HETATM   11  C   UNL     1      42.203 -14.217   6.524  1.00  0.00     0.272 C 
BRANCH  11  12
HETATM   12  C   UNL     1      42.744 -15.571   6.141  1.00  0.00    -0.022 A 
HETATM   13  C   UNL     1      42.927 -15.953   4.779  1.00  0.00    -0.018 A 
HETATM   14  C   UNL     1      43.348 -17.280   4.502  1.00  0.00    -0.025 A 
HETATM   15  C   UNL     1      42.715 -15.094   3.671  1.00  0.00     0.013 A 
HETATM   16  C   UNL     1      43.528 -17.702   3.176  1.00  0.00     0.012 A 
HETATM   17  C   UNL     1      43.586 -18.175   5.554  1.00  0.00     0.012 A 
HETATM   18  C   UNL     1      43.305 -16.834   2.109  1.00  0.00     0.001 A 
HETATM   19  C   UNL     1      42.904 -15.529   2.358  1.00  0.00     0.001 A 
HETATM   20  C   UNL     1      43.414 -17.787   6.879  1.00  0.00     0.002 A 
HETATM   21  C   UNL     1      42.990 -16.497   7.173  1.00  0.00     0.010 A 
ENDBRANCH  11  12
ENDBRANCH   8  11
ENDBRANCH   7   8
ENDBRANCH   3   7
BRANCH   4  22
HETATM   22  O   UNL     1      46.433 -11.155   6.069  1.00  0.00    -0.360 OA
HETATM   23  H   UNL     1      45.777 -11.324   5.364  1.00  0.00     0.217 HD
ENDBRANCH   4  22
BRANCH   1  24
HETATM   24  C   UNL     1      43.528  -9.470  10.625  1.00  0.00     0.070 A 
HETATM   25  N   UNL     1      42.240  -9.910  10.633  1.00  0.00    -0.224 NA
HETATM   26  C   UNL     1      41.452  -9.513  11.660  1.00  0.00     0.164 A 
HETATM   27  C   UNL     1      41.882  -8.697  12.691  1.00  0.00     0.058 A 
HETATM   28  C   UNL     1      43.199  -8.262  12.678  1.00  0.00     0.007 A 
HETATM   29  C   UNL     1      44.035  -8.652  11.634  1.00  0.00     0.032 A 
BRANCH  26  30
HETATM   30  O   UNL     1      40.138  -9.925  11.722  1.00  0.00    -0.339 OA
HETATM   31  C   UNL     1      39.811 -10.607  12.926  1.00  0.00     0.211 C 
ENDBRANCH  26  30
ENDBRANCH   1  24
TORSDOF 7
ENDMDL
MODEL 4
REMARK VINA RESULT:      -8.5      1.300      2.447
REMARK  7 active torsions:
REMARK  status: ('A' for Active; 'I' for Inactive)
REMARK    1  A    between atoms: O_2  and  C_3 
REMARK    2  A    between atoms: C_5  and  C_6 
REMARK    3  A    between atoms: C_8  and  C_9 
REMARK    4  A    between atoms: C_9  and  N_10 
REMARK    5  A    between atoms: N_10  and  C_13 
REMARK    6  A    between atoms: C_13  and  C_14 
REMARK    7  A    between atoms: C_24  and  O_25 
ROOT
HETATM    1  C   UNL     1      42.441 -12.173   5.489  1.00  0.00    -0.007 A 
HETATM    2  C   UNL     1      42.685 -12.556   4.155  1.00  0.00     0.025 A 
HETATM    3  C   UNL     1      41.712 -13.203   3.372  1.00  0.00     0.001 A 
HETATM    4  C   UNL     1      40.463 -13.454   3.939  1.00  0.00     0.073 A 
HETATM    5  C   UNL     1      40.179 -13.069   5.244  1.00  0.00     0.038 A 
HETATM    6  C   UNL     1      41.165 -12.438   6.012  1.00  0.00     0.016 A 
ENDROOT
BRANCH   3   7
HETATM    7  C   UNL     1      42.051 -13.653   1.982  1.00  0.00     0.274 C 
BRANCH   7   8
HETATM    8  N   UNL     1      43.164 -14.642   1.956  1.00  0.00    -0.067 N 
HETATM    9  H   UNL     1      43.749 -14.479   1.130  1.00  0.00     0.277 HD
HETATM   10  H   UNL     1      43.777 -14.486   2.766  1.00  0.00     0.277 HD
BRANCH   8  11
HETATM   11  C   UNL     1      42.746 -16.074   1.958  1.00  0.00     0.272 C 
BRANCH  11  12
HETATM   12  C   UNL     1      43.280 -16.764   3.186  1.00  0.00    -0.022 A 
HETATM   13  C   UNL     1      43.479 -18.177   3.232  1.00  0.00    -0.018 A 
HETATM   14  C   UNL     1      43.892 -18.759   4.458  1.00  0.00    -0.025 A 
HETATM   15  C   UNL     1      43.287 -19.048   2.130  1.00  0.00     0.013 A 
HETATM   16  C   UNL     1      44.087 -20.146   4.552  1.00  0.00     0.012 A 
HETATM   17  C   UNL     1      44.110 -17.950   5.582  1.00  0.00     0.012 A 
HETATM   18  C   UNL     1      43.884 -20.975   3.451  1.00  0.00     0.001 A 
HETATM   19  C   UNL     1      43.489 -20.425   2.240  1.00  0.00     0.001 A 
HETATM   20  C   UNL     1      43.924 -16.573   5.521  1.00  0.00     0.002 A 
HETATM   21  C   UNL     1      43.506 -15.983   4.335  1.00  0.00     0.010 A 
ENDBRANCH  11  12
ENDBRANCH   8  11
ENDBRANCH   7   8
ENDBRANCH   3   7
BRANCH   4  22
HETATM   22  O   UNL     1      39.534 -14.120   3.195  1.00  0.00    -0.360 OA
HETATM   23  H   UNL     1      39.966 -14.464   2.387  1.00  0.00     0.217 HD
ENDBRANCH   4  22
BRANCH   1  24
HETATM   24  C   UNL     1      43.516 -11.551   6.290  1.00  0.00     0.070 A 
HETATM   25  N   UNL     1      43.086 -10.708   7.267  1.00  0.00    -0.224 NA
HETATM   26  C   UNL     1      44.029 -10.100   8.025  1.00  0.00     0.164 A 
HETATM   27  C   UNL     1      45.390 -10.291   7.864  1.00  0.00     0.058 A 
HETATM   28  C   UNL     1      45.817 -11.161   6.871  1.00  0.00     0.007 A 
HETATM   29  C   UNL     1      44.871 -11.801   6.074  1.00  0.00     0.032 A 
BRANCH  26  30
HETATM   30  O   UNL     1      43.655  -9.232   9.030  1.00  0.00    -0.339 OA
HETATM   31  C   UNL     1      42.266  -9.274   9.332  1.00  0.00     0.211 C 
ENDBRANCH  26  30
ENDBRANCH   1  24
TORSDOF 7
ENDMDL
MODEL 5
REMARK VINA RESULT:      -8.4      2.620      5.534
REMARK  7 active torsions:
REMARK  status: ('A' for Active; 'I' for Inactive)
REMARK    1  A    between atoms: O_2  and  C_3 
REMARK    2  A    between atoms: C_5  and  C_6 
REMARK    3  A    between atoms: C_8  and  C_9 
REMARK    4  A    between atoms: C_9  and  N_10 
REMARK    5  A    between atoms: N_10  and  C_13 
REMARK    6  A    between atoms: C_13  and  C_14 
REMARK    7  A    between atoms: C_24  and  O_25 
ROOT
HETATM    1  C   UNL     1      44.433  -9.978   9.371  1.00  0.00    -0.007 A 
HETATM    2  C   UNL     1      44.031 -11.076   8.585  1.00  0.00     0.025 A 
HETATM    3  C   UNL     1      44.753 -11.489   7.450  1.00  0.00     0.001 A 
HETATM    4  C   UNL     1      45.912 -10.792   7.111  1.00  0.00     0.073 A 
HETATM    5  C   UNL     1      46.352  -9.719   7.877  1.00  0.00     0.038 A 
HETATM    6  C   UNL     1      45.612  -9.315   8.995  1.00  0.00     0.016 A 
ENDROOT
BRANCH   3   7
HETATM    7  C   UNL     1      44.239 -12.619   6.609  1.00  0.00     0.274 C 
BRANCH   7   8
HETATM    8  N   UNL     1      43.150 -13.382   7.278  1.00  0.00    -0.067 N 
HETATM    9  H   UNL     1      43.162 -13.187   8.285  1.00  0.00     0.277 HD
HETATM   10  H   UNL     1      42.240 -13.044   6.941  1.00  0.00     0.277 HD
BRANCH   8  11
HETATM   11  C   UNL     1      43.197 -14.861   7.088  1.00  0.00     0.272 C 
BRANCH  11  12
HETATM   12  C   UNL     1      42.495 -15.238   5.809  1.00  0.00    -0.022 A 
HETATM   13  C   UNL     1      42.966 -16.294   4.972  1.00  0.00    -0.018 A 
HETATM   14  C   UNL     1      42.306 -16.520   3.737  1.00  0.00    -0.025 A 
HETATM   15  C   UNL     1      44.059 -17.139   5.289  1.00  0.00     0.013 A 
HETATM   16  C   UNL     1      42.744 -17.539   2.877  1.00  0.00     0.012 A 
HETATM   17  C   UNL     1      41.211 -15.726   3.370  1.00  0.00     0.012 A 
HETATM   18  C   UNL     1      43.826 -18.349   3.216  1.00  0.00     0.001 A 
HETATM   19  C   UNL     1      44.479 -18.152   4.424  1.00  0.00     0.001 A 
HETATM   20  C   UNL     1      40.754 -14.706   4.200  1.00  0.00     0.002 A 
HETATM   21  C   UNL     1      41.394 -14.458   5.407  1.00  0.00     0.010 A 
ENDBRANCH  11  12
ENDBRANCH   8  11
ENDBRANCH   7   8
ENDBRANCH   3   7
BRANCH   4  22
HETATM   22  O   UNL     1      46.588 -11.164   5.987  1.00  0.00    -0.360 OA
HETATM   23  H   UNL     1      45.982 -11.666   5.406  1.00  0.00     0.217 HD
ENDBRANCH   4  22
BRANCH   1  24
HETATM   24  C   UNL     1      43.606  -9.546  10.517  1.00  0.00     0.070 A 
HETATM   25  N   UNL     1      42.334 -10.028  10.516  1.00  0.00    -0.224 NA
HETATM   26  C   UNL     1      41.526  -9.655  11.537  1.00  0.00     0.164 A 
HETATM   27  C   UNL     1      41.922  -8.824  12.570  1.00  0.00     0.058 A 
HETATM   28  C   UNL     1      43.225  -8.346  12.566  1.00  0.00     0.007 A 
HETATM   29  C   UNL     1      44.080  -8.711  11.529  1.00  0.00     0.032 A 
BRANCH  26  30
HETATM   30  O   UNL     1      40.225 -10.108  11.592  1.00  0.00    -0.339 OA
HETATM   31  C   UNL     1      39.750 -10.321  12.915  1.00  0.00     0.211 C 
ENDBRANCH  26  30
ENDBRANCH   1  24
TORSDOF 7
ENDMDL
MODEL 6
REMARK VINA RESULT:      -8.3      1.548      3.102
REMARK  7 active torsions:
REMARK  status: ('A' for Active; 'I' for Inactive)
REMARK    1  A    between atoms: O_2  and  C_3 
REMARK    2  A    between atoms: C_5  and  C_6 
REMARK    3  A    between atoms: C_8  and  C_9 
REMARK    4  A    between atoms: C_9  and  N_10 
REMARK    5  A    between atoms: N_10  and  C_13 
REMARK    6  A    between atoms: C_13  and  C_14 
REMARK    7  A    between atoms: C_24  and  O_25 
ROOT
HETATM    1  C   UNL     1      43.640 -11.611   5.843  1.00  0.00    -0.007 A 
HETATM    2  C   UNL     1      42.385 -12.222   6.040  1.00  0.00     0.025 A 
HETATM    3  C   UNL     1      41.635 -12.751   4.974  1.00  0.00     0.001 A 
HETATM    4  C   UNL     1      42.168 -12.679   3.687  1.00  0.00     0.073 A 
HETATM    5  C   UNL     1      43.413 -12.104   3.459  1.00  0.00     0.038 A 
HETATM    6  C   UNL     1      44.138 -11.571   4.531  1.00  0.00     0.016 A 
ENDROOT
BRANCH   3   7
HETATM    7  C   UNL     1      40.273 -13.324   5.232  1.00  0.00     0.274 C 
BRANCH   7   8
HETATM    8  N   UNL     1      40.200 -14.070   6.518  1.00  0.00    -0.067 N 
HETATM    9  H   UNL     1      40.983 -13.794   7.120  1.00  0.00     0.277 HD
HETATM   10  H   UNL     1      39.349 -13.795   7.023  1.00  0.00     0.277 HD
BRANCH   8  11
HETATM   11  C   UNL     1      40.208 -15.557   6.394  1.00  0.00     0.272 C 
BRANCH  11  12
HETATM   12  C   UNL     1      41.613 -16.044   6.145  1.00  0.00    -0.022 A 
HETATM   13  C   UNL     1      42.041 -16.484   4.857  1.00  0.00    -0.018 A 
HETATM   14  C   UNL     1      43.349 -17.019   4.729  1.00  0.00    -0.025 A 
HETATM   15  C   UNL     1      41.244 -16.428   3.686  1.00  0.00     0.013 A 
HETATM   16  C   UNL     1      43.807 -17.476   3.484  1.00  0.00     0.012 A 
HETATM   17  C   UNL     1      44.191 -17.092   5.847  1.00  0.00     0.012 A 
HETATM   18  C   UNL     1      42.996 -17.412   2.352  1.00  0.00     0.001 A 
HETATM   19  C   UNL     1      41.718 -16.883   2.453  1.00  0.00     0.001 A 
HETATM   20  C   UNL     1      43.765 -16.649   7.095  1.00  0.00     0.002 A 
HETATM   21  C   UNL     1      42.484 -16.134   7.247  1.00  0.00     0.010 A 
ENDBRANCH  11  12
ENDBRANCH   8  11
ENDBRANCH   7   8
ENDBRANCH   3   7
BRANCH   4  22
HETATM   22  O   UNL     1      41.422 -13.152   2.648  1.00  0.00    -0.360 OA
HETATM   23  H   UNL     1      40.485 -13.194   2.926  1.00  0.00     0.217 HD
ENDBRANCH   4  22
BRANCH   1  24
HETATM   24  C   UNL     1      44.360 -11.015   6.988  1.00  0.00     0.070 A 
HETATM   25  N   UNL     1      43.587 -10.755   8.077  1.00  0.00    -0.224 NA
HETATM   26  C   UNL     1      44.192 -10.198   9.152  1.00  0.00     0.164 A 
HETATM   27  C   UNL     1      45.539  -9.885   9.203  1.00  0.00     0.058 A 
HETATM   28  C   UNL     1      46.320 -10.164   8.091  1.00  0.00     0.007 A 
HETATM   29  C   UNL     1      45.727 -10.736   6.969  1.00  0.00     0.032 A 
BRANCH  26  30
HETATM   30  O   UNL     1      43.461  -9.909  10.285  1.00  0.00    -0.339 OA
HETATM   31  C   UNL     1      43.793 -10.724  11.401  1.00  0.00     0.211 C 
ENDBRANCH  26  30
ENDBRANCH   1  24
TORSDOF 7
ENDMDL
MODEL 7
REMARK VINA RESULT:      -8.3      2.740      5.983
REMARK  7 active torsions:
REMARK  status: ('A' for Active; 'I' for Inactive)
REMARK    1  A    between atoms: O_2  and  C_3 
REMARK    2  A    between atoms: C_5  and  C_6 
REMARK    3  A    between atoms: C_8  and  C_9 
REMARK    4  A    between atoms: C_9  and  N_10 
REMARK    5  A    between atoms: N_10  and  C_13 
REMARK    6  A    between atoms: C_13  and  C_14 
REMARK    7  A    between atoms: C_24  and  O_25 
ROOT
HETATM    1  C   UNL     1      41.863 -15.833   2.587  1.00  0.00    -0.007 A 
HETATM    2  C   UNL     1      42.079 -14.442   2.510  1.00  0.00     0.025 A 
HETATM    3  C   UNL     1      41.239 -13.594   1.767  1.00  0.00     0.001 A 
HETATM    4  C   UNL     1      40.150 -14.156   1.101  1.00  0.00     0.073 A 
HETATM    5  C   UNL     1      39.893 -15.520   1.174  1.00  0.00     0.038 A 
HETATM    6  C   UNL     1      40.748 -16.350   1.907  1.00  0.00     0.016 A 
ENDROOT
BRANCH   3   7
HETATM    7  C   UNL     1      41.558 -12.132   1.661  1.00  0.00     0.274 C 
BRANCH   7   8
HETATM    8  N   UNL     1      40.498 -11.271   2.254  1.00  0.00    -0.067 N 
HETATM    9  H   UNL     1      40.267 -10.513   1.602  1.00  0.00     0.277 HD
HETATM   10  H   UNL     1      39.635 -11.818   2.362  1.00  0.00     0.277 HD
BRANCH   8  11
HETATM   11  C   UNL     1      40.834 -10.664   3.575  1.00  0.00     0.272 C 
BRANCH  11  12
HETATM   12  C   UNL     1      41.005 -11.747   4.609  1.00  0.00    -0.022 A 
HETATM   13  C   UNL     1      42.253 -11.976   5.262  1.00  0.00    -0.018 A 
HETATM   14  C   UNL     1      42.356 -13.078   6.150  1.00  0.00    -0.025 A 
HETATM   15  C   UNL     1      43.409 -11.176   5.082  1.00  0.00     0.013 A 
HETATM   16  C   UNL     1      43.568 -13.348   6.803  1.00  0.00     0.012 A 
HETATM   17  C   UNL     1      41.245 -13.901   6.380  1.00  0.00     0.012 A 
HETATM   18  C   UNL     1      44.688 -12.545   6.600  1.00  0.00     0.001 A 
HETATM   19  C   UNL     1      44.607 -11.457   5.743  1.00  0.00     0.001 A 
HETATM   20  C   UNL     1      40.031 -13.661   5.745  1.00  0.00     0.002 A 
HETATM   21  C   UNL     1      39.911 -12.596   4.862  1.00  0.00     0.010 A 
ENDBRANCH  11  12
ENDBRANCH   8  11
ENDBRANCH   7   8
ENDBRANCH   3   7
BRANCH   4  22
HETATM   22  O   UNL     1      39.360 -13.341   0.344  1.00  0.00    -0.360 OA
HETATM   23  H   UNL     1      38.768 -12.836   0.938  1.00  0.00     0.217 HD
ENDBRANCH   4  22
BRANCH   1  24
HETATM   24  C   UNL     1      42.811 -16.689   3.331  1.00  0.00     0.070 A 
HETATM   25  N   UNL     1      43.054 -17.900   2.760  1.00  0.00    -0.224 NA
HETATM   26  C   UNL     1      43.906 -18.732   3.404  1.00  0.00     0.164 A 
HETATM   27  C   UNL     1      44.537 -18.419   4.595  1.00  0.00     0.058 A 
HETATM   28  C   UNL     1      44.289 -17.178   5.163  1.00  0.00     0.007 A 
HETATM   29  C   UNL     1      43.416 -16.300   4.525  1.00  0.00     0.032 A 
BRANCH  26  30
HETATM   30  O   UNL     1      44.192 -19.974   2.877  1.00  0.00    -0.339 OA
HETATM   31  C   UNL     1      43.326 -20.355   1.816  1.00  0.00     0.211 C 
ENDBRANCH  26  30
ENDBRANCH   1  24
TORSDOF 7
ENDMDL
MODEL 8
REMARK VINA RESULT:      -8.2      3.013      6.099
REMARK  7 active torsions:
REMARK  status: ('A' for Active; 'I' for Inactive)
REMARK    1  A    between atoms: O_2  and  C_3 
REMARK    2  A    between atoms: C_5  and  C_6 
REMARK    3  A    between atoms: C_8  and  C_9 
REMARK    4  A    between atoms: C_9  and  N_10 
REMARK    5  A    between atoms: N_10  and  C_13 
REMARK    6  A    between atoms: C_13  and  C_14 
REMARK    7  A    between atoms: C_24  and  O_25 
ROOT
HETATM    1  C   UNL     1      39.768 -13.061   2.763  1.00  0.00    -0.007 A 
HETATM    2  C   UNL     1      40.425 -13.974   3.612  1.00  0.00     0.025 A 
HETATM    3  C   UNL     1      40.637 -13.708   4.977  1.00  0.00     0.001 A 
HETATM    4  C   UNL     1      40.163 -12.506   5.500  1.00  0.00     0.073 A 
HETATM    5  C   UNL     1      39.490 -11.591   4.698  1.00  0.00     0.038 A 
HETATM    6  C   UNL     1      39.301 -11.868   3.339  1.00  0.00     0.016 A 
ENDROOT
BRANCH   3   7
HETATM    7  C   UNL     1      41.406 -14.684   5.817  1.00  0.00     0.274 C 
BRANCH   7   8
HETATM    8  N   UNL     1      42.876 -14.590   5.602  1.00  0.00    -0.067 N 
HETATM    9  H   UNL     1      43.063 -14.175   4.683  1.00  0.00     0.277 HD
HETATM   10  H   UNL     1      43.279 -13.940   6.288  1.00  0.00     0.277 HD
BRANCH   8  11
HETATM   11  C   UNL     1      43.618 -15.882   5.692  1.00  0.00     0.272 C 
BRANCH  11  12
HETATM   12  C   UNL     1      43.485 -16.641   4.396  1.00  0.00    -0.022 A 
HETATM   13  C   UNL     1      43.631 -18.059   4.335  1.00  0.00    -0.018 A 
HETATM   14  C   UNL     1      43.588 -18.686   3.062  1.00  0.00    -0.025 A 
HETATM   15  C   UNL     1      43.821 -18.894   5.465  1.00  0.00     0.013 A 
HETATM   16  C   UNL     1      43.741 -20.077   2.954  1.00  0.00     0.012 A 
HETATM   17  C   UNL     1      43.391 -17.917   1.907  1.00  0.00     0.012 A 
HETATM   18  C   UNL     1      43.932 -20.868   4.084  1.00  0.00     0.001 A 
HETATM   19  C   UNL     1      43.967 -20.278   5.339  1.00  0.00     0.001 A 
HETATM   20  C   UNL     1      43.239 -16.536   1.982  1.00  0.00     0.002 A 
HETATM   21  C   UNL     1      43.291 -15.900   3.215  1.00  0.00     0.010 A 
ENDBRANCH  11  12
ENDBRANCH   8  11
ENDBRANCH   7   8
ENDBRANCH   3   7
BRANCH   4  22
HETATM   22  O   UNL     1      40.407 -12.228   6.813  1.00  0.00    -0.360 OA
HETATM   23  H   UNL     1      39.664 -12.568   7.350  1.00  0.00     0.217 HD
ENDBRANCH   4  22
BRANCH   1  24
HETATM   24  C   UNL     1      39.625 -13.360   1.323  1.00  0.00     0.070 A 
HETATM   25  N   UNL     1      39.036 -12.375   0.591  1.00  0.00    -0.224 NA
HETATM   26  C   UNL     1      38.868 -12.600  -0.733  1.00  0.00     0.164 A 
HETATM   27  C   UNL     1      39.261 -13.761  -1.375  1.00  0.00     0.058 A 
HETATM   28  C   UNL     1      39.869 -14.754  -0.621  1.00  0.00     0.007 A 
HETATM   29  C   UNL     1      40.055 -14.554   0.744  1.00  0.00     0.032 A 
BRANCH  26  30
HETATM   30  O   UNL     1      38.275 -11.640  -1.528  1.00  0.00    -0.339 OA
HETATM   31  C   UNL     1      37.501 -12.180  -2.591  1.00  0.00     0.211 C 
ENDBRANCH  26  30
ENDBRANCH   1  24
TORSDOF 7
ENDMDL
MODEL 9
REMARK VINA RESULT:      -8.1      2.955      6.793
REMARK  7 active torsions:
REMARK  status: ('A' for Active; 'I' for Inactive)
REMARK    1  A    between atoms: O_2  and  C_3 
REMARK    2  A    between atoms: C_5  and  C_6 
REMARK    3  A    between atoms: C_8  and  C_9 
REMARK    4  A    between atoms: C_9  and  N_10 
REMARK    5  A    between atoms: N_10  and  C_13 
REMARK    6  A    between atoms: C_13  and  C_14 
REMARK    7  A    between atoms: C_24  and  O_25 
ROOT
HETATM    1  C   UNL     1      42.490 -15.840   4.653  1.00  0.00    -0.007 A 
HETATM    2  C   UNL     1      42.865 -14.580   4.147  1.00  0.00     0.025 A 
HETATM    3  C   UNL     1      42.441 -13.378   4.742  1.00  0.00     0.001 A 
HETATM    4  C   UNL     1      41.638 -13.448   5.880  1.00  0.00     0.073 A 
HETATM    5  C   UNL     1      41.269 -14.674   6.421  1.00  0.00     0.038 A 
HETATM    6  C   UNL     1      41.689 -15.859   5.806  1.00  0.00     0.016 A 
ENDROOT
BRANCH   3   7
HETATM    7  C   UNL     1      42.810 -12.065   4.118  1.00  0.00     0.274 C 
BRANCH   7   8
HETATM    8  N   UNL     1      42.558 -12.038   2.651  1.00  0.00    -0.067 N 
HETATM    9  H   UNL     1      43.085 -11.267   2.226  1.00  0.00     0.277 HD
HETATM   10  H   UNL     1      42.928 -12.896   2.225  1.00  0.00     0.277 HD
BRANCH   8  11
HETATM   11  C   UNL     1      41.126 -11.900   2.252  1.00  0.00     0.272 C 
BRANCH  11  12
HETATM   12  C   UNL     1      40.734 -13.038   1.345  1.00  0.00    -0.022 A 
HETATM   13  C   UNL     1      40.695 -12.893  -0.074  1.00  0.00    -0.018 A 
HETATM   14  C   UNL     1      40.221 -13.982  -0.850  1.00  0.00    -0.025 A 
HETATM   15  C   UNL     1      41.097 -11.725  -0.770  1.00  0.00     0.013 A 
HETATM   16  C   UNL     1      40.153 -13.878  -2.247  1.00  0.00     0.012 A 
HETATM   17  C   UNL     1      39.819 -15.169  -0.222  1.00  0.00     0.012 A 
HETATM   18  C   UNL     1      40.551 -12.714  -2.901  1.00  0.00     0.001 A 
HETATM   19  C   UNL     1      41.027 -11.640  -2.163  1.00  0.00     0.001 A 
HETATM   20  C   UNL     1      39.872 -15.302   1.162  1.00  0.00     0.002 A 
HETATM   21  C   UNL     1      40.320 -14.244   1.942  1.00  0.00     0.010 A 
ENDBRANCH  11  12
ENDBRANCH   8  11
ENDBRANCH   7   8
ENDBRANCH   3   7
BRANCH   4  22
HETATM   22  O   UNL     1      41.191 -12.283   6.432  1.00  0.00    -0.360 OA
HETATM   23  H   UNL     1      41.896 -11.913   7.000  1.00  0.00     0.217 HD
ENDBRANCH   4  22
BRANCH   1  24
HETATM   24  C   UNL     1      42.911 -17.073   3.955  1.00  0.00     0.070 A 
HETATM   25  N   UNL     1      43.602 -17.957   4.725  1.00  0.00    -0.224 NA
HETATM   26  C   UNL     1      44.024 -19.100   4.134  1.00  0.00     0.164 A 
HETATM   27  C   UNL     1      43.788 -19.416   2.808  1.00  0.00     0.058 A 
HETATM   28  C   UNL     1      43.074 -18.512   2.035  1.00  0.00     0.007 A 
HETATM   29  C   UNL     1      42.627 -17.326   2.613  1.00  0.00     0.032 A 
BRANCH  26  30
HETATM   30  O   UNL     1      44.731 -20.035   4.861  1.00  0.00    -0.339 OA
HETATM   31  C   UNL     1      43.906 -20.968   5.546  1.00  0.00     0.211 C 
ENDBRANCH  26  30
ENDBRANCH   1  24
TORSDOF 7
ENDMDL
MODEL 10
REMARK VINA RESULT:      -8.1      2.028      5.485
REMARK  7 active torsions:
REMARK  status: ('A' for Active; 'I' for Inactive)
REMARK    1  A    between atoms: O_2  and  C_3 
REMARK    2  A    between atoms: C_5  and  C_6 
REMARK    3  A    between atoms: C_8  and  C_9 
REMARK    4  A    between atoms: C_9  and  N_10 
REMARK    5  A    between atoms: N_10  and  C_13 
REMARK    6  A    between atoms: C_13  and  C_14 
REMARK    7  A    between atoms: C_24  and  O_25 
ROOT
HETATM    1  C   UNL     1      42.457 -12.237   3.668  1.00  0.00    -0.007 A 
HETATM    2  C   UNL     1      41.911 -13.164   4.577  1.00  0.00     0.025 A 
HETATM    3  C   UNL     1      42.448 -13.358   5.863  1.00  0.00     0.001 A 
HETATM    4  C   UNL     1      43.547 -12.590   6.246  1.00  0.00     0.073 A 
HETATM    5  C   UNL     1      44.098 -11.649   5.383  1.00  0.00     0.038 A 
HETATM    6  C   UNL     1      43.557 -11.480   4.103  1.00  0.00     0.016 A 
ENDROOT
BRANCH   3   7
HETATM    7  C   UNL     1      41.871 -14.411   6.762  1.00  0.00     0.274 C 
BRANCH   7   8
HETATM    8  N   UNL     1      42.148 -15.791   6.279  1.00  0.00    -0.067 N 
HETATM    9  H   UNL     1      42.005 -16.459   7.045  1.00  0.00     0.277 HD
HETATM   10  H   UNL     1      41.462 -16.044   5.558  1.00  0.00     0.277 HD
BRANCH   8  11
HETATM   11  C   UNL     1      43.514 -16.009   5.719  1.00  0.00     0.272 C 
BRANCH  11  12
HETATM   12  C   UNL     1      43.422 -16.769   4.421  1.00  0.00    -0.022 A 
HETATM   13  C   UNL     1      43.606 -18.183   4.360  1.00  0.00    -0.018 A 
HETATM   14  C   UNL     1      43.601 -18.808   3.086  1.00  0.00    -0.025 A 
HETATM   15  C   UNL     1      43.799 -19.015   5.491  1.00  0.00     0.013 A 
HETATM   16  C   UNL     1      43.791 -20.194   2.978  1.00  0.00     0.012 A 
HETATM   17  C   UNL     1      43.403 -18.042   1.929  1.00  0.00     0.012 A 
HETATM   18  C   UNL     1      43.984 -20.983   4.110  1.00  0.00     0.001 A 
HETATM   19  C   UNL     1      43.983 -20.393   5.366  1.00  0.00     0.001 A 
HETATM   20  C   UNL     1      43.214 -16.666   2.003  1.00  0.00     0.002 A 
HETATM   21  C   UNL     1      43.229 -16.031   3.238  1.00  0.00     0.010 A 
ENDBRANCH  11  12
ENDBRANCH   8  11
ENDBRANCH   7   8
ENDBRANCH   3   7
BRANCH   4  22
HETATM   22  O   UNL     1      44.096 -12.808   7.475  1.00  0.00    -0.360 OA
HETATM   23  H   UNL     1      43.395 -13.123   8.081  1.00  0.00     0.217 HD
ENDBRANCH   4  22
BRANCH   1  24
HETATM   24  C   UNL     1      41.894 -12.115   2.307  1.00  0.00     0.070 A 
HETATM   25  N   UNL     1      41.568 -13.296   1.716  1.00  0.00    -0.224 NA
HETATM   26  C   UNL     1      41.059 -13.246   0.463  1.00  0.00     0.164 A 
HETATM   27  C   UNL     1      40.851 -12.072  -0.239  1.00  0.00     0.058 A 
HETATM   28  C   UNL     1      41.177 -10.873   0.377  1.00  0.00     0.007 A 
HETATM   29  C   UNL     1      41.705 -10.891   1.666  1.00  0.00     0.032 A 
BRANCH  26  30
HETATM   30  O   UNL     1      40.711 -14.410  -0.190  1.00  0.00    -0.339 OA
HETATM   31  C   UNL     1      39.489 -14.316  -0.911  1.00  0.00     0.211 C 
ENDBRANCH  26  30
ENDBRANCH   1  24
TORSDOF 7
ENDMDL
