MODEL 1
REMARK VINA RESULT:      -8.2      0.000      0.000
REMARK  8 active torsions:
REMARK  status: ('A' for Active; 'I' for Inactive)
REMARK    1  A    between atoms: C_2  and  O_3 
REMARK    2  A    between atoms: C_2  and  C_4 
REMARK    3  A    between atoms: C_2  and  C_29 
REMARK    4  A    between atoms: N_11  and  C_13 
REMARK    5  A    between atoms: C_13  and  C_14 
REMARK    6  A    between atoms: C_16  and  S_17 
REMARK    7  A    between atoms: S_17  and  C_18 
REMARK    8  A    between atoms: C_29  and  N_30 
ROOT
HETATM    1  C   UNL     1      42.773 -16.222   4.780  1.00  0.00    -0.022 A 
HETATM    2  C   UNL     1      43.186 -14.909   4.459  1.00  0.00     0.022 A 
HETATM    3  C   UNL     1      42.355 -13.990   3.794  1.00  0.00     0.002 A 
HETATM    4  C   UNL     1      41.063 -14.388   3.465  1.00  0.00     0.076 A 
HETATM    5  O   UNL     1      40.205 -13.561   2.800  1.00  0.00    -0.349 OA
HETATM    6  C   UNL     1      39.811 -12.445   3.608  1.00  0.00     0.203 C 
HETATM    7  C   UNL     1      40.751 -11.255   3.404  1.00  0.00     0.262 C 
HETATM    8  N   UNL     1      42.123 -11.462   4.021  1.00  0.00    -0.059 N 
HETATM    9  H   UNL     1      42.674 -10.642   3.742  1.00  0.00     0.280 HD
HETATM   10  C   UNL     1      42.870 -12.631   3.410  1.00  0.00     0.276 C 
HETATM   11  C   UNL     1      40.624 -15.676   3.752  1.00  0.00     0.038 A 
HETATM   12  C   UNL     1      41.464 -16.578   4.414  1.00  0.00     0.013 A 
ENDROOT
BRANCH   8  13
HETATM   13  C   UNL     1      42.123 -11.438   5.535  1.00  0.00     0.299 C 
BRANCH  13  14
HETATM   14  C   UNL     1      43.464 -11.180   6.119  1.00  0.00     0.080 A 
HETATM   15  O   UNL     1      43.537 -10.208   7.071  1.00  0.00    -0.306 OA
HETATM   16  C   UNL     1      44.832 -10.156   7.517  1.00  0.00     0.120 A 
HETATM   17  C   UNL     1      45.588 -11.066   6.806  1.00  0.00     0.047 A 
HETATM   18  C   UNL     1      44.711 -11.730   5.913  1.00  0.00     0.038 A 
BRANCH  16  19
HETATM   19  S   UNL     1      45.357  -9.071   8.776  1.00  0.00    -0.025 SA
BRANCH  19  20
HETATM   20  C   UNL     1      44.546  -9.836  10.098  1.00  0.00     0.197 A 
HETATM   21  N   UNL     1      43.347  -9.415  10.600  1.00  0.00    -0.322 N 
HETATM   22  C   UNL     1      42.549  -8.286  10.198  1.00  0.00     0.159 C 
HETATM   23  C   UNL     1      43.043 -10.291  11.601  1.00  0.00     0.235 A 
HETATM   24  N   UNL     1      43.985 -11.205  11.691  1.00  0.00    -0.143 NA
HETATM   25  N   UNL     1      44.937 -10.912  10.747  1.00  0.00    -0.123 NA
ENDBRANCH  19  20
ENDBRANCH  16  19
ENDBRANCH  13  14
ENDBRANCH   8  13
BRANCH   1  26
HETATM   26  C   UNL     1      43.722 -17.176   5.534  1.00  0.00     0.105 C 
HETATM   27  C   UNL     1      44.727 -16.401   6.409  1.00  0.00     0.053 C 
BRANCH  26  28
HETATM   28  O   UNL     1      42.905 -17.965   6.411  1.00  0.00    -0.384 OA
HETATM   29  H   UNL     1      42.271 -18.474   5.873  1.00  0.00     0.211 HD
ENDBRANCH  26  28
BRANCH  26  30
HETATM   30  C   UNL     1      44.501 -18.163   4.587  1.00  0.00     0.276 C 
BRANCH  30  31
HETATM   31  N   UNL     1      43.773 -19.468   4.238  1.00  0.00    -0.076 N 
HETATM   32  H   UNL     1      42.802 -19.404   4.565  1.00  0.00     0.279 HD
HETATM   33  C   UNL     1      43.714 -19.746   2.756  1.00  0.00     0.269 C 
HETATM   34  C   UNL     1      44.377 -20.634   4.977  1.00  0.00     0.269 C 
ENDBRANCH  30  31
ENDBRANCH  26  30
ENDBRANCH   1  26
TORSDOF 8
ENDMDL
MODEL 2
REMARK VINA RESULT:      -8.2      2.042      4.739
REMARK  8 active torsions:
REMARK  status: ('A' for Active; 'I' for Inactive)
REMARK    1  A    between atoms: C_2  and  O_3 
REMARK    2  A    between atoms: C_2  and  C_4 
REMARK    3  A    between atoms: C_2  and  C_29 
REMARK    4  A    between atoms: N_11  and  C_13 
REMARK    5  A    between atoms: C_13  and  C_14 
REMARK    6  A    between atoms: C_16  and  S_17 
REMARK    7  A    between atoms: S_17  and  C_18 
REMARK    8  A    between atoms: C_29  and  N_30 
ROOT
HETATM    1  C   UNL     1      40.828 -14.825   2.519  1.00  0.00    -0.022 A 
HETATM    2  C   UNL     1      40.814 -14.299   3.830  1.00  0.00     0.022 A 
HETATM    3  C   UNL     1      41.245 -15.033   4.950  1.00  0.00     0.002 A 
HETATM    4  C   UNL     1      41.730 -16.321   4.746  1.00  0.00     0.076 A 
HETATM    5  O   UNL     1      42.145 -17.103   5.786  1.00  0.00    -0.349 OA
HETATM    6  C   UNL     1      43.340 -16.592   6.389  1.00  0.00     0.203 C 
HETATM    7  C   UNL     1      43.014 -15.637   7.540  1.00  0.00     0.262 C 
HETATM    8  N   UNL     1      42.452 -14.307   7.074  1.00  0.00    -0.059 N 
HETATM    9  H   UNL     1      42.198 -13.802   7.932  1.00  0.00     0.280 HD
HETATM   10  C   UNL     1      41.138 -14.453   6.333  1.00  0.00     0.276 C 
HETATM   11  C   UNL     1      41.747 -16.878   3.473  1.00  0.00     0.038 A 
HETATM   12  C   UNL     1      41.315 -16.134   2.369  1.00  0.00     0.013 A 
ENDROOT
BRANCH   8  13
HETATM   13  C   UNL     1      43.467 -13.421   6.384  1.00  0.00     0.299 C 
BRANCH  13  14
HETATM   14  C   UNL     1      43.496 -12.034   6.914  1.00  0.00     0.080 A 
HETATM   15  O   UNL     1      44.368 -11.790   7.933  1.00  0.00    -0.306 OA
HETATM   16  C   UNL     1      44.283 -10.458   8.245  1.00  0.00     0.120 A 
HETATM   17  C   UNL     1      43.317  -9.872   7.453  1.00  0.00     0.047 A 
HETATM   18  C   UNL     1      42.815 -10.880   6.592  1.00  0.00     0.038 A 
BRANCH  16  19
HETATM   19  S   UNL     1      45.266  -9.709   9.474  1.00  0.00    -0.025 SA
BRANCH  19  20
HETATM   20  C   UNL     1      44.250 -10.055  10.830  1.00  0.00     0.197 A 
HETATM   21  N   UNL     1      43.344  -9.172  11.345  1.00  0.00    -0.322 N 
HETATM   22  C   UNL     1      43.069  -7.820  10.933  1.00  0.00     0.159 C 
HETATM   23  C   UNL     1      42.735  -9.832  12.374  1.00  0.00     0.235 A 
HETATM   24  N   UNL     1      43.222 -11.050  12.466  1.00  0.00    -0.143 NA
HETATM   25  N   UNL     1      44.183 -11.187  11.497  1.00  0.00    -0.123 NA
ENDBRANCH  19  20
ENDBRANCH  16  19
ENDBRANCH  13  14
ENDBRANCH   8  13
BRANCH   1  26
HETATM   26  C   UNL     1      40.367 -13.961   1.327  1.00  0.00     0.105 C 
HETATM   27  C   UNL     1      39.990 -14.828   0.110  1.00  0.00     0.053 C 
BRANCH  26  28
HETATM   28  O   UNL     1      39.181 -13.271   1.749  1.00  0.00    -0.384 OA
HETATM   29  H   UNL     1      38.430 -13.893   1.713  1.00  0.00     0.211 HD
ENDBRANCH  26  28
BRANCH  26  30
HETATM   30  C   UNL     1      41.422 -12.877   0.893  1.00  0.00     0.276 C 
BRANCH  30  31
HETATM   31  N   UNL     1      41.331 -11.527   1.617  1.00  0.00    -0.076 N 
HETATM   32  H   UNL     1      40.453 -11.494   2.148  1.00  0.00     0.279 HD
HETATM   33  C   UNL     1      42.445 -11.299   2.609  1.00  0.00     0.269 C 
HETATM   34  C   UNL     1      41.255 -10.392   0.629  1.00  0.00     0.269 C 
ENDBRANCH  30  31
ENDBRANCH  26  30
ENDBRANCH   1  26
TORSDOF 8
ENDMDL
MODEL 3
REMARK VINA RESULT:      -8.0      2.510      5.026
REMARK  8 active torsions:
REMARK  status: ('A' for Active; 'I' for Inactive)
REMARK    1  A    between atoms: C_2  and  O_3 
REMARK    2  A    between atoms: C_2  and  C_4 
REMARK    3  A    between atoms: C_2  and  C_29 
REMARK    4  A    between atoms: N_11  and  C_13 
REMARK    5  A    between atoms: C_13  and  C_14 
REMARK    6  A    between atoms: C_16  and  S_17 
REMARK    7  A    between atoms: S_17  and  C_18 
REMARK    8  A    between atoms: C_29  and  N_30 
ROOT
HETATM    1  C   UNL     1      40.679 -14.667   2.395  1.00  0.00    -0.022 A 
HETATM    2  C   UNL     1      40.754 -13.964   3.618  1.00  0.00     0.022 A 
HETATM    3  C   UNL     1      41.204 -14.557   4.811  1.00  0.00     0.002 A 
HETATM    4  C   UNL     1      41.618 -15.885   4.772  1.00  0.00     0.076 A 
HETATM    5  O   UNL     1      42.047 -16.536   5.893  1.00  0.00    -0.349 OA
HETATM    6  C   UNL     1      43.292 -16.010   6.367  1.00  0.00     0.203 C 
HETATM    7  C   UNL     1      43.068 -14.889   7.384  1.00  0.00     0.262 C 
HETATM    8  N   UNL     1      42.547 -13.608   6.759  1.00  0.00    -0.059 N 
HETATM    9  H   UNL     1      42.360 -12.976   7.546  1.00  0.00     0.280 HD
HETATM   10  C   UNL     1      41.193 -13.785   6.101  1.00  0.00     0.276 C 
HETATM   11  C   UNL     1      41.546 -16.614   3.590  1.00  0.00     0.038 A 
HETATM   12  C   UNL     1      41.096 -16.009   2.411  1.00  0.00     0.013 A 
ENDROOT
BRANCH   8  13
HETATM   13  C   UNL     1      43.568 -12.882   5.908  1.00  0.00     0.299 C 
BRANCH  13  14
HETATM   14  C   UNL     1      44.446 -11.973   6.688  1.00  0.00     0.080 A 
HETATM   15  O   UNL     1      43.930 -11.475   7.847  1.00  0.00    -0.306 OA
HETATM   16  C   UNL     1      44.899 -10.708   8.439  1.00  0.00     0.120 A 
HETATM   17  C   UNL     1      46.013 -10.683   7.625  1.00  0.00     0.047 A 
HETATM   18  C   UNL     1      45.728 -11.501   6.503  1.00  0.00     0.038 A 
BRANCH  16  19
HETATM   19  S   UNL     1      44.671  -9.913   9.974  1.00  0.00    -0.025 SA
BRANCH  19  20
HETATM   20  C   UNL     1      43.780  -8.547   9.399  1.00  0.00     0.197 A 
HETATM   21  N   UNL     1      42.477  -8.297   9.726  1.00  0.00    -0.322 N 
HETATM   22  C   UNL     1      41.587  -9.083  10.540  1.00  0.00     0.159 C 
HETATM   23  C   UNL     1      42.161  -7.126   9.100  1.00  0.00     0.235 A 
HETATM   24  N   UNL     1      43.212  -6.675   8.450  1.00  0.00    -0.143 NA
HETATM   25  N   UNL     1      44.230  -7.577   8.633  1.00  0.00    -0.123 NA
ENDBRANCH  19  20
ENDBRANCH  16  19
ENDBRANCH  13  14
ENDBRANCH   8  13
BRANCH   1  26
HETATM   26  C   UNL     1      40.202 -13.954   1.113  1.00  0.00     0.105 C 
HETATM   27  C   UNL     1      39.871 -14.961  -0.006  1.00  0.00     0.053 C 
BRANCH  26  28
HETATM   28  O   UNL     1      38.986 -13.269   1.448  1.00  0.00    -0.384 OA
HETATM   29  H   UNL     1      38.983 -12.401   1.002  1.00  0.00     0.211 HD
ENDBRANCH  26  28
BRANCH  26  30
HETATM   30  C   UNL     1      41.221 -12.884   0.574  1.00  0.00     0.276 C 
BRANCH  30  31
HETATM   31  N   UNL     1      40.614 -11.731  -0.239  1.00  0.00    -0.076 N 
HETATM   32  H   UNL     1      39.593 -11.840  -0.255  1.00  0.00     0.279 HD
HETATM   33  C   UNL     1      40.897 -10.369   0.345  1.00  0.00     0.269 C 
HETATM   34  C   UNL     1      41.056 -11.799  -1.678  1.00  0.00     0.269 C 
ENDBRANCH  30  31
ENDBRANCH  26  30
ENDBRANCH   1  26
TORSDOF 8
ENDMDL
MODEL 4
REMARK VINA RESULT:      -7.6      4.274      9.096
REMARK  8 active torsions:
REMARK  status: ('A' for Active; 'I' for Inactive)
REMARK    1  A    between atoms: C_2  and  O_3 
REMARK    2  A    between atoms: C_2  and  C_4 
REMARK    3  A    between atoms: C_2  and  C_29 
REMARK    4  A    between atoms: N_11  and  C_13 
REMARK    5  A    between atoms: C_13  and  C_14 
REMARK    6  A    between atoms: C_16  and  S_17 
REMARK    7  A    between atoms: S_17  and  C_18 
REMARK    8  A    between atoms: C_29  and  N_30 
ROOT
HETATM    1  C   UNL     1      42.791 -13.080   5.600  1.00  0.00    -0.022 A 
HETATM    2  C   UNL     1      42.836 -13.489   4.248  1.00  0.00     0.022 A 
HETATM    3  C   UNL     1      43.230 -14.782   3.856  1.00  0.00     0.002 A 
HETATM    4  C   UNL     1      43.560 -15.699   4.848  1.00  0.00     0.076 A 
HETATM    5  O   UNL     1      43.972 -16.965   4.545  1.00  0.00    -0.349 OA
HETATM    6  C   UNL     1      42.914 -17.744   3.973  1.00  0.00     0.203 C 
HETATM    7  C   UNL     1      42.905 -17.630   2.447  1.00  0.00     0.262 C 
HETATM    8  N   UNL     1      42.434 -16.276   1.950  1.00  0.00    -0.059 N 
HETATM    9  H   UNL     1      42.556 -16.301   0.931  1.00  0.00     0.280 HD
HETATM   10  C   UNL     1      43.333 -15.141   2.399  1.00  0.00     0.276 C 
HETATM   11  C   UNL     1      43.541 -15.331   6.188  1.00  0.00     0.038 A 
HETATM   12  C   UNL     1      43.147 -14.041   6.561  1.00  0.00     0.013 A 
ENDROOT
BRANCH   8  13
HETATM   13  C   UNL     1      40.955 -16.026   2.161  1.00  0.00     0.299 C 
BRANCH  13  14
HETATM   14  C   UNL     1      40.510 -14.690   1.690  1.00  0.00     0.080 A 
HETATM   15  O   UNL     1      40.924 -14.314   0.447  1.00  0.00    -0.306 OA
HETATM   16  C   UNL     1      40.374 -13.088   0.178  1.00  0.00     0.120 A 
HETATM   17  C   UNL     1      39.652 -12.668   1.276  1.00  0.00     0.047 A 
HETATM   18  C   UNL     1      39.732 -13.698   2.246  1.00  0.00     0.038 A 
BRANCH  16  19
HETATM   19  S   UNL     1      40.614 -12.254  -1.335  1.00  0.00    -0.025 SA
BRANCH  19  20
HETATM   20  C   UNL     1      39.486 -13.159  -2.282  1.00  0.00     0.197 A 
HETATM   21  N   UNL     1      38.150 -12.878  -2.348  1.00  0.00    -0.322 N 
HETATM   22  C   UNL     1      37.411 -11.854  -1.656  1.00  0.00     0.159 C 
HETATM   23  C   UNL     1      37.626 -13.794  -3.213  1.00  0.00     0.235 A 
HETATM   24  N   UNL     1      38.584 -14.572  -3.667  1.00  0.00    -0.143 NA
HETATM   25  N   UNL     1      39.756 -14.176  -3.073  1.00  0.00    -0.123 NA
ENDBRANCH  19  20
ENDBRANCH  16  19
ENDBRANCH  13  14
ENDBRANCH   8  13
BRANCH   1  26
HETATM   26  C   UNL     1      42.326 -11.657   5.969  1.00  0.00     0.105 C 
HETATM   27  C   UNL     1      41.945 -10.842   4.717  1.00  0.00     0.053 C 
BRANCH  26  28
HETATM   28  O   UNL     1      41.141 -11.801   6.766  1.00  0.00    -0.384 OA
HETATM   29  H   UNL     1      41.323 -11.453   7.659  1.00  0.00     0.211 HD
ENDBRANCH  26  28
BRANCH  26  30
HETATM   30  C   UNL     1      43.380 -10.854   6.818  1.00  0.00     0.276 C 
BRANCH  30  31
HETATM   31  N   UNL     1      42.895 -10.352   8.185  1.00  0.00    -0.076 N 
HETATM   32  H   UNL     1      42.054 -10.877   8.451  1.00  0.00     0.279 HD
HETATM   33  C   UNL     1      43.901 -10.554   9.291  1.00  0.00     0.269 C 
HETATM   34  C   UNL     1      42.469  -8.909   8.107  1.00  0.00     0.269 C 
ENDBRANCH  30  31
ENDBRANCH  26  30
ENDBRANCH   1  26
TORSDOF 8
ENDMDL
MODEL 5
REMARK VINA RESULT:      -7.6      1.580      2.265
REMARK  8 active torsions:
REMARK  status: ('A' for Active; 'I' for Inactive)
REMARK    1  A    between atoms: C_2  and  O_3 
REMARK    2  A    between atoms: C_2  and  C_4 
REMARK    3  A    between atoms: C_2  and  C_29 
REMARK    4  A    between atoms: N_11  and  C_13 
REMARK    5  A    between atoms: C_13  and  C_14 
REMARK    6  A    between atoms: C_16  and  S_17 
REMARK    7  A    between atoms: S_17  and  C_18 
REMARK    8  A    between atoms: C_29  and  N_30 
ROOT
HETATM    1  C   UNL     1      41.843 -14.646   2.477  1.00  0.00    -0.022 A 
HETATM    2  C   UNL     1      42.452 -13.412   2.800  1.00  0.00     0.022 A 
HETATM    3  C   UNL     1      41.739 -12.200   2.847  1.00  0.00     0.002 A 
HETATM    4  C   UNL     1      40.372 -12.229   2.591  1.00  0.00     0.076 A 
HETATM    5  O   UNL     1      39.618 -11.092   2.597  1.00  0.00    -0.349 OA
HETATM    6  C   UNL     1      39.507 -10.536   3.912  1.00  0.00     0.203 C 
HETATM    7  C   UNL     1      40.621  -9.522   4.180  1.00  0.00     0.262 C 
HETATM    8  N   UNL     1      41.985 -10.163   4.359  1.00  0.00    -0.059 N 
HETATM    9  H   UNL     1      42.646  -9.381   4.443  1.00  0.00     0.280 HD
HETATM   10  C   UNL     1      42.451 -10.904   3.122  1.00  0.00     0.276 C 
HETATM   11  C   UNL     1      39.740 -13.421   2.257  1.00  0.00     0.038 A 
HETATM   12  C   UNL     1      40.464 -14.619   2.214  1.00  0.00     0.013 A 
ENDROOT
BRANCH   8  13
HETATM   13  C   UNL     1      42.131 -10.941   5.650  1.00  0.00     0.299 C 
BRANCH  13  14
HETATM   14  C   UNL     1      43.501 -10.881   6.221  1.00  0.00     0.080 A 
HETATM   15  O   UNL     1      43.706  -9.973   7.217  1.00  0.00    -0.306 OA
HETATM   16  C   UNL     1      45.002 -10.105   7.641  1.00  0.00     0.120 A 
HETATM   17  C   UNL     1      45.630 -11.066   6.876  1.00  0.00     0.047 A 
HETATM   18  C   UNL     1      44.666 -11.571   5.968  1.00  0.00     0.038 A 
BRANCH  16  19
HETATM   19  S   UNL     1      45.675  -9.156   8.940  1.00  0.00    -0.025 SA
BRANCH  19  20
HETATM   20  C   UNL     1      44.702  -9.791  10.222  1.00  0.00     0.197 A 
HETATM   21  N   UNL     1      43.618  -9.144  10.745  1.00  0.00    -0.322 N 
HETATM   22  C   UNL     1      43.090  -7.849  10.402  1.00  0.00     0.159 C 
HETATM   23  C   UNL     1      43.119  -9.982  11.700  1.00  0.00     0.235 A 
HETATM   24  N   UNL     1      43.838 -11.082  11.743  1.00  0.00    -0.143 NA
HETATM   25  N   UNL     1      44.842 -10.957  10.814  1.00  0.00    -0.123 NA
ENDBRANCH  19  20
ENDBRANCH  16  19
ENDBRANCH  13  14
ENDBRANCH   8  13
BRANCH   1  26
HETATM   26  C   UNL     1      42.673 -15.946   2.467  1.00  0.00     0.105 C 
HETATM   27  C   UNL     1      41.800 -17.173   2.144  1.00  0.00     0.053 C 
BRANCH  26  28
HETATM   28  O   UNL     1      43.638 -15.814   1.412  1.00  0.00    -0.384 OA
HETATM   29  H   UNL     1      43.467 -16.505   0.746  1.00  0.00     0.211 HD
ENDBRANCH  26  28
BRANCH  26  30
HETATM   30  C   UNL     1      43.460 -16.198   3.806  1.00  0.00     0.276 C 
BRANCH  30  31
HETATM   31  N   UNL     1      43.257 -17.576   4.452  1.00  0.00    -0.076 N 
HETATM   32  H   UNL     1      42.424 -18.014   4.042  1.00  0.00     0.279 HD
HETATM   33  C   UNL     1      44.406 -18.525   4.219  1.00  0.00     0.269 C 
HETATM   34  C   UNL     1      42.966 -17.441   5.925  1.00  0.00     0.269 C 
ENDBRANCH  30  31
ENDBRANCH  26  30
ENDBRANCH   1  26
TORSDOF 8
ENDMDL
MODEL 6
REMARK VINA RESULT:      -7.6      4.330      7.879
REMARK  8 active torsions:
REMARK  status: ('A' for Active; 'I' for Inactive)
REMARK    1  A    between atoms: C_2  and  O_3 
REMARK    2  A    between atoms: C_2  and  C_4 
REMARK    3  A    between atoms: C_2  and  C_29 
REMARK    4  A    between atoms: N_11  and  C_13 
REMARK    5  A    between atoms: C_13  and  C_14 
REMARK    6  A    between atoms: C_16  and  S_17 
REMARK    7  A    between atoms: S_17  and  C_18 
REMARK    8  A    between atoms: C_29  and  N_30 
ROOT
HETATM    1  C   UNL     1      43.040 -14.904   6.035  1.00  0.00    -0.022 A 
HETATM    2  C   UNL     1      41.945 -14.449   5.265  1.00  0.00     0.022 A 
HETATM    3  C   UNL     1      41.670 -13.085   5.065  1.00  0.00     0.002 A 
HETATM    4  C   UNL     1      42.530 -12.149   5.629  1.00  0.00     0.076 A 
HETATM    5  O   UNL     1      42.317 -10.807   5.496  1.00  0.00    -0.349 OA
HETATM    6  C   UNL     1      42.496 -10.373   4.143  1.00  0.00     0.203 C 
HETATM    7  C   UNL     1      41.180 -10.425   3.365  1.00  0.00     0.262 C 
HETATM    8  N   UNL     1      40.724 -11.838   3.052  1.00  0.00    -0.059 N 
HETATM    9  H   UNL     1      39.802 -11.738   2.613  1.00  0.00     0.280 HD
HETATM   10  C   UNL     1      40.449 -12.655   4.299  1.00  0.00     0.276 C 
HETATM   11  C   UNL     1      43.610 -12.556   6.404  1.00  0.00     0.038 A 
HETATM   12  C   UNL     1      43.871 -13.918   6.594  1.00  0.00     0.013 A 
ENDROOT
BRANCH   8  13
HETATM   13  C   UNL     1      41.577 -12.541   2.017  1.00  0.00     0.299 C 
BRANCH  13  14
HETATM   14  C   UNL     1      40.866 -13.641   1.317  1.00  0.00     0.080 A 
HETATM   15  O   UNL     1      40.458 -13.389   0.041  1.00  0.00    -0.306 OA
HETATM   16  C   UNL     1      39.874 -14.530  -0.444  1.00  0.00     0.120 A 
HETATM   17  C   UNL     1      39.870 -15.489   0.548  1.00  0.00     0.047 A 
HETATM   18  C   UNL     1      40.513 -14.924   1.677  1.00  0.00     0.038 A 
BRANCH  16  19
HETATM   19  S   UNL     1      39.248 -14.657  -2.066  1.00  0.00    -0.025 SA
BRANCH  19  20
HETATM   20  C   UNL     1      39.747 -13.101  -2.632  1.00  0.00     0.197 A 
HETATM   21  N   UNL     1      38.988 -11.971  -2.514  1.00  0.00    -0.322 N 
HETATM   22  C   UNL     1      37.665 -11.827  -1.964  1.00  0.00     0.159 C 
HETATM   23  C   UNL     1      39.742 -10.967  -3.051  1.00  0.00     0.235 A 
HETATM   24  N   UNL     1      40.899 -11.449  -3.450  1.00  0.00    -0.143 NA
HETATM   25  N   UNL     1      40.898 -12.797  -3.192  1.00  0.00    -0.123 NA
ENDBRANCH  19  20
ENDBRANCH  16  19
ENDBRANCH  13  14
ENDBRANCH   8  13
BRANCH   1  26
HETATM   26  C   UNL     1      43.305 -16.414   6.198  1.00  0.00     0.105 C 
HETATM   27  C   UNL     1      43.901 -16.740   7.581  1.00  0.00     0.053 C 
BRANCH  26  28
HETATM   28  O   UNL     1      42.032 -17.071   6.111  1.00  0.00    -0.384 OA
HETATM   29  H   UNL     1      42.145 -18.006   6.366  1.00  0.00     0.211 HD
ENDBRANCH  26  28
BRANCH  26  30
HETATM   30  C   UNL     1      44.230 -17.013   5.074  1.00  0.00     0.276 C 
BRANCH  30  31
HETATM   31  N   UNL     1      43.639 -18.182   4.274  1.00  0.00    -0.076 N 
HETATM   32  H   UNL     1      42.660 -18.314   4.554  1.00  0.00     0.279 HD
HETATM   33  C   UNL     1      43.636 -17.951   2.783  1.00  0.00     0.269 C 
HETATM   34  C   UNL     1      44.340 -19.473   4.613  1.00  0.00     0.269 C 
ENDBRANCH  30  31
ENDBRANCH  26  30
ENDBRANCH   1  26
TORSDOF 8
ENDMDL
MODEL 7
REMARK VINA RESULT:      -7.5      2.287      3.220
REMARK  8 active torsions:
REMARK  status: ('A' for Active; 'I' for Inactive)
REMARK    1  A    between atoms: C_2  and  O_3 
REMARK    2  A    between atoms: C_2  and  C_4 
REMARK    3  A    between atoms: C_2  and  C_29 
REMARK    4  A    between atoms: N_11  and  C_13 
REMARK    5  A    between atoms: C_13  and  C_14 
REMARK    6  A    between atoms: C_16  and  S_17 
REMARK    7  A    between atoms: S_17  and  C_18 
REMARK    8  A    between atoms: C_29  and  N_30 
ROOT
HETATM    1  C   UNL     1      41.261 -15.068   4.209  1.00  0.00    -0.022 A 
HETATM    2  C   UNL     1      41.937 -13.827   4.208  1.00  0.00     0.022 A 
HETATM    3  C   UNL     1      42.056 -13.026   3.058  1.00  0.00     0.002 A 
HETATM    4  C   UNL     1      41.458 -13.467   1.882  1.00  0.00     0.076 A 
HETATM    5  O   UNL     1      41.549 -12.756   0.721  1.00  0.00    -0.349 OA
HETATM    6  C   UNL     1      40.826 -11.522   0.797  1.00  0.00     0.203 C 
HETATM    7  C   UNL     1      41.721 -10.385   1.294  1.00  0.00     0.262 C 
HETATM    8  N   UNL     1      42.068 -10.494   2.767  1.00  0.00    -0.059 N 
HETATM    9  H   UNL     1      42.732  -9.733   2.949  1.00  0.00     0.280 HD
HETATM   10  C   UNL     1      42.851 -11.750   3.094  1.00  0.00     0.276 C 
HETATM   11  C   UNL     1      40.796 -14.689   1.840  1.00  0.00     0.038 A 
HETATM   12  C   UNL     1      40.686 -15.475   2.993  1.00  0.00     0.013 A 
ENDROOT
BRANCH   8  13
HETATM   13  C   UNL     1      40.899 -10.223   3.692  1.00  0.00     0.299 C 
BRANCH  13  14
HETATM   14  C   UNL     1      41.229  -9.291   4.800  1.00  0.00     0.080 A 
HETATM   15  O   UNL     1      41.538  -9.856   6.001  1.00  0.00    -0.306 OA
HETATM   16  C   UNL     1      41.858  -8.845   6.868  1.00  0.00     0.120 A 
HETATM   17  C   UNL     1      41.702  -7.634   6.225  1.00  0.00     0.047 A 
HETATM   18  C   UNL     1      41.306  -7.918   4.894  1.00  0.00     0.038 A 
BRANCH  16  19
HETATM   19  S   UNL     1      42.358  -9.132   8.514  1.00  0.00    -0.025 SA
BRANCH  19  20
HETATM   20  C   UNL     1      44.066  -9.133   8.242  1.00  0.00     0.197 A 
HETATM   21  N   UNL     1      44.769 -10.232   7.835  1.00  0.00    -0.322 N 
HETATM   22  C   UNL     1      44.292 -11.568   7.592  1.00  0.00     0.159 C 
HETATM   23  C   UNL     1      46.062  -9.812   7.712  1.00  0.00     0.235 A 
HETATM   24  N   UNL     1      46.141  -8.532   8.003  1.00  0.00    -0.143 NA
HETATM   25  N   UNL     1      44.882  -8.107   8.345  1.00  0.00    -0.123 NA
ENDBRANCH  19  20
ENDBRANCH  16  19
ENDBRANCH  13  14
ENDBRANCH   8  13
BRANCH   1  26
HETATM   26  C   UNL     1      41.141 -15.890   5.508  1.00  0.00     0.105 C 
HETATM   27  C   UNL     1      41.298 -15.002   6.758  1.00  0.00     0.053 C 
BRANCH  26  28
HETATM   28  O   UNL     1      39.814 -16.437   5.532  1.00  0.00    -0.384 OA
HETATM   29  H   UNL     1      39.800 -17.244   4.985  1.00  0.00     0.211 HD
ENDBRANCH  26  28
BRANCH  26  30
HETATM   30  C   UNL     1      42.155 -17.091   5.587  1.00  0.00     0.276 C 
BRANCH  30  31
HETATM   31  N   UNL     1      43.553 -16.825   5.010  1.00  0.00    -0.076 N 
HETATM   32  H   UNL     1      43.516 -15.980   4.428  1.00  0.00     0.279 HD
HETATM   33  C   UNL     1      44.602 -16.579   6.066  1.00  0.00     0.269 C 
HETATM   34  C   UNL     1      43.974 -17.940   4.088  1.00  0.00     0.269 C 
ENDBRANCH  30  31
ENDBRANCH  26  30
ENDBRANCH   1  26
TORSDOF 8
ENDMDL
MODEL 8
REMARK VINA RESULT:      -7.5      3.140      9.451
REMARK  8 active torsions:
REMARK  status: ('A' for Active; 'I' for Inactive)
REMARK    1  A    between atoms: C_2  and  O_3 
REMARK    2  A    between atoms: C_2  and  C_4 
REMARK    3  A    between atoms: C_2  and  C_29 
REMARK    4  A    between atoms: N_11  and  C_13 
REMARK    5  A    between atoms: C_13  and  C_14 
REMARK    6  A    between atoms: C_16  and  S_17 
REMARK    7  A    between atoms: S_17  and  C_18 
REMARK    8  A    between atoms: C_29  and  N_30 
ROOT
HETATM    1  C   UNL     1      42.810  -9.499  10.743  1.00  0.00    -0.022 A 
HETATM    2  C   UNL     1      42.607  -9.719   9.362  1.00  0.00     0.022 A 
HETATM    3  C   UNL     1      43.663  -9.764   8.435  1.00  0.00     0.002 A 
HETATM    4  C   UNL     1      44.963  -9.611   8.908  1.00  0.00     0.076 A 
HETATM    5  O   UNL     1      46.038  -9.621   8.067  1.00  0.00    -0.349 OA
HETATM    6  C   UNL     1      46.246 -10.914   7.488  1.00  0.00     0.203 C 
HETATM    7  C   UNL     1      45.498 -11.053   6.160  1.00  0.00     0.262 C 
HETATM    8  N   UNL     1      43.993 -11.160   6.328  1.00  0.00    -0.059 N 
HETATM    9  H   UNL     1      43.611 -11.159   5.375  1.00  0.00     0.280 HD
HETATM   10  C   UNL     1      43.386  -9.926   6.966  1.00  0.00     0.276 C 
HETATM   11  C   UNL     1      45.202  -9.379  10.258  1.00  0.00     0.038 A 
HETATM   12  C   UNL     1      44.139  -9.337  11.168  1.00  0.00     0.013 A 
ENDROOT
BRANCH   8  13
HETATM   13  C   UNL     1      43.536 -12.470   6.934  1.00  0.00     0.299 C 
BRANCH  13  14
HETATM   14  C   UNL     1      42.321 -13.026   6.285  1.00  0.00     0.080 A 
HETATM   15  O   UNL     1      42.340 -14.358   5.995  1.00  0.00    -0.306 OA
HETATM   16  C   UNL     1      41.124 -14.685   5.454  1.00  0.00     0.120 A 
HETATM   17  C   UNL     1      40.354 -13.543   5.357  1.00  0.00     0.047 A 
HETATM   18  C   UNL     1      41.117 -12.478   5.896  1.00  0.00     0.038 A 
BRANCH  16  19
HETATM   19  S   UNL     1      40.706 -16.308   4.977  1.00  0.00    -0.025 SA
BRANCH  19  20
HETATM   20  C   UNL     1      41.714 -16.408   3.576  1.00  0.00     0.197 A 
HETATM   21  N   UNL     1      42.940 -17.011   3.563  1.00  0.00    -0.322 N 
HETATM   22  C   UNL     1      43.651 -17.629   4.652  1.00  0.00     0.159 C 
HETATM   23  C   UNL     1      43.388 -16.900   2.278  1.00  0.00     0.235 A 
HETATM   24  N   UNL     1      42.483 -16.288   1.546  1.00  0.00    -0.143 NA
HETATM   25  N   UNL     1      41.430 -15.971   2.367  1.00  0.00    -0.123 NA
ENDBRANCH  19  20
ENDBRANCH  16  19
ENDBRANCH  13  14
ENDBRANCH   8  13
BRANCH   1  26
HETATM   26  C   UNL     1      41.613  -9.486  11.715  1.00  0.00     0.105 C 
HETATM   27  C   UNL     1      40.276  -9.668  10.971  1.00  0.00     0.053 C 
BRANCH  26  28
HETATM   28  O   UNL     1      41.776 -10.613  12.589  1.00  0.00    -0.384 OA
HETATM   29  H   UNL     1      41.939 -10.286  13.493  1.00  0.00     0.211 HD
ENDBRANCH  26  28
BRANCH  26  30
HETATM   30  C   UNL     1      41.545  -8.193  12.610  1.00  0.00     0.276 C 
BRANCH  30  31
HETATM   31  N   UNL     1      42.238  -8.288  13.977  1.00  0.00    -0.076 N 
HETATM   32  H   UNL     1      42.747  -9.178  14.028  1.00  0.00     0.279 HD
HETATM   33  C   UNL     1      43.248  -7.194  14.216  1.00  0.00     0.269 C 
HETATM   34  C   UNL     1      41.224  -8.332  15.090  1.00  0.00     0.269 C 
ENDBRANCH  30  31
ENDBRANCH  26  30
ENDBRANCH   1  26
TORSDOF 8
ENDMDL
MODEL 9
REMARK VINA RESULT:      -7.4      5.683      9.743
REMARK  8 active torsions:
REMARK  status: ('A' for Active; 'I' for Inactive)
REMARK    1  A    between atoms: C_2  and  O_3 
REMARK    2  A    between atoms: C_2  and  C_4 
REMARK    3  A    between atoms: C_2  and  C_29 
REMARK    4  A    between atoms: N_11  and  C_13 
REMARK    5  A    between atoms: C_13  and  C_14 
REMARK    6  A    between atoms: C_16  and  S_17 
REMARK    7  A    between atoms: S_17  and  C_18 
REMARK    8  A    between atoms: C_29  and  N_30 
ROOT
HETATM    1  C   UNL     1      40.831  -9.418  -1.466  1.00  0.00    -0.022 A 
HETATM    2  C   UNL     1      40.119 -10.366  -0.697  1.00  0.00     0.022 A 
HETATM    3  C   UNL     1      39.587 -11.547  -1.246  1.00  0.00     0.002 A 
HETATM    4  C   UNL     1      39.799 -11.799  -2.597  1.00  0.00     0.076 A 
HETATM    5  O   UNL     1      39.296 -12.913  -3.206  1.00  0.00    -0.349 OA
HETATM    6  C   UNL     1      39.931 -14.107  -2.734  1.00  0.00     0.203 C 
HETATM    7  C   UNL     1      39.177 -14.701  -1.542  1.00  0.00     0.262 C 
HETATM    8  N   UNL     1      39.332 -13.888  -0.270  1.00  0.00    -0.059 N 
HETATM    9  H   UNL     1      38.717 -14.338   0.419  1.00  0.00     0.280 HD
HETATM   10  C   UNL     1      38.772 -12.485  -0.399  1.00  0.00     0.276 C 
HETATM   11  C   UNL     1      40.484 -10.885  -3.390  1.00  0.00     0.038 A 
HETATM   12  C   UNL     1      41.007  -9.714  -2.828  1.00  0.00     0.013 A 
ENDROOT
BRANCH   8  13
HETATM   13  C   UNL     1      40.718 -13.958   0.337  1.00  0.00     0.299 C 
BRANCH  13  14
HETATM   14  C   UNL     1      40.772 -14.755   1.588  1.00  0.00     0.080 A 
HETATM   15  O   UNL     1      41.966 -14.776   2.246  1.00  0.00    -0.306 OA
HETATM   16  C   UNL     1      41.801 -15.514   3.389  1.00  0.00     0.120 A 
HETATM   17  C   UNL     1      40.510 -16.002   3.425  1.00  0.00     0.047 A 
HETATM   18  C   UNL     1      39.846 -15.511   2.274  1.00  0.00     0.038 A 
BRANCH  16  19
HETATM   19  S   UNL     1      43.077 -15.760   4.550  1.00  0.00    -0.025 SA
BRANCH  19  20
HETATM   20  C   UNL     1      43.521 -17.362   4.074  1.00  0.00     0.197 A 
HETATM   21  N   UNL     1      43.661 -18.403   4.948  1.00  0.00    -0.322 N 
HETATM   22  C   UNL     1      43.520 -18.401   6.381  1.00  0.00     0.159 C 
HETATM   23  C   UNL     1      43.986 -19.483   4.180  1.00  0.00     0.235 A 
HETATM   24  N   UNL     1      44.020 -19.131   2.914  1.00  0.00    -0.143 NA
HETATM   25  N   UNL     1      43.734 -17.790   2.849  1.00  0.00    -0.123 NA
ENDBRANCH  19  20
ENDBRANCH  16  19
ENDBRANCH  13  14
ENDBRANCH   8  13
BRANCH   1  26
HETATM   26  C   UNL     1      41.413  -8.153  -0.801  1.00  0.00     0.105 C 
HETATM   27  C   UNL     1      40.669  -7.804   0.502  1.00  0.00     0.053 C 
BRANCH  26  28
HETATM   28  O   UNL     1      42.773  -8.456  -0.453  1.00  0.00    -0.384 OA
HETATM   29  H   UNL     1      42.901  -9.421  -0.509  1.00  0.00     0.211 HD
ENDBRANCH  26  28
BRANCH  26  30
HETATM   30  C   UNL     1      41.430  -6.898  -1.750  1.00  0.00     0.276 C 
BRANCH  30  31
HETATM   31  N   UNL     1      42.800  -6.514  -2.326  1.00  0.00    -0.076 N 
HETATM   32  H   UNL     1      43.507  -7.161  -1.959  1.00  0.00     0.279 HD
HETATM   33  C   UNL     1      42.867  -6.605  -3.831  1.00  0.00     0.269 C 
HETATM   34  C   UNL     1      43.214  -5.143  -1.855  1.00  0.00     0.269 C 
ENDBRANCH  30  31
ENDBRANCH  26  30
ENDBRANCH   1  26
TORSDOF 8
ENDMDL
MODEL 10
REMARK VINA RESULT:      -7.4      3.421      6.863
REMARK  8 active torsions:
REMARK  status: ('A' for Active; 'I' for Inactive)
REMARK    1  A    between atoms: C_2  and  O_3 
REMARK    2  A    between atoms: C_2  and  C_4 
REMARK    3  A    between atoms: C_2  and  C_29 
REMARK    4  A    between atoms: N_11  and  C_13 
REMARK    5  A    between atoms: C_13  and  C_14 
REMARK    6  A    between atoms: C_16  and  S_17 
REMARK    7  A    between atoms: S_17  and  C_18 
REMARK    8  A    between atoms: C_29  and  N_30 
ROOT
HETATM    1  C   UNL     1      42.842 -15.944   4.174  1.00  0.00    -0.022 A 
HETATM    2  C   UNL     1      42.130 -14.744   4.398  1.00  0.00     0.022 A 
HETATM    3  C   UNL     1      42.386 -13.899   5.492  1.00  0.00     0.002 A 
HETATM    4  C   UNL     1      43.404 -14.251   6.373  1.00  0.00     0.076 A 
HETATM    5  O   UNL     1      43.697 -13.493   7.469  1.00  0.00    -0.349 OA
HETATM    6  C   UNL     1      44.254 -12.225   7.104  1.00  0.00     0.203 C 
HETATM    7  C   UNL     1      43.162 -11.164   6.949  1.00  0.00     0.262 C 
HETATM    8  N   UNL     1      42.306 -11.360   5.711  1.00  0.00    -0.059 N 
HETATM    9  H   UNL     1      41.570 -10.648   5.772  1.00  0.00     0.280 HD
HETATM   10  C   UNL     1      41.548 -12.673   5.725  1.00  0.00     0.276 C 
HETATM   11  C   UNL     1      44.119 -15.430   6.194  1.00  0.00     0.038 A 
HETATM   12  C   UNL     1      43.851 -16.260   5.099  1.00  0.00     0.013 A 
ENDROOT
BRANCH   8  13
HETATM   13  C   UNL     1      43.031 -11.067   4.414  1.00  0.00     0.299 C 
BRANCH  13  14
HETATM   14  C   UNL     1      42.144 -10.522   3.355  1.00  0.00     0.080 A 
HETATM   15  O   UNL     1      42.472 -10.828   2.068  1.00  0.00    -0.306 OA
HETATM   16  C   UNL     1      41.515 -10.282   1.252  1.00  0.00     0.120 A 
HETATM   17  C   UNL     1      40.608  -9.587   2.026  1.00  0.00     0.047 A 
HETATM   18  C   UNL     1      41.005  -9.746   3.377  1.00  0.00     0.038 A 
BRANCH  16  19
HETATM   19  S   UNL     1      41.528 -10.471  -0.481  1.00  0.00    -0.025 SA
BRANCH  19  20
HETATM   20  C   UNL     1      40.792 -12.034  -0.551  1.00  0.00     0.197 A 
HETATM   21  N   UNL     1      40.647 -12.755  -1.702  1.00  0.00    -0.322 N 
HETATM   22  C   UNL     1      41.013 -12.389  -3.046  1.00  0.00     0.159 C 
HETATM   23  C   UNL     1      40.054 -13.926  -1.328  1.00  0.00     0.235 A 
HETATM   24  N   UNL     1      39.869 -13.931  -0.026  1.00  0.00    -0.143 NA
HETATM   25  N   UNL     1      40.328 -12.734   0.462  1.00  0.00    -0.123 NA
ENDBRANCH  19  20
ENDBRANCH  16  19
ENDBRANCH  13  14
ENDBRANCH   8  13
BRANCH   1  26
HETATM   26  C   UNL     1      42.533 -16.816   2.940  1.00  0.00     0.105 C 
HETATM   27  C   UNL     1      41.227 -16.379   2.249  1.00  0.00     0.053 C 
BRANCH  26  28
HETATM   28  O   UNL     1      43.604 -16.610   2.007  1.00  0.00    -0.384 OA
HETATM   29  H   UNL     1      43.935 -15.698   2.109  1.00  0.00     0.211 HD
ENDBRANCH  26  28
BRANCH  26  30
HETATM   30  C   UNL     1      42.468 -18.355   3.261  1.00  0.00     0.276 C 
BRANCH  30  31
HETATM   31  N   UNL     1      43.770 -19.139   3.045  1.00  0.00    -0.076 N 
HETATM   32  H   UNL     1      44.487 -18.498   2.687  1.00  0.00     0.279 HD
HETATM   33  C   UNL     1      44.323 -19.747   4.310  1.00  0.00     0.269 C 
HETATM   34  C   UNL     1      43.592 -20.191   1.980  1.00  0.00     0.269 C 
ENDBRANCH  30  31
ENDBRANCH  26  30
ENDBRANCH   1  26
TORSDOF 8
ENDMDL
