MODEL 1
REMARK VINA RESULT:      -9.9      0.000      0.000
REMARK  4 active torsions:
REMARK  status: ('A' for Active; 'I' for Inactive)
REMARK    1  A    between atoms: C_4  and  C_5 
REMARK    2  A    between atoms: C_9  and  N_10 
REMARK       I    between atoms: N_10  and  C_11 
REMARK    3  A    between atoms: C_11  and  C_12 
REMARK    4  A    between atoms: C_13  and  C_14 
ROOT
HETATM    1  N   UNL     1      41.970 -14.833   4.483  1.00  0.00    -0.308 N 
HETATM    2  C   UNL     1      41.485 -15.815   5.331  1.00  0.00     0.261 C 
HETATM    3  O   UNL     1      40.363 -16.307   5.218  1.00  0.00    -0.267 OA
HETATM    4  H   UNL     1      42.917 -14.492   4.580  1.00  0.00     0.170 HD
ENDROOT
BRANCH   1   5
HETATM    5  C   UNL     1      41.235 -14.364   3.410  1.00  0.00     0.126 A 
HETATM    6  N   UNL     1      39.933 -13.946   3.483  1.00  0.00    -0.262 N 
HETATM    7  N   UNL     1      39.404 -13.623   2.291  1.00  0.00    -0.173 NA
HETATM    8  H   UNL     1      39.354 -13.901   4.317  1.00  0.00     0.191 HD
HETATM    9  C   UNL     1      40.415 -13.787   1.424  1.00  0.00     0.090 A 
HETATM   10  C   UNL     1      41.589 -14.237   2.090  1.00  0.00     0.084 A 
BRANCH   9  11
HETATM   11  C   UNL     1      40.241 -13.558  -0.006  1.00  0.00    -0.005 A 
HETATM   12  C   UNL     1      40.792 -12.427  -0.623  1.00  0.00     0.020 A 
HETATM   13  C   UNL     1      40.638 -12.223  -2.001  1.00  0.00    -0.061 A 
HETATM   14  C   UNL     1      41.175 -10.987  -2.660  1.00  0.00     0.048 C 
HETATM   15  C   UNL     1      39.931 -13.167  -2.759  1.00  0.00     0.013 A 
HETATM   16  C   UNL     1      39.387 -14.310  -2.160  1.00  0.00    -0.061 A 
HETATM   17  C   UNL     1      39.529 -14.486  -0.778  1.00  0.00     0.020 A 
HETATM   18  C   UNL     1      38.617 -15.301  -2.980  1.00  0.00     0.048 C 
ENDBRANCH   9  11
ENDBRANCH   1   5
BRANCH   2  19
HETATM   19  C   UNL     1      42.413 -16.288   6.353  1.00  0.00     0.080 A 
HETATM   20  C   UNL     1      43.277 -17.426   6.436  1.00  0.00     0.104 A 
HETATM   21  N   UNL     1      43.897 -17.479   7.626  1.00  0.00    -0.174 NA
HETATM   22  N   UNL     1      43.505 -16.370   8.262  1.00  0.00    -0.288 N 
HETATM   23  H   UNL     1      43.877 -16.189   9.190  1.00  0.00     0.188 HD
HETATM   24  C   UNL     1      42.626 -15.622   7.548  1.00  0.00     0.128 A 
BRANCH  20  25
HETATM   25  C   UNL     1      43.546 -18.463   5.445  1.00  0.00    -0.004 A 
HETATM   26  C   UNL     1      43.674 -18.136   4.087  1.00  0.00     0.017 A 
HETATM   27  C   UNL     1      43.918 -19.139   3.146  1.00  0.00     0.043 A 
HETATM   28  C   UNL     1      44.042 -20.459   3.566  1.00  0.00     0.116 A 
HETATM   29  F   UNL     1      44.275 -21.418   2.660  1.00  0.00    -0.206 F 
HETATM   30  C   UNL     1      43.930 -20.798   4.908  1.00  0.00     0.043 A 
HETATM   31  C   UNL     1      43.686 -19.798   5.851  1.00  0.00     0.017 A 
ENDBRANCH  20  25
ENDBRANCH   2  19
TORSDOF 4
ENDMDL
MODEL 2
REMARK VINA RESULT:      -9.8      0.057      1.628
REMARK  4 active torsions:
REMARK  status: ('A' for Active; 'I' for Inactive)
REMARK    1  A    between atoms: C_4  and  C_5 
REMARK    2  A    between atoms: C_9  and  N_10 
REMARK       I    between atoms: N_10  and  C_11 
REMARK    3  A    between atoms: C_11  and  C_12 
REMARK    4  A    between atoms: C_13  and  C_14 
ROOT
HETATM    1  N   UNL     1      42.004 -14.888   4.473  1.00  0.00    -0.308 N 
HETATM    2  C   UNL     1      41.500 -15.812   5.373  1.00  0.00     0.261 C 
HETATM    3  O   UNL     1      40.352 -16.252   5.314  1.00  0.00    -0.267 OA
HETATM    4  H   UNL     1      42.969 -14.591   4.528  1.00  0.00     0.170 HD
ENDROOT
BRANCH   1   5
HETATM    5  C   UNL     1      41.258 -14.425   3.406  1.00  0.00     0.126 A 
HETATM    6  N   UNL     1      39.952 -14.020   3.487  1.00  0.00    -0.262 N 
HETATM    7  N   UNL     1      39.412 -13.699   2.299  1.00  0.00    -0.173 NA
HETATM    8  H   UNL     1      39.378 -13.983   4.325  1.00  0.00     0.191 HD
HETATM    9  C   UNL     1      40.421 -13.850   1.426  1.00  0.00     0.090 A 
HETATM   10  C   UNL     1      41.603 -14.290   2.083  1.00  0.00     0.084 A 
BRANCH   9  11
HETATM   11  C   UNL     1      40.236 -13.620  -0.003  1.00  0.00    -0.005 A 
HETATM   12  C   UNL     1      39.516 -14.530  -0.788  1.00  0.00     0.020 A 
HETATM   13  C   UNL     1      39.325 -14.293  -2.156  1.00  0.00    -0.061 A 
HETATM   14  C   UNL     1      38.606 -15.290  -3.016  1.00  0.00     0.048 C 
HETATM   15  C   UNL     1      39.856 -13.130  -2.731  1.00  0.00     0.013 A 
HETATM   16  C   UNL     1      40.565 -12.203  -1.957  1.00  0.00    -0.061 A 
HETATM   17  C   UNL     1      40.768 -12.468  -0.597  1.00  0.00     0.020 A 
HETATM   18  C   UNL     1      41.144 -10.973  -2.589  1.00  0.00     0.048 C 
ENDBRANCH   9  11
ENDBRANCH   1   5
BRANCH   2  19
HETATM   19  C   UNL     1      42.437 -16.292   6.384  1.00  0.00     0.080 A 
HETATM   20  C   UNL     1      43.302 -17.429   6.451  1.00  0.00     0.104 A 
HETATM   21  N   UNL     1      43.933 -17.490   7.636  1.00  0.00    -0.174 NA
HETATM   22  N   UNL     1      43.544 -16.387   8.284  1.00  0.00    -0.288 N 
HETATM   23  H   UNL     1      43.923 -16.212   9.210  1.00  0.00     0.188 HD
HETATM   24  C   UNL     1      42.658 -15.635   7.583  1.00  0.00     0.128 A 
BRANCH  20  25
HETATM   25  C   UNL     1      43.565 -18.458   5.450  1.00  0.00    -0.004 A 
HETATM   26  C   UNL     1      43.677 -18.122   4.093  1.00  0.00     0.017 A 
HETATM   27  C   UNL     1      43.915 -19.117   3.143  1.00  0.00     0.043 A 
HETATM   28  C   UNL     1      44.049 -20.439   3.552  1.00  0.00     0.116 A 
HETATM   29  F   UNL     1      44.276 -21.391   2.637  1.00  0.00    -0.206 F 
HETATM   30  C   UNL     1      43.953 -20.788   4.893  1.00  0.00     0.043 A 
HETATM   31  C   UNL     1      43.715 -19.796   5.846  1.00  0.00     0.017 A 
ENDBRANCH  20  25
ENDBRANCH   2  19
TORSDOF 4
ENDMDL
MODEL 3
REMARK VINA RESULT:      -9.2      3.995      9.595
REMARK  4 active torsions:
REMARK  status: ('A' for Active; 'I' for Inactive)
REMARK    1  A    between atoms: C_4  and  C_5 
REMARK    2  A    between atoms: C_9  and  N_10 
REMARK       I    between atoms: N_10  and  C_11 
REMARK    3  A    between atoms: C_11  and  C_12 
REMARK    4  A    between atoms: C_13  and  C_14 
ROOT
HETATM    1  N   UNL     1      39.356 -14.012  -0.034  1.00  0.00    -0.308 N 
HETATM    2  C   UNL     1      39.423 -12.630  -0.065  1.00  0.00     0.261 C 
HETATM    3  O   UNL     1      39.925 -11.961   0.838  1.00  0.00    -0.267 OA
HETATM    4  H   UNL     1      38.981 -14.526  -0.819  1.00  0.00     0.170 HD
ENDROOT
BRANCH   1   5
HETATM    5  C   UNL     1      39.895 -14.748   1.005  1.00  0.00     0.126 A 
HETATM    6  N   UNL     1      39.400 -14.769   2.282  1.00  0.00    -0.262 N 
HETATM    7  N   UNL     1      40.148 -15.485   3.138  1.00  0.00    -0.173 NA
HETATM    8  H   UNL     1      38.578 -14.280   2.624  1.00  0.00     0.191 HD
HETATM    9  C   UNL     1      41.133 -15.989   2.376  1.00  0.00     0.090 A 
HETATM   10  C   UNL     1      41.001 -15.562   1.025  1.00  0.00     0.084 A 
BRANCH   9  11
HETATM   11  C   UNL     1      42.190 -16.819   2.943  1.00  0.00    -0.005 A 
HETATM   12  C   UNL     1      42.854 -16.431   4.114  1.00  0.00     0.020 A 
HETATM   13  C   UNL     1      43.856 -17.242   4.665  1.00  0.00    -0.061 A 
HETATM   14  C   UNL     1      44.613 -16.808   5.885  1.00  0.00     0.048 C 
HETATM   15  C   UNL     1      44.181 -18.452   4.035  1.00  0.00     0.013 A 
HETATM   16  C   UNL     1      43.516 -18.861   2.874  1.00  0.00    -0.061 A 
HETATM   17  C   UNL     1      42.535 -18.026   2.322  1.00  0.00     0.020 A 
HETATM   18  C   UNL     1      43.888 -20.148   2.200  1.00  0.00     0.048 C 
ENDBRANCH   9  11
ENDBRANCH   1   5
BRANCH   2  19
HETATM   19  C   UNL     1      38.910 -11.995  -1.274  1.00  0.00     0.080 A 
HETATM   20  C   UNL     1      39.167 -10.734  -1.899  1.00  0.00     0.104 A 
HETATM   21  N   UNL     1      38.386 -10.558  -2.978  1.00  0.00    -0.174 NA
HETATM   22  N   UNL     1      37.700 -11.701  -3.089  1.00  0.00    -0.288 N 
HETATM   23  H   UNL     1      37.052 -11.801  -3.865  1.00  0.00     0.188 HD
HETATM   24  C   UNL     1      37.976 -12.592  -2.104  1.00  0.00     0.128 A 
BRANCH  20  25
HETATM   25  C   UNL     1      40.118  -9.690  -1.529  1.00  0.00    -0.004 A 
HETATM   26  C   UNL     1      41.488  -9.850  -1.781  1.00  0.00     0.017 A 
HETATM   27  C   UNL     1      42.389  -8.849  -1.411  1.00  0.00     0.043 A 
HETATM   28  C   UNL     1      41.918  -7.693  -0.799  1.00  0.00     0.116 A 
HETATM   29  F   UNL     1      42.786  -6.736  -0.444  1.00  0.00    -0.206 F 
HETATM   30  C   UNL     1      40.562  -7.513  -0.553  1.00  0.00     0.043 A 
HETATM   31  C   UNL     1      39.659  -8.511  -0.923  1.00  0.00     0.017 A 
ENDBRANCH  20  25
ENDBRANCH   2  19
TORSDOF 4
ENDMDL
MODEL 4
REMARK VINA RESULT:      -9.1      1.639      2.144
REMARK  4 active torsions:
REMARK  status: ('A' for Active; 'I' for Inactive)
REMARK    1  A    between atoms: C_4  and  C_5 
REMARK    2  A    between atoms: C_9  and  N_10 
REMARK       I    between atoms: N_10  and  C_11 
REMARK    3  A    between atoms: C_11  and  C_12 
REMARK    4  A    between atoms: C_13  and  C_14 
ROOT
HETATM    1  N   UNL     1      41.126 -14.799   4.092  1.00  0.00    -0.308 N 
HETATM    2  C   UNL     1      42.391 -14.643   4.632  1.00  0.00     0.261 C 
HETATM    3  O   UNL     1      43.195 -13.802   4.230  1.00  0.00    -0.267 OA
HETATM    4  H   UNL     1      40.479 -15.469   4.485  1.00  0.00     0.170 HD
ENDROOT
BRANCH   1   5
HETATM    5  C   UNL     1      40.655 -13.982   3.082  1.00  0.00     0.126 A 
HETATM    6  N   UNL     1      40.542 -12.620   3.172  1.00  0.00    -0.262 N 
HETATM    7  N   UNL     1      39.972 -12.054   2.096  1.00  0.00    -0.173 NA
HETATM    8  H   UNL     1      40.805 -12.039   3.964  1.00  0.00     0.191 HD
HETATM    9  C   UNL     1      39.758 -13.079   1.256  1.00  0.00     0.090 A 
HETATM   10  C   UNL     1      40.188 -14.307   1.832  1.00  0.00     0.084 A 
BRANCH   9  11
HETATM   11  C   UNL     1      39.118 -12.886  -0.041  1.00  0.00    -0.005 A 
HETATM   12  C   UNL     1      39.130 -13.903  -1.004  1.00  0.00     0.020 A 
HETATM   13  C   UNL     1      38.497 -13.718  -2.241  1.00  0.00    -0.061 A 
HETATM   14  C   UNL     1      38.553 -14.779  -3.300  1.00  0.00     0.048 C 
HETATM   15  C   UNL     1      37.845 -12.505  -2.502  1.00  0.00     0.013 A 
HETATM   16  C   UNL     1      37.811 -11.484  -1.544  1.00  0.00    -0.061 A 
HETATM   17  C   UNL     1      38.470 -11.676  -0.323  1.00  0.00     0.020 A 
HETATM   18  C   UNL     1      37.126 -10.185  -1.845  1.00  0.00     0.048 C 
ENDBRANCH   9  11
ENDBRANCH   1   5
BRANCH   2  19
HETATM   19  C   UNL     1      42.711 -15.506   5.764  1.00  0.00     0.080 A 
HETATM   20  C   UNL     1      43.099 -16.879   5.865  1.00  0.00     0.104 A 
HETATM   21  N   UNL     1      43.216 -17.258   7.149  1.00  0.00    -0.174 NA
HETATM   22  N   UNL     1      42.984 -16.145   7.853  1.00  0.00    -0.288 N 
HETATM   23  H   UNL     1      43.044 -16.194   8.866  1.00  0.00     0.188 HD
HETATM   24  C   UNL     1      42.684 -15.072   7.079  1.00  0.00     0.128 A 
BRANCH  20  25
HETATM   25  C   UNL     1      43.369 -17.849   4.808  1.00  0.00    -0.004 A 
HETATM   26  C   UNL     1      43.099 -17.538   3.467  1.00  0.00     0.017 A 
HETATM   27  C   UNL     1      43.349 -18.479   2.467  1.00  0.00     0.043 A 
HETATM   28  C   UNL     1      43.873 -19.721   2.807  1.00  0.00     0.116 A 
HETATM   29  F   UNL     1      44.110 -20.622   1.844  1.00  0.00    -0.206 F 
HETATM   30  C   UNL     1      44.157 -20.042   4.129  1.00  0.00     0.043 A 
HETATM   31  C   UNL     1      43.909 -19.103   5.132  1.00  0.00     0.017 A 
ENDBRANCH  20  25
ENDBRANCH   2  19
TORSDOF 4
ENDMDL
MODEL 5
REMARK VINA RESULT:      -9.0      4.907      8.014
REMARK  4 active torsions:
REMARK  status: ('A' for Active; 'I' for Inactive)
REMARK    1  A    between atoms: C_4  and  C_5 
REMARK    2  A    between atoms: C_9  and  N_10 
REMARK       I    between atoms: N_10  and  C_11 
REMARK    3  A    between atoms: C_11  and  C_12 
REMARK    4  A    between atoms: C_13  and  C_14 
ROOT
HETATM    1  N   UNL     1      43.501 -12.752   4.657  1.00  0.00    -0.308 N 
HETATM    2  C   UNL     1      42.519 -13.714   4.493  1.00  0.00     0.261 C 
HETATM    3  O   UNL     1      41.749 -14.050   5.393  1.00  0.00    -0.267 OA
HETATM    4  H   UNL     1      44.080 -12.470   3.877  1.00  0.00     0.170 HD
ENDROOT
BRANCH   1   5
HETATM    5  C   UNL     1      43.659 -12.062   5.844  1.00  0.00     0.126 A 
HETATM    6  N   UNL     1      44.271 -12.564   6.961  1.00  0.00    -0.262 N 
HETATM    7  N   UNL     1      44.220 -11.740   8.020  1.00  0.00    -0.173 NA
HETATM    8  H   UNL     1      44.703 -13.479   7.058  1.00  0.00     0.191 HD
HETATM    9  C   UNL     1      43.599 -10.643   7.557  1.00  0.00     0.090 A 
HETATM   10  C   UNL     1      43.244 -10.799   6.188  1.00  0.00     0.084 A 
BRANCH   9  11
HETATM   11  C   UNL     1      43.320  -9.500   8.420  1.00  0.00    -0.005 A 
HETATM   12  C   UNL     1      43.609  -9.550   9.790  1.00  0.00     0.020 A 
HETATM   13  C   UNL     1      43.357  -8.442  10.610  1.00  0.00    -0.061 A 
HETATM   14  C   UNL     1      43.609  -8.505  12.088  1.00  0.00     0.048 C 
HETATM   15  C   UNL     1      42.818  -7.278  10.044  1.00  0.00     0.013 A 
HETATM   16  C   UNL     1      42.537  -7.208   8.674  1.00  0.00    -0.061 A 
HETATM   17  C   UNL     1      42.772  -8.333   7.873  1.00  0.00     0.020 A 
HETATM   18  C   UNL     1      41.943  -5.963   8.085  1.00  0.00     0.048 C 
ENDBRANCH   9  11
ENDBRANCH   1   5
BRANCH   2  19
HETATM   19  C   UNL     1      42.401 -14.282   3.154  1.00  0.00     0.080 A 
HETATM   20  C   UNL     1      42.728 -15.562   2.604  1.00  0.00     0.104 A 
HETATM   21  N   UNL     1      42.505 -15.593   1.280  1.00  0.00    -0.174 NA
HETATM   22  N   UNL     1      41.980 -14.397   0.997  1.00  0.00    -0.288 N 
HETATM   23  H   UNL     1      41.707 -14.204   0.037  1.00  0.00     0.188 HD
HETATM   24  C   UNL     1      41.890 -13.579   2.076  1.00  0.00     0.128 A 
BRANCH  20  25
HETATM   25  C   UNL     1      43.238 -16.756   3.270  1.00  0.00    -0.004 A 
HETATM   26  C   UNL     1      43.547 -16.735   4.638  1.00  0.00     0.017 A 
HETATM   27  C   UNL     1      44.047 -17.880   5.261  1.00  0.00     0.043 A 
HETATM   28  C   UNL     1      44.227 -19.042   4.519  1.00  0.00     0.116 A 
HETATM   29  F   UNL     1      44.708 -20.139   5.120  1.00  0.00    -0.206 F 
HETATM   30  C   UNL     1      43.915 -19.084   3.165  1.00  0.00     0.043 A 
HETATM   31  C   UNL     1      43.415 -17.941   2.540  1.00  0.00     0.017 A 
ENDBRANCH  20  25
ENDBRANCH   2  19
TORSDOF 4
ENDMDL
MODEL 6
REMARK VINA RESULT:      -8.9      3.336      8.798
REMARK  4 active torsions:
REMARK  status: ('A' for Active; 'I' for Inactive)
REMARK    1  A    between atoms: C_4  and  C_5 
REMARK    2  A    between atoms: C_9  and  N_10 
REMARK       I    between atoms: N_10  and  C_11 
REMARK    3  A    between atoms: C_11  and  C_12 
REMARK    4  A    between atoms: C_13  and  C_14 
ROOT
HETATM    1  N   UNL     1      39.611 -13.153   0.889  1.00  0.00    -0.308 N 
HETATM    2  C   UNL     1      39.912 -11.857   1.273  1.00  0.00     0.261 C 
HETATM    3  O   UNL     1      40.535 -11.587   2.299  1.00  0.00    -0.267 OA
HETATM    4  H   UNL     1      39.140 -13.333   0.013  1.00  0.00     0.170 HD
ENDROOT
BRANCH   1   5
HETATM    5  C   UNL     1      40.036 -14.249   1.617  1.00  0.00     0.126 A 
HETATM    6  N   UNL     1      39.266 -14.924   2.526  1.00  0.00    -0.262 N 
HETATM    7  N   UNL     1      39.928 -15.897   3.175  1.00  0.00    -0.173 NA
HETATM    8  H   UNL     1      38.297 -14.732   2.764  1.00  0.00     0.191 HD
HETATM    9  C   UNL     1      41.154 -15.885   2.628  1.00  0.00     0.090 A 
HETATM   10  C   UNL     1      41.258 -14.874   1.633  1.00  0.00     0.084 A 
BRANCH   9  11
HETATM   11  C   UNL     1      42.203 -16.792   3.083  1.00  0.00    -0.005 A 
HETATM   12  C   UNL     1      42.472 -17.980   2.391  1.00  0.00     0.020 A 
HETATM   13  C   UNL     1      43.494 -18.837   2.821  1.00  0.00    -0.061 A 
HETATM   14  C   UNL     1      43.752 -20.139   2.121  1.00  0.00     0.048 C 
HETATM   15  C   UNL     1      44.250 -18.490   3.949  1.00  0.00     0.013 A 
HETATM   16  C   UNL     1      44.004 -17.299   4.643  1.00  0.00    -0.061 A 
HETATM   17  C   UNL     1      42.962 -16.466   4.214  1.00  0.00     0.020 A 
HETATM   18  C   UNL     1      44.808 -16.950   5.859  1.00  0.00     0.048 C 
ENDBRANCH   9  11
ENDBRANCH   1   5
BRANCH   2  19
HETATM   19  C   UNL     1      39.492 -10.807   0.351  1.00  0.00     0.080 A 
HETATM   20  C   UNL     1      39.018 -10.825  -0.999  1.00  0.00     0.104 A 
HETATM   21  N   UNL     1      38.823  -9.579  -1.462  1.00  0.00    -0.174 NA
HETATM   22  N   UNL     1      39.089  -8.785  -0.420  1.00  0.00    -0.288 N 
HETATM   23  H   UNL     1      38.982  -7.781  -0.538  1.00  0.00     0.188 HD
HETATM   24  C   UNL     1      39.486  -9.463   0.686  1.00  0.00     0.128 A 
BRANCH  20  25
HETATM   25  C   UNL     1      38.739 -11.962  -1.870  1.00  0.00    -0.004 A 
HETATM   26  C   UNL     1      37.418 -12.364  -2.119  1.00  0.00     0.017 A 
HETATM   27  C   UNL     1      37.165 -13.461  -2.944  1.00  0.00     0.043 A 
HETATM   28  C   UNL     1      38.227 -14.146  -3.523  1.00  0.00     0.116 A 
HETATM   29  F   UNL     1      37.979 -15.199  -4.314  1.00  0.00    -0.206 F 
HETATM   30  C   UNL     1      39.541 -13.754  -3.297  1.00  0.00     0.043 A 
HETATM   31  C   UNL     1      39.799 -12.657  -2.473  1.00  0.00     0.017 A 
ENDBRANCH  20  25
ENDBRANCH   2  19
TORSDOF 4
ENDMDL
MODEL 7
REMARK VINA RESULT:      -8.7      4.395      9.823
REMARK  4 active torsions:
REMARK  status: ('A' for Active; 'I' for Inactive)
REMARK    1  A    between atoms: C_4  and  C_5 
REMARK    2  A    between atoms: C_9  and  N_10 
REMARK       I    between atoms: N_10  and  C_11 
REMARK    3  A    between atoms: C_11  and  C_12 
REMARK    4  A    between atoms: C_13  and  C_14 
ROOT
HETATM    1  N   UNL     1      40.942 -13.264  -0.240  1.00  0.00    -0.308 N 
HETATM    2  C   UNL     1      40.004 -13.220  -1.258  1.00  0.00     0.261 C 
HETATM    3  O   UNL     1      39.197 -14.126  -1.468  1.00  0.00    -0.267 OA
HETATM    4  H   UNL     1      41.553 -12.477  -0.071  1.00  0.00     0.170 HD
ENDROOT
BRANCH   1   5
HETATM    5  C   UNL     1      41.007 -14.320   0.650  1.00  0.00     0.126 A 
HETATM    6  N   UNL     1      39.957 -14.767   1.406  1.00  0.00    -0.262 N 
HETATM    7  N   UNL     1      40.288 -15.745   2.264  1.00  0.00    -0.173 NA
HETATM    8  H   UNL     1      39.005 -14.409   1.397  1.00  0.00     0.191 HD
HETATM    9  C   UNL     1      41.588 -15.976   2.018  1.00  0.00     0.090 A 
HETATM   10  C   UNL     1      42.074 -15.111   0.998  1.00  0.00     0.084 A 
BRANCH   9  11
HETATM   11  C   UNL     1      42.345 -16.969   2.773  1.00  0.00    -0.005 A 
HETATM   12  C   UNL     1      42.742 -18.172   2.176  1.00  0.00     0.020 A 
HETATM   13  C   UNL     1      43.486 -19.114   2.900  1.00  0.00    -0.061 A 
HETATM   14  C   UNL     1      43.866 -20.429   2.289  1.00  0.00     0.048 C 
HETATM   15  C   UNL     1      43.836 -18.835   4.229  1.00  0.00     0.013 A 
HETATM   16  C   UNL     1      43.459 -17.630   4.835  1.00  0.00    -0.061 A 
HETATM   17  C   UNL     1      42.694 -16.711   4.105  1.00  0.00     0.020 A 
HETATM   18  C   UNL     1      43.824 -17.354   6.263  1.00  0.00     0.048 C 
ENDBRANCH   9  11
ENDBRANCH   1   5
BRANCH   2  19
HETATM   19  C   UNL     1      39.982 -11.996  -2.051  1.00  0.00     0.080 A 
HETATM   20  C   UNL     1      39.096 -10.873  -2.089  1.00  0.00     0.104 A 
HETATM   21  N   UNL     1      39.450 -10.008  -3.053  1.00  0.00    -0.174 NA
HETATM   22  N   UNL     1      40.572 -10.518  -3.571  1.00  0.00    -0.288 N 
HETATM   23  H   UNL     1      41.036 -10.006  -4.316  1.00  0.00     0.188 HD
HETATM   24  C   UNL     1      40.937 -11.697  -3.008  1.00  0.00     0.128 A 
BRANCH  20  25
HETATM   25  C   UNL     1      37.935 -10.577  -1.256  1.00  0.00    -0.004 A 
HETATM   26  C   UNL     1      37.906 -10.962   0.093  1.00  0.00     0.017 A 
HETATM   27  C   UNL     1      36.783 -10.684   0.875  1.00  0.00     0.043 A 
HETATM   28  C   UNL     1      35.700 -10.019   0.312  1.00  0.00     0.116 A 
HETATM   29  F   UNL     1      34.625  -9.756   1.067  1.00  0.00    -0.206 F 
HETATM   30  C   UNL     1      35.717  -9.620  -1.019  1.00  0.00     0.043 A 
HETATM   31  C   UNL     1      36.837  -9.895  -1.804  1.00  0.00     0.017 A 
ENDBRANCH  20  25
ENDBRANCH   2  19
TORSDOF 4
ENDMDL
MODEL 8
REMARK VINA RESULT:      -8.6      2.454      3.887
REMARK  4 active torsions:
REMARK  status: ('A' for Active; 'I' for Inactive)
REMARK    1  A    between atoms: C_4  and  C_5 
REMARK    2  A    between atoms: C_9  and  N_10 
REMARK       I    between atoms: N_10  and  C_11 
REMARK    3  A    between atoms: C_11  and  C_12 
REMARK    4  A    between atoms: C_13  and  C_14 
ROOT
HETATM    1  N   UNL     1      41.200 -13.072   2.192  1.00  0.00    -0.308 N 
HETATM    2  C   UNL     1      42.308 -13.760   2.656  1.00  0.00     0.261 C 
HETATM    3  O   UNL     1      43.334 -13.909   1.992  1.00  0.00    -0.267 OA
HETATM    4  H   UNL     1      40.396 -12.929   2.789  1.00  0.00     0.170 HD
ENDROOT
BRANCH   1   5
HETATM    5  C   UNL     1      41.186 -12.457   0.954  1.00  0.00     0.126 A 
HETATM    6  N   UNL     1      40.989 -13.108  -0.235  1.00  0.00    -0.262 N 
HETATM    7  N   UNL     1      41.111 -12.313  -1.311  1.00  0.00    -0.173 NA
HETATM    8  H   UNL     1      40.807 -14.100  -0.362  1.00  0.00     0.191 HD
HETATM    9  C   UNL     1      41.342 -11.094  -0.798  1.00  0.00     0.090 A 
HETATM   10  C   UNL     1      41.381 -11.139   0.624  1.00  0.00     0.084 A 
BRANCH   9  11
HETATM   11  C   UNL     1      41.562  -9.934  -1.654  1.00  0.00    -0.005 A 
HETATM   12  C   UNL     1      42.449  -8.919  -1.271  1.00  0.00     0.020 A 
HETATM   13  C   UNL     1      42.670  -7.816  -2.106  1.00  0.00    -0.061 A 
HETATM   14  C   UNL     1      43.574  -6.696  -1.679  1.00  0.00     0.048 C 
HETATM   15  C   UNL     1      42.000  -7.741  -3.335  1.00  0.00     0.013 A 
HETATM   16  C   UNL     1      41.122  -8.754  -3.739  1.00  0.00    -0.061 A 
HETATM   17  C   UNL     1      40.893  -9.837  -2.881  1.00  0.00     0.020 A 
HETATM   18  C   UNL     1      40.397  -8.651  -5.048  1.00  0.00     0.048 C 
ENDBRANCH   9  11
ENDBRANCH   1   5
BRANCH   2  19
HETATM   19  C   UNL     1      42.218 -14.263   4.023  1.00  0.00     0.080 A 
HETATM   20  C   UNL     1      42.444 -15.549   4.607  1.00  0.00     0.104 A 
HETATM   21  N   UNL     1      42.158 -15.545   5.919  1.00  0.00    -0.174 NA
HETATM   22  N   UNL     1      41.831 -14.276   6.190  1.00  0.00    -0.288 N 
HETATM   23  H   UNL     1      41.595 -14.033   7.147  1.00  0.00     0.188 HD
HETATM   24  C   UNL     1      41.855 -13.470   5.099  1.00  0.00     0.128 A 
BRANCH  20  25
HETATM   25  C   UNL     1      42.920 -16.781   3.985  1.00  0.00    -0.004 A 
HETATM   26  C   UNL     1      42.386 -17.218   2.764  1.00  0.00     0.017 A 
HETATM   27  C   UNL     1      42.841 -18.405   2.186  1.00  0.00     0.043 A 
HETATM   28  C   UNL     1      43.830 -19.145   2.824  1.00  0.00     0.116 A 
HETATM   29  F   UNL     1      44.262 -20.284   2.267  1.00  0.00    -0.206 F 
HETATM   30  C   UNL     1      44.378 -18.721   4.029  1.00  0.00     0.043 A 
HETATM   31  C   UNL     1      43.927 -17.535   4.609  1.00  0.00     0.017 A 
ENDBRANCH  20  25
ENDBRANCH   2  19
TORSDOF 4
ENDMDL
MODEL 9
REMARK VINA RESULT:      -8.5      4.791      7.848
REMARK  4 active torsions:
REMARK  status: ('A' for Active; 'I' for Inactive)
REMARK    1  A    between atoms: C_4  and  C_5 
REMARK    2  A    between atoms: C_9  and  N_10 
REMARK       I    between atoms: N_10  and  C_11 
REMARK    3  A    between atoms: C_11  and  C_12 
REMARK    4  A    between atoms: C_13  and  C_14 
ROOT
HETATM    1  N   UNL     1      41.486 -12.932   4.584  1.00  0.00    -0.308 N 
HETATM    2  C   UNL     1      41.952 -13.214   3.310  1.00  0.00     0.261 C 
HETATM    3  O   UNL     1      42.978 -12.719   2.845  1.00  0.00    -0.267 OA
HETATM    4  H   UNL     1      40.666 -13.398   4.946  1.00  0.00     0.170 HD
ENDROOT
BRANCH   1   5
HETATM    5  C   UNL     1      42.176 -12.101   5.448  1.00  0.00     0.126 A 
HETATM    6  N   UNL     1      43.487 -12.267   5.807  1.00  0.00    -0.262 N 
HETATM    7  N   UNL     1      43.908 -11.388   6.730  1.00  0.00    -0.173 NA
HETATM    8  H   UNL     1      44.121 -12.990   5.476  1.00  0.00     0.191 HD
HETATM    9  C   UNL     1      42.848 -10.591   6.937  1.00  0.00     0.090 A 
HETATM   10  C   UNL     1      41.743 -10.996   6.138  1.00  0.00     0.084 A 
BRANCH   9  11
HETATM   11  C   UNL     1      42.888  -9.502   7.907  1.00  0.00    -0.005 A 
HETATM   12  C   UNL     1      42.392  -8.233   7.579  1.00  0.00     0.020 A 
HETATM   13  C   UNL     1      42.415  -7.196   8.521  1.00  0.00    -0.061 A 
HETATM   14  C   UNL     1      41.940  -5.819   8.162  1.00  0.00     0.048 C 
HETATM   15  C   UNL     1      42.934  -7.443   9.800  1.00  0.00     0.013 A 
HETATM   16  C   UNL     1      43.418  -8.709  10.148  1.00  0.00    -0.061 A 
HETATM   17  C   UNL     1      43.411  -9.728   9.186  1.00  0.00     0.020 A 
HETATM   18  C   UNL     1      43.987  -8.954  11.514  1.00  0.00     0.048 C 
ENDBRANCH   9  11
ENDBRANCH   1   5
BRANCH   2  19
HETATM   19  C   UNL     1      41.178 -14.190   2.552  1.00  0.00     0.080 A 
HETATM   20  C   UNL     1      41.281 -15.609   2.395  1.00  0.00     0.104 A 
HETATM   21  N   UNL     1      40.371 -16.069   1.521  1.00  0.00    -0.174 NA
HETATM   22  N   UNL     1      39.653 -14.993   1.182  1.00  0.00    -0.288 N 
HETATM   23  H   UNL     1      38.879 -15.113   0.536  1.00  0.00     0.188 HD
HETATM   24  C   UNL     1      40.086 -13.850   1.770  1.00  0.00     0.128 A 
BRANCH  20  25
HETATM   25  C   UNL     1      42.196 -16.550   3.033  1.00  0.00    -0.004 A 
HETATM   26  C   UNL     1      42.936 -17.460   2.264  1.00  0.00     0.017 A 
HETATM   27  C   UNL     1      43.798 -18.365   2.887  1.00  0.00     0.043 A 
HETATM   28  C   UNL     1      43.925 -18.351   4.272  1.00  0.00     0.116 A 
HETATM   29  F   UNL     1      44.752 -19.221   4.866  1.00  0.00    -0.206 F 
HETATM   30  C   UNL     1      43.208 -17.448   5.048  1.00  0.00     0.043 A 
HETATM   31  C   UNL     1      42.346 -16.542   4.429  1.00  0.00     0.017 A 
ENDBRANCH  20  25
ENDBRANCH   2  19
TORSDOF 4
ENDMDL
MODEL 10
REMARK VINA RESULT:      -8.1      4.703      7.838
REMARK  4 active torsions:
REMARK  status: ('A' for Active; 'I' for Inactive)
REMARK    1  A    between atoms: C_4  and  C_5 
REMARK    2  A    between atoms: C_9  and  N_10 
REMARK       I    between atoms: N_10  and  C_11 
REMARK    3  A    between atoms: C_11  and  C_12 
REMARK    4  A    between atoms: C_13  and  C_14 
ROOT
HETATM    1  N   UNL     1      42.186 -12.786   4.348  1.00  0.00    -0.308 N 
HETATM    2  C   UNL     1      41.443 -12.717   5.515  1.00  0.00     0.261 C 
HETATM    3  O   UNL     1      41.057 -13.713   6.127  1.00  0.00    -0.267 OA
HETATM    4  H   UNL     1      42.525 -11.943   3.904  1.00  0.00     0.170 HD
ENDROOT
BRANCH   1   5
HETATM    5  C   UNL     1      42.589 -13.993   3.808  1.00  0.00     0.126 A 
HETATM    6  N   UNL     1      42.871 -14.197   2.483  1.00  0.00    -0.262 N 
HETATM    7  N   UNL     1      43.152 -15.476   2.183  1.00  0.00    -0.173 NA
HETATM    8  H   UNL     1      42.848 -13.501   1.743  1.00  0.00     0.191 HD
HETATM    9  C   UNL     1      43.102 -16.112   3.364  1.00  0.00     0.090 A 
HETATM   10  C   UNL     1      42.766 -15.212   4.414  1.00  0.00     0.084 A 
BRANCH   9  11
HETATM   11  C   UNL     1      43.327 -17.550   3.468  1.00  0.00    -0.005 A 
HETATM   12  C   UNL     1      43.358 -18.355   2.322  1.00  0.00     0.020 A 
HETATM   13  C   UNL     1      43.595 -19.732   2.427  1.00  0.00    -0.061 A 
HETATM   14  C   UNL     1      43.573 -20.611   1.211  1.00  0.00     0.048 C 
HETATM   15  C   UNL     1      43.807 -20.297   3.692  1.00  0.00     0.013 A 
HETATM   16  C   UNL     1      43.795 -19.504   4.846  1.00  0.00    -0.061 A 
HETATM   17  C   UNL     1      43.532 -18.133   4.726  1.00  0.00     0.020 A 
HETATM   18  C   UNL     1      44.005 -20.124   6.195  1.00  0.00     0.048 C 
ENDBRANCH   9  11
ENDBRANCH   1   5
BRANCH   2  19
HETATM   19  C   UNL     1      41.183 -11.375   6.025  1.00  0.00     0.080 A 
HETATM   20  C   UNL     1      42.006 -10.402   6.676  1.00  0.00     0.104 A 
HETATM   21  N   UNL     1      41.291  -9.321   7.032  1.00  0.00    -0.174 NA
HETATM   22  N   UNL     1      40.063  -9.556   6.557  1.00  0.00    -0.288 N 
HETATM   23  H   UNL     1      39.349  -8.846   6.693  1.00  0.00     0.188 HD
HETATM   24  C   UNL     1      39.945 -10.761   5.944  1.00  0.00     0.128 A 
BRANCH  20  25
HETATM   25  C   UNL     1      43.433 -10.443   6.977  1.00  0.00    -0.004 A 
HETATM   26  C   UNL     1      43.954  -9.736   8.071  1.00  0.00     0.017 A 
HETATM   27  C   UNL     1      45.323  -9.773   8.340  1.00  0.00     0.043 A 
HETATM   28  C   UNL     1      46.165 -10.519   7.523  1.00  0.00     0.116 A 
HETATM   29  F   UNL     1      47.478 -10.551   7.784  1.00  0.00    -0.206 F 
HETATM   30  C   UNL     1      45.664 -11.234   6.442  1.00  0.00     0.043 A 
HETATM   31  C   UNL     1      44.296 -11.201   6.170  1.00  0.00     0.017 A 
ENDBRANCH  20  25
ENDBRANCH   2  19
TORSDOF 4
ENDMDL
