MODEL 1
REMARK VINA RESULT:      -9.2      0.000      0.000
REMARK  6 active torsions:
REMARK  status: ('A' for Active; 'I' for Inactive)
REMARK    1  A    between atoms: C_5  and  C_6 
REMARK    2  A    between atoms: C_11  and  C_12 
REMARK       I    between atoms: C_12  and  N_13 
REMARK    3  A    between atoms: N_13  and  C_14 
REMARK    4  A    between atoms: C_16  and  C_17 
REMARK    5  A    between atoms: C_17  and  O_18 
REMARK    6  A    between atoms: C_25  and  C_26 
ROOT
HETATM    1  C   UNL     1      44.437  -9.391   9.344  1.00  0.00     0.118 C 
HETATM    2  N   UNL     1      44.481 -10.756   8.835  1.00  0.00    -0.366 N 
HETATM    3  C   UNL     1      43.732 -11.172   7.794  1.00  0.00     0.123 A 
HETATM    4  N   UNL     1      42.899 -10.325   7.119  1.00  0.00    -0.240 N 
HETATM    5  N   UNL     1      42.272 -10.894   6.070  1.00  0.00    -0.165 NA
HETATM    6  C   UNL     1      42.694 -12.179   6.112  1.00  0.00     0.148 A 
HETATM    7  C   UNL     1      43.606 -12.389   7.182  1.00  0.00     0.089 A 
HETATM    8  C   UNL     1      42.733  -8.921   7.441  1.00  0.00     0.221 C 
HETATM    9  C   UNL     1      43.927  -8.413   8.270  1.00  0.00     0.066 C 
HETATM   10  H   UNL     1      45.009 -11.417   9.402  1.00  0.00     0.161 HD
ENDROOT
BRANCH   6  11
HETATM   11  C   UNL     1      42.240 -13.193   5.142  1.00  0.00     0.276 C 
HETATM   12  N   UNL     1      43.279 -13.985   4.694  1.00  0.00    -0.322 N 
HETATM   13  H   UNL     1      44.183 -13.728   5.084  1.00  0.00     0.169 HD
HETATM   14  O   UNL     1      41.063 -13.265   4.804  1.00  0.00    -0.266 OA
BRANCH  12  15
HETATM   15  C   UNL     1      43.230 -15.051   3.779  1.00  0.00     0.035 A 
HETATM   16  C   UNL     1      43.440 -16.387   4.133  1.00  0.00     0.039 A 
HETATM   17  C   UNL     1      43.382 -17.415   3.173  1.00  0.00    -0.028 A 
HETATM   18  C   UNL     1      43.094 -17.079   1.844  1.00  0.00     0.010 A 
HETATM   19  C   UNL     1      42.887 -15.749   1.481  1.00  0.00     0.003 A 
HETATM   20  C   UNL     1      42.958 -14.740   2.443  1.00  0.00     0.029 A 
BRANCH  17  21
HETATM   21  C   UNL     1      43.604 -18.848   3.609  1.00  0.00     0.147 C 
HETATM   22  C   UNL     1      43.719 -19.786   2.414  1.00  0.00     0.044 C 
BRANCH  21  23
HETATM   23  O   UNL     1      44.788 -18.956   4.399  1.00  0.00    -0.391 OA
HETATM   24  H   UNL     1      45.430 -18.330   4.028  1.00  0.00     0.210 HD
ENDBRANCH  21  23
ENDBRANCH  17  21
ENDBRANCH  12  15
ENDBRANCH   6  11
BRANCH   8  25
HETATM   25  C   UNL     1      41.386  -8.686   8.086  1.00  0.00     0.409 C 
HETATM   26  F   UNL     1      41.025  -9.639   8.964  1.00  0.00    -0.169 F 
HETATM   27  F   UNL     1      41.388  -7.503   8.752  1.00  0.00    -0.169 F 
HETATM   28  F   UNL     1      40.399  -8.594   7.162  1.00  0.00    -0.169 F 
ENDBRANCH   8  25
BRANCH   1  29
HETATM   29  C   UNL     1      43.745  -9.289  10.690  1.00  0.00    -0.035 A 
HETATM   30  C   UNL     1      43.482  -8.017  11.228  1.00  0.00     0.010 A 
HETATM   31  C   UNL     1      42.873  -7.871  12.478  1.00  0.00     0.007 A 
HETATM   32  C   UNL     1      42.516  -8.995  13.227  1.00  0.00    -0.062 A 
HETATM   33  C   UNL     1      41.836  -8.852  14.555  1.00  0.00     0.048 C 
HETATM   34  C   UNL     1      42.759 -10.264  12.696  1.00  0.00     0.007 A 
HETATM   35  C   UNL     1      43.375 -10.409  11.448  1.00  0.00     0.010 A 
ENDBRANCH   1  29
TORSDOF 6
ENDMDL
MODEL 2
REMARK VINA RESULT:      -9.0      3.410      9.577
REMARK  6 active torsions:
REMARK  status: ('A' for Active; 'I' for Inactive)
REMARK    1  A    between atoms: C_5  and  C_6 
REMARK    2  A    between atoms: C_11  and  C_12 
REMARK       I    between atoms: C_12  and  N_13 
REMARK    3  A    between atoms: N_13  and  C_14 
REMARK    4  A    between atoms: C_16  and  C_17 
REMARK    5  A    between atoms: C_17  and  O_18 
REMARK    6  A    between atoms: C_25  and  C_26 
ROOT
HETATM    1  C   UNL     1      40.566 -14.613   3.113  1.00  0.00     0.118 C 
HETATM    2  N   UNL     1      40.029 -14.159   4.390  1.00  0.00    -0.366 N 
HETATM    3  C   UNL     1      40.375 -12.983   4.952  1.00  0.00     0.123 A 
HETATM    4  N   UNL     1      41.235 -12.116   4.340  1.00  0.00    -0.240 N 
HETATM    5  N   UNL     1      41.422 -10.964   5.014  1.00  0.00    -0.165 NA
HETATM    6  C   UNL     1      40.681 -11.131   6.134  1.00  0.00     0.148 A 
HETATM    7  C   UNL     1      40.015 -12.386   6.129  1.00  0.00     0.089 A 
HETATM    8  C   UNL     1      41.854 -12.358   3.051  1.00  0.00     0.221 C 
HETATM    9  C   UNL     1      41.070 -13.429   2.269  1.00  0.00     0.066 C 
HETATM   10  H   UNL     1      39.481 -14.847   4.904  1.00  0.00     0.161 HD
ENDROOT
BRANCH   6  11
HETATM   11  C   UNL     1      40.601 -10.106   7.191  1.00  0.00     0.276 C 
HETATM   12  N   UNL     1      41.825  -9.885   7.793  1.00  0.00    -0.322 N 
HETATM   13  H   UNL     1      42.569 -10.476   7.428  1.00  0.00     0.169 HD
HETATM   14  O   UNL     1      39.539  -9.559   7.465  1.00  0.00    -0.266 OA
BRANCH  12  15
HETATM   15  C   UNL     1      42.138  -8.985   8.825  1.00  0.00     0.035 A 
HETATM   16  C   UNL     1      42.320  -9.367  10.157  1.00  0.00     0.039 A 
HETATM   17  C   UNL     1      42.630  -8.420  11.153  1.00  0.00    -0.028 A 
HETATM   18  C   UNL     1      42.768  -7.076  10.784  1.00  0.00     0.010 A 
HETATM   19  C   UNL     1      42.584  -6.685   9.458  1.00  0.00     0.003 A 
HETATM   20  C   UNL     1      42.267  -7.635   8.485  1.00  0.00     0.029 A 
BRANCH  17  21
HETATM   21  C   UNL     1      42.831  -8.886  12.580  1.00  0.00     0.147 C 
HETATM   22  C   UNL     1      43.137  -7.719  13.512  1.00  0.00     0.044 C 
BRANCH  21  23
HETATM   23  O   UNL     1      41.671  -9.567  13.055  1.00  0.00    -0.391 OA
HETATM   24  H   UNL     1      41.442  -9.167  13.910  1.00  0.00     0.210 HD
ENDBRANCH  21  23
ENDBRANCH  17  21
ENDBRANCH  12  15
ENDBRANCH   6  11
BRANCH   8  25
HETATM   25  C   UNL     1      43.323 -12.670   3.225  1.00  0.00     0.409 C 
HETATM   26  F   UNL     1      44.118 -11.586   3.215  1.00  0.00    -0.169 F 
HETATM   27  F   UNL     1      43.527 -13.310   4.405  1.00  0.00    -0.169 F 
HETATM   28  F   UNL     1      43.773 -13.509   2.262  1.00  0.00    -0.169 F 
ENDBRANCH   8  25
BRANCH   1  29
HETATM   29  C   UNL     1      41.547 -15.761   3.265  1.00  0.00    -0.035 A 
HETATM   30  C   UNL     1      41.955 -16.143   4.554  1.00  0.00     0.010 A 
HETATM   31  C   UNL     1      42.880 -17.174   4.745  1.00  0.00     0.007 A 
HETATM   32  C   UNL     1      43.426 -17.847   3.648  1.00  0.00    -0.062 A 
HETATM   33  C   UNL     1      44.396 -18.974   3.840  1.00  0.00     0.048 C 
HETATM   34  C   UNL     1      43.016 -17.485   2.363  1.00  0.00     0.007 A 
HETATM   35  C   UNL     1      42.096 -16.448   2.173  1.00  0.00     0.010 A 
ENDBRANCH   1  29
TORSDOF 6
ENDMDL
MODEL 3
REMARK VINA RESULT:      -8.8      7.567     10.325
REMARK  6 active torsions:
REMARK  status: ('A' for Active; 'I' for Inactive)
REMARK    1  A    between atoms: C_5  and  C_6 
REMARK    2  A    between atoms: C_11  and  C_12 
REMARK       I    between atoms: C_12  and  N_13 
REMARK    3  A    between atoms: N_13  and  C_14 
REMARK    4  A    between atoms: C_16  and  C_17 
REMARK    5  A    between atoms: C_17  and  O_18 
REMARK    6  A    between atoms: C_25  and  C_26 
ROOT
HETATM    1  C   UNL     1      39.973 -10.917  -2.036  1.00  0.00     0.118 C 
HETATM    2  N   UNL     1      40.264 -11.172  -0.630  1.00  0.00    -0.366 N 
HETATM    3  C   UNL     1      40.433 -12.413  -0.132  1.00  0.00     0.123 A 
HETATM    4  N   UNL     1      40.376 -13.524  -0.924  1.00  0.00    -0.240 N 
HETATM    5  N   UNL     1      40.626 -14.676  -0.271  1.00  0.00    -0.165 NA
HETATM    6  C   UNL     1      40.804 -14.278   1.010  1.00  0.00     0.148 A 
HETATM    7  C   UNL     1      40.686 -12.868   1.134  1.00  0.00     0.089 A 
HETATM    8  C   UNL     1      40.133 -13.491  -2.353  1.00  0.00     0.221 C 
HETATM    9  C   UNL     1      40.435 -12.091  -2.919  1.00  0.00     0.066 C 
HETATM   10  H   UNL     1      40.193 -10.362  -0.015  1.00  0.00     0.161 HD
ENDROOT
BRANCH   6  11
HETATM   11  C   UNL     1      41.089 -15.229   2.101  1.00  0.00     0.276 C 
HETATM   12  N   UNL     1      42.369 -15.742   2.021  1.00  0.00    -0.322 N 
HETATM   13  H   UNL     1      42.893 -15.403   1.218  1.00  0.00     0.169 HD
HETATM   14  O   UNL     1      40.241 -15.499   2.944  1.00  0.00    -0.266 OA
BRANCH  12  15
HETATM   15  C   UNL     1      42.994 -16.661   2.881  1.00  0.00     0.035 A 
HETATM   16  C   UNL     1      43.201 -18.006   2.560  1.00  0.00     0.039 A 
HETATM   17  C   UNL     1      43.831 -18.884   3.463  1.00  0.00    -0.028 A 
HETATM   18  C   UNL     1      44.266 -18.382   4.697  1.00  0.00     0.010 A 
HETATM   19  C   UNL     1      44.060 -17.043   5.027  1.00  0.00     0.003 A 
HETATM   20  C   UNL     1      43.424 -16.188   4.125  1.00  0.00     0.029 A 
BRANCH  17  21
HETATM   21  C   UNL     1      44.044 -20.328   3.063  1.00  0.00     0.147 C 
HETATM   22  C   UNL     1      43.879 -21.268   4.252  1.00  0.00     0.044 C 
BRANCH  21  23
HETATM   23  O   UNL     1      43.124 -20.709   2.041  1.00  0.00    -0.391 OA
HETATM   24  H   UNL     1      42.277 -20.891   2.479  1.00  0.00     0.210 HD
ENDBRANCH  21  23
ENDBRANCH  17  21
ENDBRANCH  12  15
ENDBRANCH   6  11
BRANCH   8  25
HETATM   25  C   UNL     1      38.743 -13.997  -2.661  1.00  0.00     0.409 C 
HETATM   26  F   UNL     1      38.223 -13.513  -3.803  1.00  0.00    -0.169 F 
HETATM   27  F   UNL     1      38.751 -15.351  -2.763  1.00  0.00    -0.169 F 
HETATM   28  F   UNL     1      37.872 -13.702  -1.666  1.00  0.00    -0.169 F 
ENDBRANCH   8  25
BRANCH   1  29
HETATM   29  C   UNL     1      38.545 -10.459  -2.266  1.00  0.00    -0.035 A 
HETATM   30  C   UNL     1      37.647 -10.459  -1.185  1.00  0.00     0.010 A 
HETATM   31  C   UNL     1      36.313 -10.075  -1.352  1.00  0.00     0.007 A 
HETATM   32  C   UNL     1      35.842  -9.685  -2.609  1.00  0.00    -0.062 A 
HETATM   33  C   UNL     1      34.421  -9.242  -2.796  1.00  0.00     0.048 C 
HETATM   34  C   UNL     1      36.730  -9.667  -3.687  1.00  0.00     0.007 A 
HETATM   35  C   UNL     1      38.062 -10.060  -3.519  1.00  0.00     0.010 A 
ENDBRANCH   1  29
TORSDOF 6
ENDMDL
MODEL 4
REMARK VINA RESULT:      -8.6      2.399      3.350
REMARK  6 active torsions:
REMARK  status: ('A' for Active; 'I' for Inactive)
REMARK    1  A    between atoms: C_5  and  C_6 
REMARK    2  A    between atoms: C_11  and  C_12 
REMARK       I    between atoms: C_12  and  N_13 
REMARK    3  A    between atoms: N_13  and  C_14 
REMARK    4  A    between atoms: C_16  and  C_17 
REMARK    5  A    between atoms: C_17  and  O_18 
REMARK    6  A    between atoms: C_25  and  C_26 
ROOT
HETATM    1  C   UNL     1      41.377  -8.577  10.336  1.00  0.00     0.118 C 
HETATM    2  N   UNL     1      41.224  -8.894   8.921  1.00  0.00    -0.366 N 
HETATM    3  C   UNL     1      42.069  -9.710   8.259  1.00  0.00     0.123 A 
HETATM    4  N   UNL     1      43.114 -10.328   8.884  1.00  0.00    -0.240 N 
HETATM    5  N   UNL     1      43.818 -11.154   8.085  1.00  0.00    -0.165 NA
HETATM    6  C   UNL     1      43.217 -11.015   6.881  1.00  0.00     0.148 A 
HETATM    7  C   UNL     1      42.119 -10.115   6.953  1.00  0.00     0.089 A 
HETATM    8  C   UNL     1      43.423 -10.177  10.293  1.00  0.00     0.221 C 
HETATM    9  C   UNL     1      42.193  -9.662  11.062  1.00  0.00     0.066 C 
HETATM   10  H   UNL     1      40.520  -8.349   8.425  1.00  0.00     0.161 HD
ENDROOT
BRANCH   6  11
HETATM   11  C   UNL     1      43.677 -11.735   5.679  1.00  0.00     0.276 C 
HETATM   12  N   UNL     1      42.899 -12.844   5.409  1.00  0.00    -0.322 N 
HETATM   13  H   UNL     1      42.158 -12.996   6.089  1.00  0.00     0.169 HD
HETATM   14  O   UNL     1      44.652 -11.349   5.043  1.00  0.00    -0.266 OA
BRANCH  12  15
HETATM   15  C   UNL     1      43.027 -13.761   4.352  1.00  0.00     0.035 A 
HETATM   16  C   UNL     1      43.055 -15.148   4.528  1.00  0.00     0.039 A 
HETATM   17  C   UNL     1      43.188 -16.021   3.431  1.00  0.00    -0.028 A 
HETATM   18  C   UNL     1      43.281 -15.475   2.144  1.00  0.00     0.010 A 
HETATM   19  C   UNL     1      43.259 -14.093   1.959  1.00  0.00     0.003 A 
HETATM   20  C   UNL     1      43.136 -13.241   3.058  1.00  0.00     0.029 A 
BRANCH  17  21
HETATM   21  C   UNL     1      43.199 -17.515   3.672  1.00  0.00     0.147 C 
HETATM   22  C   UNL     1      43.235 -18.294   2.363  1.00  0.00     0.044 C 
BRANCH  21  23
HETATM   23  O   UNL     1      44.325 -17.889   4.465  1.00  0.00    -0.391 OA
HETATM   24  H   UNL     1      44.028 -18.601   5.055  1.00  0.00     0.210 HD
ENDBRANCH  21  23
ENDBRANCH  17  21
ENDBRANCH  12  15
ENDBRANCH   6  11
BRANCH   8  25
HETATM   25  C   UNL     1      44.663  -9.332  10.470  1.00  0.00     0.409 C 
HETATM   26  F   UNL     1      44.875  -8.452   9.476  1.00  0.00    -0.169 F 
HETATM   27  F   UNL     1      44.583  -8.623  11.626  1.00  0.00    -0.169 F 
HETATM   28  F   UNL     1      45.777 -10.096  10.576  1.00  0.00    -0.169 F 
ENDBRANCH   8  25
BRANCH   1  29
HETATM   29  C   UNL     1      41.843  -7.153  10.571  1.00  0.00    -0.035 A 
HETATM   30  C   UNL     1      41.815  -6.633  11.877  1.00  0.00     0.010 A 
HETATM   31  C   UNL     1      42.206  -5.318  12.141  1.00  0.00     0.007 A 
HETATM   32  C   UNL     1      42.632  -4.484  11.103  1.00  0.00    -0.062 A 
HETATM   33  C   UNL     1      43.082  -3.080  11.377  1.00  0.00     0.048 C 
HETATM   34  C   UNL     1      42.678  -4.995   9.804  1.00  0.00     0.007 A 
HETATM   35  C   UNL     1      42.279  -6.309   9.540  1.00  0.00     0.010 A 
ENDBRANCH   1  29
TORSDOF 6
ENDMDL
MODEL 5
REMARK VINA RESULT:      -8.5      1.418      1.992
REMARK  6 active torsions:
REMARK  status: ('A' for Active; 'I' for Inactive)
REMARK    1  A    between atoms: C_5  and  C_6 
REMARK    2  A    between atoms: C_11  and  C_12 
REMARK       I    between atoms: C_12  and  N_13 
REMARK    3  A    between atoms: N_13  and  C_14 
REMARK    4  A    between atoms: C_16  and  C_17 
REMARK    5  A    between atoms: C_17  and  O_18 
REMARK    6  A    between atoms: C_25  and  C_26 
ROOT
HETATM    1  C   UNL     1      43.803  -8.104   8.768  1.00  0.00     0.118 C 
HETATM    2  N   UNL     1      44.316  -9.420   8.410  1.00  0.00    -0.366 N 
HETATM    3  C   UNL     1      43.616 -10.301   7.668  1.00  0.00     0.123 A 
HETATM    4  N   UNL     1      42.380 -10.003   7.168  1.00  0.00    -0.240 N 
HETATM    5  N   UNL     1      41.852 -10.975   6.399  1.00  0.00    -0.165 NA
HETATM    6  C   UNL     1      42.779 -11.959   6.455  1.00  0.00     0.148 A 
HETATM    7  C   UNL     1      43.896 -11.572   7.244  1.00  0.00     0.089 A 
HETATM    8  C   UNL     1      41.703  -8.738   7.376  1.00  0.00     0.221 C 
HETATM    9  C   UNL     1      42.711  -7.647   7.784  1.00  0.00     0.066 C 
HETATM   10  H   UNL     1      45.182  -9.693   8.874  1.00  0.00     0.161 HD
ENDROOT
BRANCH   6  11
HETATM   11  C   UNL     1      42.608 -13.248   5.760  1.00  0.00     0.276 C 
HETATM   12  N   UNL     1      43.309 -14.267   6.375  1.00  0.00    -0.322 N 
HETATM   13  H   UNL     1      43.843 -13.961   7.186  1.00  0.00     0.169 HD
HETATM   14  O   UNL     1      41.921 -13.337   4.749  1.00  0.00    -0.266 OA
BRANCH  12  15
HETATM   15  C   UNL     1      43.381 -15.622   6.007  1.00  0.00     0.035 A 
HETATM   16  C   UNL     1      43.464 -16.062   4.683  1.00  0.00     0.039 A 
HETATM   17  C   UNL     1      43.530 -17.433   4.372  1.00  0.00    -0.028 A 
HETATM   18  C   UNL     1      43.525 -18.362   5.421  1.00  0.00     0.010 A 
HETATM   19  C   UNL     1      43.437 -17.933   6.745  1.00  0.00     0.003 A 
HETATM   20  C   UNL     1      43.362 -16.569   7.035  1.00  0.00     0.029 A 
BRANCH  17  21
HETATM   21  C   UNL     1      43.633 -17.859   2.923  1.00  0.00     0.147 C 
HETATM   22  C   UNL     1      43.692 -19.376   2.788  1.00  0.00     0.044 C 
BRANCH  21  23
HETATM   23  O   UNL     1      42.520 -17.371   2.174  1.00  0.00    -0.391 OA
HETATM   24  H   UNL     1      42.876 -16.754   1.514  1.00  0.00     0.210 HD
ENDBRANCH  21  23
ENDBRANCH  17  21
ENDBRANCH  12  15
ENDBRANCH   6  11
BRANCH   8  25
HETATM   25  C   UNL     1      40.554  -8.911   8.342  1.00  0.00     0.409 C 
HETATM   26  F   UNL     1      40.827  -9.719   9.381  1.00  0.00    -0.169 F 
HETATM   27  F   UNL     1      40.188  -7.707   8.852  1.00  0.00    -0.169 F 
HETATM   28  F   UNL     1      39.453  -9.406   7.726  1.00  0.00    -0.169 F 
ENDBRANCH   8  25
BRANCH   1  29
HETATM   29  C   UNL     1      43.432  -7.997  10.236  1.00  0.00    -0.035 A 
HETATM   30  C   UNL     1      42.756  -6.851  10.687  1.00  0.00     0.010 A 
HETATM   31  C   UNL     1      42.420  -6.692  12.035  1.00  0.00     0.007 A 
HETATM   32  C   UNL     1      42.757  -7.676  12.969  1.00  0.00    -0.062 A 
HETATM   33  C   UNL     1      42.376  -7.531  14.412  1.00  0.00     0.048 C 
HETATM   34  C   UNL     1      43.416  -8.826  12.529  1.00  0.00     0.007 A 
HETATM   35  C   UNL     1      43.759  -8.980  11.181  1.00  0.00     0.010 A 
ENDBRANCH   1  29
TORSDOF 6
ENDMDL
MODEL 6
REMARK VINA RESULT:      -8.5     18.985     21.420
REMARK  6 active torsions:
REMARK  status: ('A' for Active; 'I' for Inactive)
REMARK    1  A    between atoms: C_5  and  C_6 
REMARK    2  A    between atoms: C_11  and  C_12 
REMARK       I    between atoms: C_12  and  N_13 
REMARK    3  A    between atoms: N_13  and  C_14 
REMARK    4  A    between atoms: C_16  and  C_17 
REMARK    5  A    between atoms: C_17  and  O_18 
REMARK    6  A    between atoms: C_25  and  C_26 
ROOT
HETATM    1  C   UNL     1      45.576 -27.985  -0.985  1.00  0.00     0.118 C 
HETATM    2  N   UNL     1      45.260 -28.546   0.324  1.00  0.00    -0.366 N 
HETATM    3  C   UNL     1      46.204 -29.011   1.166  1.00  0.00     0.123 A 
HETATM    4  N   UNL     1      47.535 -28.957   0.862  1.00  0.00    -0.240 N 
HETATM    5  N   UNL     1      48.340 -29.411   1.843  1.00  0.00    -0.165 NA
HETATM    6  C   UNL     1      47.472 -29.818   2.798  1.00  0.00     0.148 A 
HETATM    7  C   UNL     1      46.126 -29.586   2.406  1.00  0.00     0.089 A 
HETATM    8  C   UNL     1      48.065 -28.407  -0.371  1.00  0.00     0.221 C 
HETATM    9  C   UNL     1      47.030 -27.482  -1.037  1.00  0.00     0.066 C 
HETATM   10  H   UNL     1      44.270 -28.696   0.508  1.00  0.00     0.161 HD
ENDROOT
BRANCH   6  11
HETATM   11  C   UNL     1      47.918 -30.414   4.071  1.00  0.00     0.276 C 
HETATM   12  N   UNL     1      49.173 -30.983   3.967  1.00  0.00    -0.322 N 
HETATM   13  H   UNL     1      49.570 -30.920   3.032  1.00  0.00     0.169 HD
HETATM   14  O   UNL     1      47.206 -30.386   5.069  1.00  0.00    -0.266 OA
BRANCH  12  15
HETATM   15  C   UNL     1      49.921 -31.632   4.963  1.00  0.00     0.035 A 
HETATM   16  C   UNL     1      51.134 -31.148   5.460  1.00  0.00     0.039 A 
HETATM   17  C   UNL     1      51.843 -31.842   6.459  1.00  0.00    -0.028 A 
HETATM   18  C   UNL     1      51.304 -33.033   6.963  1.00  0.00     0.010 A 
HETATM   19  C   UNL     1      50.096 -33.526   6.470  1.00  0.00     0.003 A 
HETATM   20  C   UNL     1      49.410 -32.830   5.473  1.00  0.00     0.029 A 
BRANCH  17  21
HETATM   21  C   UNL     1      53.147 -31.270   6.974  1.00  0.00     0.147 C 
HETATM   22  C   UNL     1      53.465 -31.774   8.377  1.00  0.00     0.044 C 
BRANCH  21  23
HETATM   23  O   UNL     1      54.226 -31.612   6.104  1.00  0.00    -0.391 OA
HETATM   24  H   UNL     1      54.682 -30.783   5.884  1.00  0.00     0.210 HD
ENDBRANCH  21  23
ENDBRANCH  17  21
ENDBRANCH  12  15
ENDBRANCH   6  11
BRANCH   8  25
HETATM   25  C   UNL     1      48.571 -29.515  -1.264  1.00  0.00     0.409 C 
HETATM   26  F   UNL     1      49.881 -29.782  -1.118  1.00  0.00    -0.169 F 
HETATM   27  F   UNL     1      47.894 -30.664  -1.012  1.00  0.00    -0.169 F 
HETATM   28  F   UNL     1      48.361 -29.236  -2.574  1.00  0.00    -0.169 F 
ENDBRANCH   8  25
BRANCH   1  29
HETATM   29  C   UNL     1      45.168 -28.896  -2.127  1.00  0.00    -0.035 A 
HETATM   30  C   UNL     1      45.221 -28.405  -3.443  1.00  0.00     0.010 A 
HETATM   31  C   UNL     1      44.827 -29.195  -4.527  1.00  0.00     0.007 A 
HETATM   32  C   UNL     1      44.364 -30.498  -4.322  1.00  0.00    -0.062 A 
HETATM   33  C   UNL     1      43.966 -31.365  -5.478  1.00  0.00     0.048 C 
HETATM   34  C   UNL     1      44.321 -31.001  -3.020  1.00  0.00     0.007 A 
HETATM   35  C   UNL     1      44.708 -30.206  -1.935  1.00  0.00     0.010 A 
ENDBRANCH   1  29
TORSDOF 6
ENDMDL
MODEL 7
REMARK VINA RESULT:      -8.4      3.497      9.843
REMARK  6 active torsions:
REMARK  status: ('A' for Active; 'I' for Inactive)
REMARK    1  A    between atoms: C_5  and  C_6 
REMARK    2  A    between atoms: C_11  and  C_12 
REMARK       I    between atoms: C_12  and  N_13 
REMARK    3  A    between atoms: N_13  and  C_14 
REMARK    4  A    between atoms: C_16  and  C_17 
REMARK    5  A    between atoms: C_17  and  O_18 
REMARK    6  A    between atoms: C_25  and  C_26 
ROOT
HETATM    1  C   UNL     1      40.521 -14.482   3.153  1.00  0.00     0.118 C 
HETATM    2  N   UNL     1      39.928 -14.069   4.419  1.00  0.00    -0.366 N 
HETATM    3  C   UNL     1      40.218 -12.894   5.014  1.00  0.00     0.123 A 
HETATM    4  N   UNL     1      41.069 -11.989   4.447  1.00  0.00    -0.240 N 
HETATM    5  N   UNL     1      41.198 -10.845   5.149  1.00  0.00    -0.165 NA
HETATM    6  C   UNL     1      40.425 -11.057   6.239  1.00  0.00     0.148 A 
HETATM    7  C   UNL     1      39.800 -12.332   6.189  1.00  0.00     0.089 A 
HETATM    8  C   UNL     1      41.738 -12.187   3.176  1.00  0.00     0.221 C 
HETATM    9  C   UNL     1      41.015 -13.266   2.349  1.00  0.00     0.066 C 
HETATM   10  H   UNL     1      39.386 -14.784   4.901  1.00  0.00     0.161 HD
ENDROOT
BRANCH   6  11
HETATM   11  C   UNL     1      40.278 -10.056   7.312  1.00  0.00     0.276 C 
HETATM   12  N   UNL     1      41.471  -9.817   7.966  1.00  0.00    -0.322 N 
HETATM   13  H   UNL     1      42.244 -10.382   7.620  1.00  0.00     0.169 HD
HETATM   14  O   UNL     1      39.192  -9.541   7.555  1.00  0.00    -0.266 OA
BRANCH  12  15
HETATM   15  C   UNL     1      41.720  -8.930   9.027  1.00  0.00     0.035 A 
HETATM   16  C   UNL     1      41.554  -7.546   8.936  1.00  0.00     0.039 A 
HETATM   17  C   UNL     1      41.822  -6.704  10.032  1.00  0.00    -0.028 A 
HETATM   18  C   UNL     1      42.250  -7.280  11.235  1.00  0.00     0.010 A 
HETATM   19  C   UNL     1      42.423  -8.661  11.334  1.00  0.00     0.003 A 
HETATM   20  C   UNL     1      42.162  -9.480  10.235  1.00  0.00     0.029 A 
BRANCH  17  21
HETATM   21  C   UNL     1      41.614  -5.211   9.887  1.00  0.00     0.147 C 
HETATM   22  C   UNL     1      42.750  -4.422  10.526  1.00  0.00     0.044 C 
BRANCH  21  23
HETATM   23  O   UNL     1      41.515  -4.848   8.510  1.00  0.00    -0.391 OA
HETATM   24  H   UNL     1      42.194  -5.354   8.037  1.00  0.00     0.210 HD
ENDBRANCH  21  23
ENDBRANCH  17  21
ENDBRANCH  12  15
ENDBRANCH   6  11
BRANCH   8  25
HETATM   25  C   UNL     1      43.209 -12.456   3.394  1.00  0.00     0.409 C 
HETATM   26  F   UNL     1      43.759 -13.272   2.477  1.00  0.00    -0.169 F 
HETATM   27  F   UNL     1      43.906 -11.290   3.366  1.00  0.00    -0.169 F 
HETATM   28  F   UNL     1      43.443 -13.002   4.611  1.00  0.00    -0.169 F 
ENDBRANCH   8  25
BRANCH   1  29
HETATM   29  C   UNL     1      41.532 -15.601   3.316  1.00  0.00    -0.035 A 
HETATM   30  C   UNL     1      42.017 -16.254   2.170  1.00  0.00     0.010 A 
HETATM   31  C   UNL     1      42.927 -17.311   2.269  1.00  0.00     0.007 A 
HETATM   32  C   UNL     1      43.372 -17.746   3.521  1.00  0.00    -0.062 A 
HETATM   33  C   UNL     1      44.370 -18.859   3.639  1.00  0.00     0.048 C 
HETATM   34  C   UNL     1      42.908 -17.094   4.666  1.00  0.00     0.007 A 
HETATM   35  C   UNL     1      41.992 -16.042   4.565  1.00  0.00     0.010 A 
ENDBRANCH   1  29
TORSDOF 6
ENDMDL
MODEL 8
REMARK VINA RESULT:      -8.3      2.091      3.158
REMARK  6 active torsions:
REMARK  status: ('A' for Active; 'I' for Inactive)
REMARK    1  A    between atoms: C_5  and  C_6 
REMARK    2  A    between atoms: C_11  and  C_12 
REMARK       I    between atoms: C_12  and  N_13 
REMARK    3  A    between atoms: N_13  and  C_14 
REMARK    4  A    between atoms: C_16  and  C_17 
REMARK    5  A    between atoms: C_17  and  O_18 
REMARK    6  A    between atoms: C_25  and  C_26 
ROOT
HETATM    1  C   UNL     1      42.758  -6.654   9.873  1.00  0.00     0.118 C 
HETATM    2  N   UNL     1      43.830  -7.498   9.357  1.00  0.00    -0.366 N 
HETATM    3  C   UNL     1      43.598  -8.646   8.689  1.00  0.00     0.123 A 
HETATM    4  N   UNL     1      42.332  -9.082   8.419  1.00  0.00    -0.240 N 
HETATM    5  N   UNL     1      42.287 -10.216   7.691  1.00  0.00    -0.165 NA
HETATM    6  C   UNL     1      43.592 -10.540   7.534  1.00  0.00     0.148 A 
HETATM    7  C   UNL     1      44.440  -9.581   8.151  1.00  0.00     0.089 A 
HETATM    8  C   UNL     1      41.128  -8.376   8.811  1.00  0.00     0.221 C 
HETATM    9  C   UNL     1      41.444  -6.898   9.111  1.00  0.00     0.066 C 
HETATM   10  H   UNL     1      44.770  -7.242   9.655  1.00  0.00     0.161 HD
ENDROOT
BRANCH   6  11
HETATM   11  C   UNL     1      44.026 -11.744   6.801  1.00  0.00     0.276 C 
HETATM   12  N   UNL     1      43.033 -12.702   6.743  1.00  0.00    -0.322 N 
HETATM   13  H   UNL     1      42.180 -12.434   7.230  1.00  0.00     0.169 HD
HETATM   14  O   UNL     1      45.156 -11.828   6.333  1.00  0.00    -0.266 OA
BRANCH  12  15
HETATM   15  C   UNL     1      43.075 -13.965   6.127  1.00  0.00     0.035 A 
HETATM   16  C   UNL     1      42.305 -14.310   5.013  1.00  0.00     0.039 A 
HETATM   17  C   UNL     1      42.386 -15.593   4.438  1.00  0.00    -0.028 A 
HETATM   18  C   UNL     1      43.269 -16.526   4.997  1.00  0.00     0.010 A 
HETATM   19  C   UNL     1      44.038 -16.192   6.111  1.00  0.00     0.003 A 
HETATM   20  C   UNL     1      43.939 -14.918   6.675  1.00  0.00     0.029 A 
BRANCH  17  21
HETATM   21  C   UNL     1      41.541 -15.914   3.224  1.00  0.00     0.147 C 
HETATM   22  C   UNL     1      42.022 -17.181   2.526  1.00  0.00     0.044 C 
BRANCH  21  23
HETATM   23  O   UNL     1      40.172 -16.079   3.592  1.00  0.00    -0.391 OA
HETATM   24  H   UNL     1      39.705 -16.389   2.799  1.00  0.00     0.210 HD
ENDBRANCH  21  23
ENDBRANCH  17  21
ENDBRANCH  12  15
ENDBRANCH   6  11
BRANCH   8  25
HETATM   25  C   UNL     1      40.438  -9.103   9.941  1.00  0.00     0.409 C 
HETATM   26  F   UNL     1      39.506  -9.985   9.537  1.00  0.00    -0.169 F 
HETATM   27  F   UNL     1      41.348  -9.788  10.680  1.00  0.00    -0.169 F 
HETATM   28  F   UNL     1      39.833  -8.242  10.794  1.00  0.00    -0.169 F 
ENDBRANCH   8  25
BRANCH   1  29
HETATM   29  C   UNL     1      42.646  -6.707  11.385  1.00  0.00    -0.035 A 
HETATM   30  C   UNL     1      43.258  -7.766  12.078  1.00  0.00     0.010 A 
HETATM   31  C   UNL     1      43.159  -7.875  13.468  1.00  0.00     0.007 A 
HETATM   32  C   UNL     1      42.437  -6.929  14.202  1.00  0.00    -0.062 A 
HETATM   33  C   UNL     1      42.347  -7.018  15.696  1.00  0.00     0.048 C 
HETATM   34  C   UNL     1      41.837  -5.864  13.525  1.00  0.00     0.007 A 
HETATM   35  C   UNL     1      41.932  -5.761  12.133  1.00  0.00     0.010 A 
ENDBRANCH   1  29
TORSDOF 6
ENDMDL
MODEL 9
REMARK VINA RESULT:      -8.3      3.431      9.722
REMARK  6 active torsions:
REMARK  status: ('A' for Active; 'I' for Inactive)
REMARK    1  A    between atoms: C_5  and  C_6 
REMARK    2  A    between atoms: C_11  and  C_12 
REMARK       I    between atoms: C_12  and  N_13 
REMARK    3  A    between atoms: N_13  and  C_14 
REMARK    4  A    between atoms: C_16  and  C_17 
REMARK    5  A    between atoms: C_17  and  O_18 
REMARK    6  A    between atoms: C_25  and  C_26 
ROOT
HETATM    1  C   UNL     1      40.835 -12.673   2.732  1.00  0.00     0.118 C 
HETATM    2  N   UNL     1      40.067 -12.390   3.938  1.00  0.00    -0.366 N 
HETATM    3  C   UNL     1      40.517 -11.581   4.918  1.00  0.00     0.123 A 
HETATM    4  N   UNL     1      41.719 -10.938   4.830  1.00  0.00    -0.240 N 
HETATM    5  N   UNL     1      41.982 -10.123   5.871  1.00  0.00    -0.165 NA
HETATM    6  C   UNL     1      40.913 -10.296   6.683  1.00  0.00     0.148 A 
HETATM    7  C   UNL     1      39.978 -11.206   6.119  1.00  0.00     0.089 A 
HETATM    8  C   UNL     1      42.620 -11.053   3.700  1.00  0.00     0.221 C 
HETATM    9  C   UNL     1      41.867 -11.563   2.458  1.00  0.00     0.066 C 
HETATM   10  H   UNL     1      39.228 -12.954   4.064  1.00  0.00     0.161 HD
ENDROOT
BRANCH   6  11
HETATM   11  C   UNL     1      40.781  -9.599   7.976  1.00  0.00     0.276 C 
HETATM   12  N   UNL     1      41.833  -9.878   8.826  1.00  0.00    -0.322 N 
HETATM   13  H   UNL     1      42.509 -10.530   8.435  1.00  0.00     0.169 HD
HETATM   14  O   UNL     1      39.816  -8.880   8.212  1.00  0.00    -0.266 OA
BRANCH  12  15
HETATM   15  C   UNL     1      42.053  -9.395  10.127  1.00  0.00     0.035 A 
HETATM   16  C   UNL     1      41.032  -9.184  11.058  1.00  0.00     0.039 A 
HETATM   17  C   UNL     1      41.310  -8.696  12.349  1.00  0.00    -0.028 A 
HETATM   18  C   UNL     1      42.641  -8.433  12.697  1.00  0.00     0.010 A 
HETATM   19  C   UNL     1      43.666  -8.636  11.773  1.00  0.00     0.003 A 
HETATM   20  C   UNL     1      43.372  -9.112  10.494  1.00  0.00     0.029 A 
BRANCH  17  21
HETATM   21  C   UNL     1      40.170  -8.496  13.326  1.00  0.00     0.147 C 
HETATM   22  C   UNL     1      40.107  -7.058  13.827  1.00  0.00     0.044 C 
BRANCH  21  23
HETATM   23  O   UNL     1      38.923  -8.831  12.720  1.00  0.00    -0.391 OA
HETATM   24  H   UNL     1      39.098  -8.970  11.775  1.00  0.00     0.210 HD
ENDBRANCH  21  23
ENDBRANCH  17  21
ENDBRANCH  12  15
ENDBRANCH   6  11
BRANCH   8  25
HETATM   25  C   UNL     1      43.828 -11.880   4.075  1.00  0.00     0.409 C 
HETATM   26  F   UNL     1      43.548 -12.935   4.862  1.00  0.00    -0.169 F 
HETATM   27  F   UNL     1      44.430 -12.360   2.957  1.00  0.00    -0.169 F 
HETATM   28  F   UNL     1      44.764 -11.138   4.715  1.00  0.00    -0.169 F 
ENDBRANCH   8  25
BRANCH   1  29
HETATM   29  C   UNL     1      41.386 -14.086   2.704  1.00  0.00    -0.035 A 
HETATM   30  C   UNL     1      42.341 -14.426   1.731  1.00  0.00     0.010 A 
HETATM   31  C   UNL     1      42.857 -15.723   1.645  1.00  0.00     0.007 A 
HETATM   32  C   UNL     1      42.425 -16.716   2.528  1.00  0.00    -0.062 A 
HETATM   33  C   UNL     1      42.991 -18.103   2.465  1.00  0.00     0.048 C 
HETATM   34  C   UNL     1      41.486 -16.385   3.509  1.00  0.00     0.007 A 
HETATM   35  C   UNL     1      40.965 -15.089   3.588  1.00  0.00     0.010 A 
ENDBRANCH   1  29
TORSDOF 6
ENDMDL
MODEL 10
REMARK VINA RESULT:      -8.2      6.437      9.723
REMARK  6 active torsions:
REMARK  status: ('A' for Active; 'I' for Inactive)
REMARK    1  A    between atoms: C_5  and  C_6 
REMARK    2  A    between atoms: C_11  and  C_12 
REMARK       I    between atoms: C_12  and  N_13 
REMARK    3  A    between atoms: N_13  and  C_14 
REMARK    4  A    between atoms: C_16  and  C_17 
REMARK    5  A    between atoms: C_17  and  O_18 
REMARK    6  A    between atoms: C_25  and  C_26 
ROOT
HETATM    1  C   UNL     1      40.538 -10.553  -2.019  1.00  0.00     0.118 C 
HETATM    2  N   UNL     1      41.130 -11.068  -0.790  1.00  0.00    -0.366 N 
HETATM    3  C   UNL     1      40.916 -12.322  -0.345  1.00  0.00     0.123 A 
HETATM    4  N   UNL     1      40.151 -13.215  -1.041  1.00  0.00    -0.240 N 
HETATM    5  N   UNL     1      40.094 -14.440  -0.482  1.00  0.00    -0.165 NA
HETATM    6  C   UNL     1      40.820 -14.301   0.652  1.00  0.00     0.148 A 
HETATM    7  C   UNL     1      41.346 -12.987   0.770  1.00  0.00     0.089 A 
HETATM    8  C   UNL     1      39.502 -12.918  -2.303  1.00  0.00     0.221 C 
HETATM    9  C   UNL     1      40.160 -11.699  -2.975  1.00  0.00     0.066 C 
HETATM   10  H   UNL     1      41.602 -10.376  -0.210  1.00  0.00     0.161 HD
ENDROOT
BRANCH   6  11
HETATM   11  C   UNL     1      41.017 -15.409   1.606  1.00  0.00     0.276 C 
HETATM   12  N   UNL     1      42.349 -15.596   1.918  1.00  0.00    -0.322 N 
HETATM   13  H   UNL     1      42.974 -14.961   1.425  1.00  0.00     0.169 HD
HETATM   14  O   UNL     1      40.066 -16.059   2.027  1.00  0.00    -0.266 OA
BRANCH  12  15
HETATM   15  C   UNL     1      42.916 -16.542   2.789  1.00  0.00     0.035 A 
HETATM   16  C   UNL     1      43.217 -16.279   4.128  1.00  0.00     0.039 A 
HETATM   17  C   UNL     1      43.787 -17.266   4.955  1.00  0.00    -0.028 A 
HETATM   18  C   UNL     1      44.040 -18.533   4.415  1.00  0.00     0.010 A 
HETATM   19  C   UNL     1      43.747 -18.803   3.079  1.00  0.00     0.003 A 
HETATM   20  C   UNL     1      43.191 -17.810   2.269  1.00  0.00     0.029 A 
BRANCH  17  21
HETATM   21  C   UNL     1      44.083 -16.936   6.403  1.00  0.00     0.147 C 
HETATM   22  C   UNL     1      43.840 -15.462   6.704  1.00  0.00     0.044 C 
BRANCH  21  23
HETATM   23  O   UNL     1      43.274 -17.726   7.275  1.00  0.00    -0.391 OA
HETATM   24  H   UNL     1      43.841 -18.436   7.616  1.00  0.00     0.210 HD
ENDBRANCH  21  23
ENDBRANCH  17  21
ENDBRANCH  12  15
ENDBRANCH   6  11
BRANCH   8  25
HETATM   25  C   UNL     1      38.009 -12.786  -2.107  1.00  0.00     0.409 C 
HETATM   26  F   UNL     1      37.330 -13.935  -2.275  1.00  0.00    -0.169 F 
HETATM   27  F   UNL     1      37.742 -12.339  -0.853  1.00  0.00    -0.169 F 
HETATM   28  F   UNL     1      37.473 -11.873  -2.952  1.00  0.00    -0.169 F 
ENDBRANCH   8  25
BRANCH   1  29
HETATM   29  C   UNL     1      39.440  -9.539  -1.763  1.00  0.00    -0.035 A 
HETATM   30  C   UNL     1      39.024  -9.304  -0.441  1.00  0.00     0.010 A 
HETATM   31  C   UNL     1      37.996  -8.401  -0.155  1.00  0.00     0.007 A 
HETATM   32  C   UNL     1      37.351  -7.713  -1.187  1.00  0.00    -0.062 A 
HETATM   33  C   UNL     1      36.266  -6.721  -0.891  1.00  0.00     0.048 C 
HETATM   34  C   UNL     1      37.766  -7.928  -2.503  1.00  0.00     0.007 A 
HETATM   35  C   UNL     1      38.790  -8.838  -2.788  1.00  0.00     0.010 A 
ENDBRANCH   1  29
TORSDOF 6
ENDMDL
