MODEL 1
REMARK VINA RESULT:      -7.4      0.000      0.000
REMARK  3 active torsions:
REMARK  status: ('A' for Active; 'I' for Inactive)
REMARK    1  A    between atoms: C_2  and  N_3 
REMARK    2  A    between atoms: N_10  and  C_11 
REMARK    3  A    between atoms: C_11  and  C_12 
ROOT
HETATM    1  N   UNL     1      40.457 -12.164   5.041  1.00  0.00    -0.063 N 
HETATM    2  H   UNL     1      39.634 -12.002   5.636  1.00  0.00     0.280 HD
HETATM    3  C   UNL     1      40.324 -13.628   4.601  1.00  0.00     0.277 C 
HETATM    4  C   UNL     1      41.554 -14.270   3.885  1.00  0.00     0.132 C 
HETATM    5  O   UNL     1      41.995 -13.442   2.788  1.00  0.00    -0.373 OA
HETATM    6  C   UNL     1      41.303 -13.701   1.561  1.00  0.00     0.199 C 
HETATM    7  C   UNL     1      41.514 -15.135   1.050  1.00  0.00     0.299 C 
HETATM    8  N   UNL     1      41.742 -16.141   2.105  1.00  0.00     0.097 N 
HETATM    9  C   UNL     1      41.124 -15.695   3.366  1.00  0.00     0.314 C 
HETATM   10  C   UNL     1      42.704 -14.458   4.911  1.00  0.00     0.209 C 
HETATM   11  O   UNL     1      43.532 -13.353   5.241  1.00  0.00    -0.386 OA
HETATM   12  C   UNL     1      42.981 -12.051   5.290  1.00  0.00     0.195 C 
HETATM   13  C   UNL     1      41.631 -11.961   5.994  1.00  0.00     0.261 C 
ENDROOT
BRANCH   1  14
HETATM   14  C   UNL     1      40.310 -11.112   3.919  1.00  0.00     0.180 C 
HETATM   15  C   UNL     1      40.280  -9.693   4.499  1.00  0.00     0.039 C 
HETATM   16  C   UNL     1      39.002 -11.347   3.158  1.00  0.00     0.039 C 
ENDBRANCH   1  14
BRANCH   8  17
HETATM   17  C   UNL     1      43.176 -16.461   2.244  1.00  0.00     0.311 C 
BRANCH  17  18
HETATM   18  C   UNL     1      43.437 -17.814   2.877  1.00  0.00    -0.030 A 
HETATM   19  C   UNL     1      43.908 -17.893   4.199  1.00  0.00     0.012 A 
HETATM   20  C   UNL     1      44.159 -19.133   4.787  1.00  0.00     0.043 A 
HETATM   21  C   UNL     1      43.933 -20.294   4.059  1.00  0.00     0.116 A 
HETATM   22  F   UNL     1      44.182 -21.484   4.623  1.00  0.00    -0.206 F 
HETATM   23  C   UNL     1      43.459 -20.239   2.755  1.00  0.00     0.043 A 
HETATM   24  C   UNL     1      43.207 -19.001   2.164  1.00  0.00     0.012 A 
ENDBRANCH  17  18
ENDBRANCH   8  17
TORSDOF 3
ENDMDL
MODEL 2
REMARK VINA RESULT:      -7.4      1.712      2.317
REMARK  3 active torsions:
REMARK  status: ('A' for Active; 'I' for Inactive)
REMARK    1  A    between atoms: C_2  and  N_3 
REMARK    2  A    between atoms: N_10  and  C_11 
REMARK    3  A    between atoms: C_11  and  C_12 
ROOT
HETATM    1  N   UNL     1      41.280 -10.523   5.258  1.00  0.00    -0.063 N 
HETATM    2  H   UNL     1      41.350  -9.830   6.016  1.00  0.00     0.280 HD
HETATM    3  C   UNL     1      42.045 -11.743   5.788  1.00  0.00     0.277 C 
HETATM    4  C   UNL     1      42.344 -12.890   4.773  1.00  0.00     0.132 C 
HETATM    5  O   UNL     1      41.140 -13.297   4.092  1.00  0.00    -0.373 OA
HETATM    6  C   UNL     1      40.388 -14.289   4.801  1.00  0.00     0.199 C 
HETATM    7  C   UNL     1      41.166 -15.601   4.991  1.00  0.00     0.299 C 
HETATM    8  N   UNL     1      42.631 -15.445   5.079  1.00  0.00     0.097 N 
HETATM    9  C   UNL     1      42.963 -14.098   5.576  1.00  0.00     0.314 C 
HETATM   10  C   UNL     1      43.403 -12.403   3.746  1.00  0.00     0.209 C 
HETATM   11  O   UNL     1      42.992 -11.602   2.648  1.00  0.00    -0.386 OA
HETATM   12  C   UNL     1      41.938 -10.673   2.811  1.00  0.00     0.195 C 
HETATM   13  C   UNL     1      42.009  -9.854   4.097  1.00  0.00     0.261 C 
ENDROOT
BRANCH   1  14
HETATM   14  C   UNL     1      39.757 -10.714   5.077  1.00  0.00     0.180 C 
HETATM   15  C   UNL     1      39.083  -9.399   4.675  1.00  0.00     0.039 C 
HETATM   16  C   UNL     1      39.136 -11.189   6.394  1.00  0.00     0.039 C 
ENDBRANCH   1  14
BRANCH   8  17
HETATM   17  C   UNL     1      43.285 -15.769   3.798  1.00  0.00     0.311 C 
BRANCH  17  18
HETATM   18  C   UNL     1      43.474 -17.256   3.572  1.00  0.00    -0.030 A 
HETATM   19  C   UNL     1      44.079 -18.047   4.564  1.00  0.00     0.012 A 
HETATM   20  C   UNL     1      44.265 -19.415   4.361  1.00  0.00     0.043 A 
HETATM   21  C   UNL     1      43.841 -19.995   3.173  1.00  0.00     0.116 A 
HETATM   22  F   UNL     1      44.027 -21.307   2.977  1.00  0.00    -0.206 F 
HETATM   23  C   UNL     1      43.233 -19.234   2.183  1.00  0.00     0.043 A 
HETATM   24  C   UNL     1      43.046 -17.866   2.382  1.00  0.00     0.012 A 
ENDBRANCH  17  18
ENDBRANCH   8  17
TORSDOF 3
ENDMDL
MODEL 3
REMARK VINA RESULT:      -7.2      1.770      2.329
REMARK  3 active torsions:
REMARK  status: ('A' for Active; 'I' for Inactive)
REMARK    1  A    between atoms: C_2  and  N_3 
REMARK    2  A    between atoms: N_10  and  C_11 
REMARK    3  A    between atoms: C_11  and  C_12 
ROOT
HETATM    1  N   UNL     1      39.447 -10.814   2.558  1.00  0.00    -0.063 N 
HETATM    2  H   UNL     1      38.772 -10.331   3.165  1.00  0.00     0.280 HD
HETATM    3  C   UNL     1      39.591 -12.208   3.185  1.00  0.00     0.277 C 
HETATM    4  C   UNL     1      40.740 -13.115   2.644  1.00  0.00     0.132 C 
HETATM    5  O   UNL     1      40.687 -13.203   1.206  1.00  0.00    -0.373 OA
HETATM    6  C   UNL     1      39.816 -14.236   0.727  1.00  0.00     0.199 C 
HETATM    7  C   UNL     1      40.259 -15.639   1.168  1.00  0.00     0.299 C 
HETATM    8  N   UNL     1      40.977 -15.687   2.456  1.00  0.00     0.097 N 
HETATM    9  C   UNL     1      40.578 -14.542   3.295  1.00  0.00     0.314 C 
HETATM   10  C   UNL     1      42.108 -12.534   3.095  1.00  0.00     0.209 C 
HETATM   11  O   UNL     1      42.681 -11.456   2.371  1.00  0.00    -0.386 OA
HETATM   12  C   UNL     1      41.844 -10.470   1.798  1.00  0.00     0.195 C 
HETATM   13  C   UNL     1      40.719  -9.988   2.709  1.00  0.00     0.261 C 
ENDROOT
BRANCH   1  14
HETATM   14  C   UNL     1      38.778 -10.774   1.165  1.00  0.00     0.180 C 
HETATM   15  C   UNL     1      38.628  -9.331   0.671  1.00  0.00     0.039 C 
HETATM   16  C   UNL     1      37.384 -11.402   1.243  1.00  0.00     0.039 C 
ENDBRANCH   1  14
BRANCH   8  17
HETATM   17  C   UNL     1      42.435 -15.780   2.258  1.00  0.00     0.311 C 
BRANCH  17  18
HETATM   18  C   UNL     1      43.071 -16.956   2.973  1.00  0.00    -0.030 A 
HETATM   19  C   UNL     1      43.520 -16.815   4.298  1.00  0.00     0.012 A 
HETATM   20  C   UNL     1      44.114 -17.890   4.961  1.00  0.00     0.043 A 
HETATM   21  C   UNL     1      44.252 -19.106   4.306  1.00  0.00     0.116 A 
HETATM   22  F   UNL     1      44.828 -20.135   4.942  1.00  0.00    -0.206 F 
HETATM   23  C   UNL     1      43.806 -19.271   3.001  1.00  0.00     0.043 A 
HETATM   24  C   UNL     1      43.213 -18.198   2.335  1.00  0.00     0.012 A 
ENDBRANCH  17  18
ENDBRANCH   8  17
TORSDOF 3
ENDMDL
MODEL 4
REMARK VINA RESULT:      -7.0      2.011      3.531
REMARK  3 active torsions:
REMARK  status: ('A' for Active; 'I' for Inactive)
REMARK    1  A    between atoms: C_2  and  N_3 
REMARK    2  A    between atoms: N_10  and  C_11 
REMARK    3  A    between atoms: C_11  and  C_12 
ROOT
HETATM    1  N   UNL     1      41.830 -10.064   2.214  1.00  0.00    -0.063 N 
HETATM    2  H   UNL     1      42.581  -9.372   2.090  1.00  0.00     0.280 HD
HETATM    3  C   UNL     1      42.474 -11.176   3.054  1.00  0.00     0.277 C 
HETATM    4  C   UNL     1      41.669 -12.504   3.211  1.00  0.00     0.132 C 
HETATM    5  O   UNL     1      40.324 -12.236   3.658  1.00  0.00    -0.373 OA
HETATM    6  C   UNL     1      40.203 -12.141   5.083  1.00  0.00     0.199 C 
HETATM    7  C   UNL     1      40.579 -13.447   5.800  1.00  0.00     0.299 C 
HETATM    8  N   UNL     1      41.588 -14.268   5.104  1.00  0.00     0.097 N 
HETATM    9  C   UNL     1      42.431 -13.411   4.251  1.00  0.00     0.314 C 
HETATM   10  C   UNL     1      41.643 -13.251   1.850  1.00  0.00     0.209 C 
HETATM   11  O   UNL     1      40.709 -12.858   0.856  1.00  0.00    -0.386 OA
HETATM   12  C   UNL     1      40.355 -11.494   0.724  1.00  0.00     0.195 C 
HETATM   13  C   UNL     1      41.532 -10.525   0.792  1.00  0.00     0.261 C 
ENDROOT
BRANCH   1  14
HETATM   14  C   UNL     1      40.708  -9.262   2.912  1.00  0.00     0.180 C 
HETATM   15  C   UNL     1      40.256  -8.083   2.045  1.00  0.00     0.039 C 
HETATM   16  C   UNL     1      41.220  -8.710   4.246  1.00  0.00     0.039 C 
ENDBRANCH   1  14
BRANCH   8  17
HETATM   17  C   UNL     1      40.961 -15.382   4.367  1.00  0.00     0.311 C 
BRANCH  17  18
HETATM   18  C   UNL     1      41.946 -16.447   3.924  1.00  0.00    -0.030 A 
HETATM   19  C   UNL     1      41.930 -16.912   2.598  1.00  0.00     0.012 A 
HETATM   20  C   UNL     1      42.826 -17.898   2.184  1.00  0.00     0.043 A 
HETATM   21  C   UNL     1      43.744 -18.413   3.090  1.00  0.00     0.116 A 
HETATM   22  F   UNL     1      44.600 -19.364   2.692  1.00  0.00    -0.206 F 
HETATM   23  C   UNL     1      43.784 -17.961   4.402  1.00  0.00     0.043 A 
HETATM   24  C   UNL     1      42.888 -16.976   4.820  1.00  0.00     0.012 A 
ENDBRANCH  17  18
ENDBRANCH   8  17
TORSDOF 3
ENDMDL
MODEL 5
REMARK VINA RESULT:      -7.0      3.974      6.652
REMARK  3 active torsions:
REMARK  status: ('A' for Active; 'I' for Inactive)
REMARK    1  A    between atoms: C_2  and  N_3 
REMARK    2  A    between atoms: N_10  and  C_11 
REMARK    3  A    between atoms: C_11  and  C_12 
ROOT
HETATM    1  N   UNL     1      42.433 -16.305   5.413  1.00  0.00    -0.063 N 
HETATM    2  H   UNL     1      42.030 -16.614   6.308  1.00  0.00     0.280 HD
HETATM    3  C   UNL     1      41.286 -15.560   4.717  1.00  0.00     0.277 C 
HETATM    4  C   UNL     1      41.493 -15.178   3.218  1.00  0.00     0.132 C 
HETATM    5  O   UNL     1      42.743 -14.480   3.037  1.00  0.00    -0.373 OA
HETATM    6  C   UNL     1      42.648 -13.067   3.254  1.00  0.00     0.199 C 
HETATM    7  C   UNL     1      41.692 -12.377   2.268  1.00  0.00     0.299 C 
HETATM    8  N   UNL     1      40.583 -13.223   1.785  1.00  0.00     0.097 N 
HETATM    9  C   UNL     1      40.282 -14.270   2.777  1.00  0.00     0.314 C 
HETATM   10  C   UNL     1      41.468 -16.467   2.352  1.00  0.00     0.209 C 
HETATM   11  O   UNL     1      42.636 -17.269   2.260  1.00  0.00    -0.386 OA
HETATM   12  C   UNL     1      43.493 -17.393   3.379  1.00  0.00     0.195 C 
HETATM   13  C   UNL     1      42.773 -17.614   4.706  1.00  0.00     0.261 C 
ENDROOT
BRANCH   1  14
HETATM   14  C   UNL     1      43.638 -15.435   5.837  1.00  0.00     0.180 C 
HETATM   15  C   UNL     1      44.685 -16.272   6.578  1.00  0.00     0.039 C 
HETATM   16  C   UNL     1      43.165 -14.318   6.772  1.00  0.00     0.039 C 
ENDBRANCH   1  14
BRANCH   8  17
HETATM   17  C   UNL     1      40.861 -13.761   0.440  1.00  0.00     0.311 C 
BRANCH  17  18
HETATM   18  C   UNL     1      39.719 -13.567  -0.538  1.00  0.00    -0.030 A 
HETATM   19  C   UNL     1      38.881 -12.444  -0.429  1.00  0.00     0.012 A 
HETATM   20  C   UNL     1      37.823 -12.262  -1.319  1.00  0.00     0.043 A 
HETATM   21  C   UNL     1      37.605 -13.196  -2.324  1.00  0.00     0.116 A 
HETATM   22  F   UNL     1      36.584 -13.023  -3.174  1.00  0.00    -0.206 F 
HETATM   23  C   UNL     1      38.426 -14.308  -2.457  1.00  0.00     0.043 A 
HETATM   24  C   UNL     1      39.486 -14.493  -1.567  1.00  0.00     0.012 A 
ENDBRANCH  17  18
ENDBRANCH   8  17
TORSDOF 3
ENDMDL
MODEL 6
REMARK VINA RESULT:      -6.8      2.870      4.018
REMARK  3 active torsions:
REMARK  status: ('A' for Active; 'I' for Inactive)
REMARK    1  A    between atoms: C_2  and  N_3 
REMARK    2  A    between atoms: N_10  and  C_11 
REMARK    3  A    between atoms: C_11  and  C_12 
ROOT
HETATM    1  N   UNL     1      38.961 -10.875  -0.126  1.00  0.00    -0.063 N 
HETATM    2  H   UNL     1      38.068 -10.371  -0.044  1.00  0.00     0.280 HD
HETATM    3  C   UNL     1      38.961 -11.844   1.065  1.00  0.00     0.277 C 
HETATM    4  C   UNL     1      40.297 -12.587   1.377  1.00  0.00     0.132 C 
HETATM    5  O   UNL     1      40.813 -13.229   0.193  1.00  0.00    -0.373 OA
HETATM    6  C   UNL     1      40.280 -14.541  -0.025  1.00  0.00     0.199 C 
HETATM    7  C   UNL     1      40.627 -15.520   1.108  1.00  0.00     0.299 C 
HETATM    8  N   UNL     1      40.790 -14.898   2.436  1.00  0.00     0.097 N 
HETATM    9  C   UNL     1      40.008 -13.650   2.505  1.00  0.00     0.314 C 
HETATM   10  C   UNL     1      41.333 -11.569   1.930  1.00  0.00     0.209 C 
HETATM   11  O   UNL     1      42.055 -10.748   1.025  1.00  0.00    -0.386 OA
HETATM   12  C   UNL     1      41.430 -10.286  -0.158  1.00  0.00     0.195 C 
HETATM   13  C   UNL     1      40.006  -9.775   0.037  1.00  0.00     0.261 C 
ENDROOT
BRANCH   1  14
HETATM   14  C   UNL     1      38.885 -11.531  -1.523  1.00  0.00     0.180 C 
HETATM   15  C   UNL     1      38.712 -10.472  -2.617  1.00  0.00     0.039 C 
HETATM   16  C   UNL     1      37.686 -12.482  -1.581  1.00  0.00     0.039 C 
ENDBRANCH   1  14
BRANCH   8  17
HETATM   17  C   UNL     1      42.213 -14.709   2.773  1.00  0.00     0.311 C 
BRANCH  17  18
HETATM   18  C   UNL     1      42.882 -15.961   3.304  1.00  0.00    -0.030 A 
HETATM   19  C   UNL     1      43.209 -17.011   2.428  1.00  0.00     0.012 A 
HETATM   20  C   UNL     1      43.816 -18.171   2.910  1.00  0.00     0.043 A 
HETATM   21  C   UNL     1      44.105 -18.281   4.264  1.00  0.00     0.116 A 
HETATM   22  F   UNL     1      44.683 -19.398   4.726  1.00  0.00    -0.206 F 
HETATM   23  C   UNL     1      43.800 -17.252   5.146  1.00  0.00     0.043 A 
HETATM   24  C   UNL     1      43.192 -16.091   4.668  1.00  0.00     0.012 A 
ENDBRANCH  17  18
ENDBRANCH   8  17
TORSDOF 3
ENDMDL
MODEL 7
REMARK VINA RESULT:      -6.8      4.037      6.672
REMARK  3 active torsions:
REMARK  status: ('A' for Active; 'I' for Inactive)
REMARK    1  A    between atoms: C_2  and  N_3 
REMARK    2  A    between atoms: N_10  and  C_11 
REMARK    3  A    between atoms: C_11  and  C_12 
ROOT
HETATM    1  N   UNL     1      39.487 -13.284   1.092  1.00  0.00    -0.063 N 
HETATM    2  H   UNL     1      38.479 -13.484   1.042  1.00  0.00     0.280 HD
HETATM    3  C   UNL     1      39.763 -13.098   2.590  1.00  0.00     0.277 C 
HETATM    4  C   UNL     1      41.162 -12.533   2.991  1.00  0.00     0.132 C 
HETATM    5  O   UNL     1      42.217 -13.292   2.365  1.00  0.00    -0.373 OA
HETATM    6  C   UNL     1      42.610 -14.450   3.112  1.00  0.00     0.199 C 
HETATM    7  C   UNL     1      43.177 -14.099   4.497  1.00  0.00     0.299 C 
HETATM    8  N   UNL     1      42.629 -12.868   5.098  1.00  0.00     0.097 N 
HETATM    9  C   UNL     1      41.282 -12.604   4.561  1.00  0.00     0.314 C 
HETATM   10  C   UNL     1      41.252 -11.041   2.569  1.00  0.00     0.209 C 
HETATM   11  O   UNL     1      41.557 -10.713   1.222  1.00  0.00    -0.386 OA
HETATM   12  C   UNL     1      41.083 -11.538   0.174  1.00  0.00     0.195 C 
HETATM   13  C   UNL     1      39.630 -11.976   0.320  1.00  0.00     0.261 C 
ENDROOT
BRANCH   1  14
HETATM   14  C   UNL     1      40.138 -14.526   0.441  1.00  0.00     0.180 C 
HETATM   15  C   UNL     1      39.583 -14.760  -0.968  1.00  0.00     0.039 C 
HETATM   16  C   UNL     1      39.842 -15.768   1.287  1.00  0.00     0.039 C 
ENDBRANCH   1  14
BRANCH   8  17
HETATM   17  C   UNL     1      43.552 -11.730   4.930  1.00  0.00     0.311 C 
BRANCH  17  18
HETATM   18  C   UNL     1      44.142 -11.231   6.235  1.00  0.00    -0.030 A 
HETATM   19  C   UNL     1      45.537 -11.204   6.412  1.00  0.00     0.012 A 
HETATM   20  C   UNL     1      46.089 -10.755   7.612  1.00  0.00     0.043 A 
HETATM   21  C   UNL     1      45.251 -10.325   8.632  1.00  0.00     0.116 A 
HETATM   22  F   UNL     1      45.782  -9.901   9.787  1.00  0.00    -0.206 F 
HETATM   23  C   UNL     1      43.870 -10.335   8.476  1.00  0.00     0.043 A 
HETATM   24  C   UNL     1      43.315 -10.784   7.277  1.00  0.00     0.012 A 
ENDBRANCH  17  18
ENDBRANCH   8  17
TORSDOF 3
ENDMDL
MODEL 8
REMARK VINA RESULT:      -6.7     14.824     16.700
REMARK  3 active torsions:
REMARK  status: ('A' for Active; 'I' for Inactive)
REMARK    1  A    between atoms: C_2  and  N_3 
REMARK    2  A    between atoms: N_10  and  C_11 
REMARK    3  A    between atoms: C_11  and  C_12 
ROOT
HETATM    1  N   UNL     1      48.894 -30.041   4.143  1.00  0.00    -0.063 N 
HETATM    2  H   UNL     1      49.433 -29.564   4.878  1.00  0.00     0.280 HD
HETATM    3  C   UNL     1      48.370 -28.903   3.257  1.00  0.00     0.277 C 
HETATM    4  C   UNL     1      47.300 -29.274   2.183  1.00  0.00     0.132 C 
HETATM    5  O   UNL     1      47.746 -30.386   1.380  1.00  0.00    -0.373 OA
HETATM    6  C   UNL     1      48.552 -29.997   0.260  1.00  0.00     0.199 C 
HETATM    7  C   UNL     1      47.796 -29.102  -0.734  1.00  0.00     0.299 C 
HETATM    8  N   UNL     1      46.743 -28.260  -0.133  1.00  0.00     0.097 N 
HETATM    9  C   UNL     1      47.054 -28.002   1.284  1.00  0.00     0.314 C 
HETATM   10  C   UNL     1      45.963 -29.626   2.892  1.00  0.00     0.209 C 
HETATM   11  O   UNL     1      45.788 -30.921   3.446  1.00  0.00    -0.386 OA
HETATM   12  C   UNL     1      46.892 -31.596   4.020  1.00  0.00     0.195 C 
HETATM   13  C   UNL     1      47.770 -30.726   4.914  1.00  0.00     0.261 C 
ENDROOT
BRANCH   1  14
HETATM   14  C   UNL     1      49.929 -30.981   3.484  1.00  0.00     0.180 C 
HETATM   15  C   UNL     1      50.555 -31.921   4.519  1.00  0.00     0.039 C 
HETATM   16  C   UNL     1      51.050 -30.151   2.850  1.00  0.00     0.039 C 
ENDBRANCH   1  14
BRANCH   8  17
HETATM   17  C   UNL     1      45.404 -28.844  -0.336  1.00  0.00     0.311 C 
BRANCH  17  18
HETATM   18  C   UNL     1      45.068 -29.100  -1.792  1.00  0.00    -0.030 A 
HETATM   19  C   UNL     1      44.544 -30.344  -2.185  1.00  0.00     0.012 A 
HETATM   20  C   UNL     1      44.240 -30.591  -3.524  1.00  0.00     0.043 A 
HETATM   21  C   UNL     1      44.450 -29.595  -4.469  1.00  0.00     0.116 A 
HETATM   22  F   UNL     1      44.164 -29.837  -5.756  1.00  0.00    -0.206 F 
HETATM   23  C   UNL     1      44.958 -28.356  -4.102  1.00  0.00     0.043 A 
HETATM   24  C   UNL     1      45.264 -28.105  -2.764  1.00  0.00     0.012 A 
ENDBRANCH  17  18
ENDBRANCH   8  17
TORSDOF 3
ENDMDL
MODEL 9
REMARK VINA RESULT:      -6.5      3.859      7.001
REMARK  3 active torsions:
REMARK  status: ('A' for Active; 'I' for Inactive)
REMARK    1  A    between atoms: C_2  and  N_3 
REMARK    2  A    between atoms: N_10  and  C_11 
REMARK    3  A    between atoms: C_11  and  C_12 
ROOT
HETATM    1  N   UNL     1      41.892 -14.549   1.172  1.00  0.00    -0.063 N 
HETATM    2  H   UNL     1      42.385 -14.858   0.323  1.00  0.00     0.280 HD
HETATM    3  C   UNL     1      42.883 -13.599   1.860  1.00  0.00     0.277 C 
HETATM    4  C   UNL     1      42.539 -13.146   3.314  1.00  0.00     0.132 C 
HETATM    5  O   UNL     1      41.196 -12.624   3.382  1.00  0.00    -0.373 OA
HETATM    6  C   UNL     1      41.106 -11.231   3.060  1.00  0.00     0.199 C 
HETATM    7  C   UNL     1      41.898 -10.344   4.034  1.00  0.00     0.299 C 
HETATM    8  N   UNL     1      43.085 -10.985   4.631  1.00  0.00     0.097 N 
HETATM    9  C   UNL     1      43.585 -12.046   3.738  1.00  0.00     0.314 C 
HETATM   10  C   UNL     1      42.695 -14.354   4.278  1.00  0.00     0.209 C 
HETATM   11  O   UNL     1      41.647 -15.307   4.377  1.00  0.00    -0.386 OA
HETATM   12  C   UNL     1      40.881 -15.632   3.233  1.00  0.00     0.195 C 
HETATM   13  C   UNL     1      41.699 -15.839   1.961  1.00  0.00     0.261 C 
ENDROOT
BRANCH   1  14
HETATM   14  C   UNL     1      40.604 -13.892   0.627  1.00  0.00     0.180 C 
HETATM   15  C   UNL     1      39.805 -14.879  -0.230  1.00  0.00     0.039 C 
HETATM   16  C   UNL     1      40.968 -12.686  -0.244  1.00  0.00     0.039 C 
ENDBRANCH   1  14
BRANCH   8  17
HETATM   17  C   UNL     1      42.809 -11.462   5.999  1.00  0.00     0.311 C 
BRANCH  17  18
HETATM   18  C   UNL     1      43.695 -10.827   7.053  1.00  0.00    -0.030 A 
HETATM   19  C   UNL     1      45.031 -11.245   7.194  1.00  0.00     0.012 A 
HETATM   20  C   UNL     1      45.851 -10.673   8.167  1.00  0.00     0.043 A 
HETATM   21  C   UNL     1      45.343  -9.679   8.993  1.00  0.00     0.116 A 
HETATM   22  F   UNL     1      46.130  -9.135   9.931  1.00  0.00    -0.206 F 
HETATM   23  C   UNL     1      44.030  -9.245   8.865  1.00  0.00     0.043 A 
HETATM   24  C   UNL     1      43.206  -9.815   7.894  1.00  0.00     0.012 A 
ENDBRANCH  17  18
ENDBRANCH   8  17
TORSDOF 3
ENDMDL
MODEL 10
REMARK VINA RESULT:      -6.5      4.096      6.081
REMARK  3 active torsions:
REMARK  status: ('A' for Active; 'I' for Inactive)
REMARK    1  A    between atoms: C_2  and  N_3 
REMARK    2  A    between atoms: N_10  and  C_11 
REMARK    3  A    between atoms: C_11  and  C_12 
ROOT
HETATM    1  N   UNL     1      42.025 -12.754   6.385  1.00  0.00    -0.063 N 
HETATM    2  H   UNL     1      41.590 -12.527   7.290  1.00  0.00     0.280 HD
HETATM    3  C   UNL     1      40.922 -12.474   5.354  1.00  0.00     0.277 C 
HETATM    4  C   UNL     1      41.177 -12.957   3.892  1.00  0.00     0.132 C 
HETATM    5  O   UNL     1      42.456 -12.490   3.415  1.00  0.00    -0.373 OA
HETATM    6  C   UNL     1      42.409 -11.179   2.840  1.00  0.00     0.199 C 
HETATM    7  C   UNL     1      41.502 -11.105   1.602  1.00  0.00     0.299 C 
HETATM    8  N   UNL     1      40.373 -12.055   1.602  1.00  0.00     0.097 N 
HETATM    9  C   UNL     1      40.011 -12.402   2.988  1.00  0.00     0.314 C 
HETATM   10  C   UNL     1      41.122 -14.509   3.848  1.00  0.00     0.209 C 
HETATM   11  O   UNL     1      42.261 -15.259   4.244  1.00  0.00    -0.386 OA
HETATM   12  C   UNL     1      43.087 -14.782   5.290  1.00  0.00     0.195 C 
HETATM   13  C   UNL     1      42.331 -14.244   6.500  1.00  0.00     0.261 C 
ENDROOT
BRANCH   1  14
HETATM   14  C   UNL     1      43.252 -11.816   6.324  1.00  0.00     0.180 C 
HETATM   15  C   UNL     1      44.200 -12.077   7.499  1.00  0.00     0.039 C 
HETATM   16  C   UNL     1      42.791 -10.357   6.394  1.00  0.00     0.039 C 
ENDBRANCH   1  14
BRANCH   8  17
HETATM   17  C   UNL     1      40.660 -13.234   0.765  1.00  0.00     0.311 C 
BRANCH  17  18
HETATM   18  C   UNL     1      39.703 -13.399  -0.400  1.00  0.00    -0.030 A 
HETATM   19  C   UNL     1      38.771 -12.388  -0.692  1.00  0.00     0.012 A 
HETATM   20  C   UNL     1      37.880 -12.534  -1.757  1.00  0.00     0.043 A 
HETATM   21  C   UNL     1      37.926 -13.684  -2.534  1.00  0.00     0.116 A 
HETATM   22  F   UNL     1      37.066 -13.826  -3.552  1.00  0.00    -0.206 F 
HETATM   23  C   UNL     1      38.845 -14.691  -2.269  1.00  0.00     0.043 A 
HETATM   24  C   UNL     1      39.736 -14.549  -1.204  1.00  0.00     0.012 A 
ENDBRANCH  17  18
ENDBRANCH   8  17
TORSDOF 3
ENDMDL
