MODEL 1
REMARK VINA RESULT:      -8.1      0.000      0.000
REMARK  8 active torsions:
REMARK  status: ('A' for Active; 'I' for Inactive)
REMARK    1  A    between atoms: C_6  and  C_7 
REMARK    2  A    between atoms: C_12  and  C_13 
REMARK    3  A    between atoms: C_13  and  N_14 
REMARK    4  A    between atoms: N_14  and  C_16 
REMARK    5  A    between atoms: N_14  and  C_23 
REMARK    6  A    between atoms: C_16  and  C_17 
REMARK    7  A    between atoms: C_23  and  C_24 
REMARK    8  A    between atoms: C_24  and  O_25 
ROOT
HETATM    1  C   UNL     1      43.283 -16.251   6.182  1.00  0.00     0.069 A 
HETATM    2  N   UNL     1      43.252 -16.590   7.513  1.00  0.00    -0.277 N 
HETATM    3  H   UNL     1      43.304 -17.518   7.925  1.00  0.00     0.189 HD
HETATM    4  N   UNL     1      43.158 -15.532   8.332  1.00  0.00    -0.186 NA
HETATM    5  C   UNL     1      43.181 -14.486   7.512  1.00  0.00     0.149 A 
HETATM    6  C   UNL     1      43.217 -14.864   6.150  1.00  0.00     0.016 A 
ENDROOT
BRANCH   6   7
HETATM    7  C   UNL     1      43.207 -13.951   4.981  1.00  0.00     0.277 C 
BRANCH   7   8
HETATM    8  N   UNL     1      41.885 -13.274   4.740  1.00  0.00    -0.061 N 
HETATM    9  H   UNL     1      42.017 -12.694   3.888  1.00  0.00     0.280 HD
BRANCH   8  10
HETATM   10  C   UNL     1      40.744 -14.196   4.389  1.00  0.00     0.273 C 
BRANCH  10  11
HETATM   11  C   UNL     1      40.531 -14.448   2.918  1.00  0.00    -0.033 A 
HETATM   12  C   UNL     1      40.838 -13.476   1.953  1.00  0.00     0.009 A 
HETATM   13  C   UNL     1      40.611 -13.723   0.598  1.00  0.00     0.001 A 
HETATM   14  C   UNL     1      40.086 -14.946   0.188  1.00  0.00     0.000 A 
HETATM   15  C   UNL     1      39.797 -15.928   1.131  1.00  0.00     0.001 A 
HETATM   16  C   UNL     1      40.023 -15.684   2.486  1.00  0.00     0.009 A 
ENDBRANCH  10  11
ENDBRANCH   8  10
BRANCH   8  17
HETATM   17  C   UNL     1      41.550 -12.227   5.786  1.00  0.00     0.261 C 
BRANCH  17  18
HETATM   18  C   UNL     1      40.037 -11.981   5.742  1.00  0.00     0.192 C 
BRANCH  18  19
HETATM   19  O   UNL     1      39.551 -12.180   7.073  1.00  0.00    -0.399 OA
HETATM   20  H   UNL     1      39.414 -11.298   7.475  1.00  0.00     0.209 HD
ENDBRANCH  18  19
ENDBRANCH  17  18
ENDBRANCH   8  17
ENDBRANCH   7   8
ENDBRANCH   6   7
BRANCH   1  21
HETATM   21  C   UNL     1      43.411 -17.250   5.132  1.00  0.00    -0.007 A 
HETATM   22  C   UNL     1      43.744 -18.573   5.446  1.00  0.00     0.021 A 
HETATM   23  C   UNL     1      43.880 -19.546   4.442  1.00  0.00    -0.055 A 
HETATM   24  C   UNL     1      43.691 -19.180   3.095  1.00  0.00    -0.056 A 
HETATM   25  C   UNL     1      44.270 -20.949   4.827  1.00  0.00     0.049 C 
HETATM   26  C   UNL     1      43.822 -20.182   1.978  1.00  0.00     0.049 C 
HETATM   27  C   UNL     1      43.352 -17.854   2.786  1.00  0.00     0.008 A 
HETATM   28  C   UNL     1      43.218 -16.897   3.794  1.00  0.00     0.014 A 
ENDBRANCH   1  21
TORSDOF 8
ENDMDL
MODEL 2
REMARK VINA RESULT:      -8.1      2.025      4.309
REMARK  8 active torsions:
REMARK  status: ('A' for Active; 'I' for Inactive)
REMARK    1  A    between atoms: C_6  and  C_7 
REMARK    2  A    between atoms: C_12  and  C_13 
REMARK    3  A    between atoms: C_13  and  N_14 
REMARK    4  A    between atoms: N_14  and  C_16 
REMARK    5  A    between atoms: N_14  and  C_23 
REMARK    6  A    between atoms: C_16  and  C_17 
REMARK    7  A    between atoms: C_23  and  C_24 
REMARK    8  A    between atoms: C_24  and  O_25 
ROOT
HETATM    1  C   UNL     1      43.236 -16.345   6.183  1.00  0.00     0.069 A 
HETATM    2  N   UNL     1      43.338 -16.629   7.524  1.00  0.00    -0.277 N 
HETATM    3  H   UNL     1      43.521 -17.529   7.961  1.00  0.00     0.189 HD
HETATM    4  N   UNL     1      43.188 -15.554   8.311  1.00  0.00    -0.186 NA
HETATM    5  C   UNL     1      43.037 -14.546   7.457  1.00  0.00     0.149 A 
HETATM    6  C   UNL     1      43.017 -14.975   6.110  1.00  0.00     0.016 A 
ENDROOT
BRANCH   6   7
HETATM    7  C   UNL     1      42.824 -14.118   4.915  1.00  0.00     0.277 C 
BRANCH   7   8
HETATM    8  N   UNL     1      42.270 -12.752   5.220  1.00  0.00    -0.061 N 
HETATM    9  H   UNL     1      42.087 -12.745   6.242  1.00  0.00     0.280 HD
BRANCH   8  10
HETATM   10  C   UNL     1      43.227 -11.607   5.005  1.00  0.00     0.273 C 
BRANCH  10  11
HETATM   11  C   UNL     1      44.040 -11.196   6.205  1.00  0.00    -0.033 A 
HETATM   12  C   UNL     1      45.443 -11.252   6.198  1.00  0.00     0.009 A 
HETATM   13  C   UNL     1      46.175 -10.888   7.329  1.00  0.00     0.001 A 
HETATM   14  C   UNL     1      45.519 -10.452   8.477  1.00  0.00     0.000 A 
HETATM   15  C   UNL     1      44.130 -10.371   8.493  1.00  0.00     0.001 A 
HETATM   16  C   UNL     1      43.395 -10.734   7.364  1.00  0.00     0.009 A 
ENDBRANCH  10  11
ENDBRANCH   8  10
BRANCH   8  17
HETATM   17  C   UNL     1      40.881 -12.529   4.649  1.00  0.00     0.261 C 
BRANCH  17  18
HETATM   18  C   UNL     1      39.897 -12.435   5.822  1.00  0.00     0.192 C 
BRANCH  18  19
HETATM   19  O   UNL     1      39.463 -13.770   6.099  1.00  0.00    -0.399 OA
HETATM   20  H   UNL     1      38.642 -13.712   6.628  1.00  0.00     0.209 HD
ENDBRANCH  18  19
ENDBRANCH  17  18
ENDBRANCH   8  17
ENDBRANCH   7   8
ENDBRANCH   6   7
BRANCH   1  21
HETATM   21  C   UNL     1      43.397 -17.367   5.161  1.00  0.00    -0.007 A 
HETATM   22  C   UNL     1      43.781 -18.667   5.510  1.00  0.00     0.021 A 
HETATM   23  C   UNL     1      43.948 -19.663   4.533  1.00  0.00    -0.055 A 
HETATM   24  C   UNL     1      43.740 -19.342   3.177  1.00  0.00    -0.056 A 
HETATM   25  C   UNL     1      44.393 -21.038   4.955  1.00  0.00     0.049 C 
HETATM   26  C   UNL     1      43.904 -20.369   2.088  1.00  0.00     0.049 C 
HETATM   27  C   UNL     1      43.350 -18.039   2.833  1.00  0.00     0.008 A 
HETATM   28  C   UNL     1      43.185 -17.060   3.815  1.00  0.00     0.014 A 
ENDBRANCH   1  21
TORSDOF 8
ENDMDL
MODEL 3
REMARK VINA RESULT:      -8.1      3.937      6.566
REMARK  8 active torsions:
REMARK  status: ('A' for Active; 'I' for Inactive)
REMARK    1  A    between atoms: C_6  and  C_7 
REMARK    2  A    between atoms: C_12  and  C_13 
REMARK    3  A    between atoms: C_13  and  N_14 
REMARK    4  A    between atoms: N_14  and  C_16 
REMARK    5  A    between atoms: N_14  and  C_23 
REMARK    6  A    between atoms: C_16  and  C_17 
REMARK    7  A    between atoms: C_23  and  C_24 
REMARK    8  A    between atoms: C_24  and  O_25 
ROOT
HETATM    1  C   UNL     1      39.767 -12.013   2.204  1.00  0.00     0.069 A 
HETATM    2  N   UNL     1      38.576 -11.403   2.518  1.00  0.00    -0.277 N 
HETATM    3  H   UNL     1      38.184 -11.234   3.440  1.00  0.00     0.189 HD
HETATM    4  N   UNL     1      37.893 -10.981   1.444  1.00  0.00    -0.186 NA
HETATM    5  C   UNL     1      38.685 -11.279   0.419  1.00  0.00     0.149 A 
HETATM    6  C   UNL     1      39.856 -11.963   0.818  1.00  0.00     0.016 A 
ENDROOT
BRANCH   6   7
HETATM    7  C   UNL     1      40.925 -12.476  -0.073  1.00  0.00     0.277 C 
BRANCH   7   8
HETATM    8  N   UNL     1      40.657 -13.849  -0.628  1.00  0.00    -0.061 N 
HETATM    9  H   UNL     1      41.584 -14.226  -0.904  1.00  0.00     0.280 HD
BRANCH   8  10
HETATM   10  C   UNL     1      40.128 -14.853   0.366  1.00  0.00     0.273 C 
BRANCH  10  11
HETATM   11  C   UNL     1      41.143 -15.435   1.316  1.00  0.00    -0.033 A 
HETATM   12  C   UNL     1      40.758 -16.217   2.415  1.00  0.00     0.009 A 
HETATM   13  C   UNL     1      41.715 -16.728   3.295  1.00  0.00     0.001 A 
HETATM   14  C   UNL     1      43.067 -16.473   3.083  1.00  0.00     0.000 A 
HETATM   15  C   UNL     1      43.466 -15.716   1.985  1.00  0.00     0.001 A 
HETATM   16  C   UNL     1      42.512 -15.205   1.104  1.00  0.00     0.009 A 
ENDBRANCH  10  11
ENDBRANCH   8  10
BRANCH   8  17
HETATM   17  C   UNL     1      39.918 -13.825  -1.954  1.00  0.00     0.261 C 
BRANCH  17  18
HETATM   18  C   UNL     1      40.623 -12.818  -2.870  1.00  0.00     0.192 C 
BRANCH  18  19
HETATM   19  O   UNL     1      41.705 -13.519  -3.491  1.00  0.00    -0.399 OA
HETATM   20  H   UNL     1      42.226 -12.867  -4.004  1.00  0.00     0.209 HD
ENDBRANCH  18  19
ENDBRANCH  17  18
ENDBRANCH   8  17
ENDBRANCH   7   8
ENDBRANCH   6   7
BRANCH   1  21
HETATM   21  C   UNL     1      40.672 -12.517   3.225  1.00  0.00    -0.007 A 
HETATM   22  C   UNL     1      40.187 -13.302   4.279  1.00  0.00     0.021 A 
HETATM   23  C   UNL     1      41.047 -13.788   5.278  1.00  0.00    -0.055 A 
HETATM   24  C   UNL     1      42.418 -13.468   5.225  1.00  0.00    -0.056 A 
HETATM   25  C   UNL     1      40.474 -14.602   6.408  1.00  0.00     0.049 C 
HETATM   26  C   UNL     1      43.386 -13.963   6.267  1.00  0.00     0.049 C 
HETATM   27  C   UNL     1      42.899 -12.687   4.164  1.00  0.00     0.008 A 
HETATM   28  C   UNL     1      42.033 -12.211   3.177  1.00  0.00     0.014 A 
ENDBRANCH   1  21
TORSDOF 8
ENDMDL
MODEL 4
REMARK VINA RESULT:      -8.1      4.096      6.852
REMARK  8 active torsions:
REMARK  status: ('A' for Active; 'I' for Inactive)
REMARK    1  A    between atoms: C_6  and  C_7 
REMARK    2  A    between atoms: C_12  and  C_13 
REMARK    3  A    between atoms: C_13  and  N_14 
REMARK    4  A    between atoms: N_14  and  C_16 
REMARK    5  A    between atoms: N_14  and  C_23 
REMARK    6  A    between atoms: C_16  and  C_17 
REMARK    7  A    between atoms: C_23  and  C_24 
REMARK    8  A    between atoms: C_24  and  O_25 
ROOT
HETATM    1  C   UNL     1      41.129 -11.236   1.384  1.00  0.00     0.069 A 
HETATM    2  N   UNL     1      41.976 -10.160   1.264  1.00  0.00    -0.277 N 
HETATM    3  H   UNL     1      42.556  -9.737   1.984  1.00  0.00     0.189 HD
HETATM    4  N   UNL     1      42.022  -9.652   0.024  1.00  0.00    -0.186 NA
HETATM    5  C   UNL     1      41.227 -10.450  -0.682  1.00  0.00     0.149 A 
HETATM    6  C   UNL     1      40.604 -11.438   0.114  1.00  0.00     0.016 A 
ENDROOT
BRANCH   6   7
HETATM    7  C   UNL     1      39.629 -12.457  -0.347  1.00  0.00     0.277 C 
BRANCH   7   8
HETATM    8  N   UNL     1      40.233 -13.810  -0.613  1.00  0.00    -0.061 N 
HETATM    9  H   UNL     1      41.257 -13.691  -0.487  1.00  0.00     0.280 HD
BRANCH   8  10
HETATM   10  C   UNL     1      39.860 -14.886   0.376  1.00  0.00     0.273 C 
BRANCH  10  11
HETATM   11  C   UNL     1      40.962 -15.345   1.295  1.00  0.00    -0.033 A 
HETATM   12  C   UNL     1      40.690 -16.072   2.465  1.00  0.00     0.009 A 
HETATM   13  C   UNL     1      41.726 -16.468   3.313  1.00  0.00     0.001 A 
HETATM   14  C   UNL     1      43.046 -16.153   3.000  1.00  0.00     0.000 A 
HETATM   15  C   UNL     1      43.333 -15.452   1.833  1.00  0.00     0.001 A 
HETATM   16  C   UNL     1      42.300 -15.055   0.983  1.00  0.00     0.009 A 
ENDBRANCH  10  11
ENDBRANCH   8  10
BRANCH   8  17
HETATM   17  C   UNL     1      40.140 -14.231  -2.068  1.00  0.00     0.261 C 
BRANCH  17  18
HETATM   18  C   UNL     1      38.656 -14.393  -2.420  1.00  0.00     0.192 C 
BRANCH  18  19
HETATM   19  O   UNL     1      38.452 -15.781  -2.700  1.00  0.00    -0.399 OA
HETATM   20  H   UNL     1      38.139 -16.208  -1.877  1.00  0.00     0.209 HD
ENDBRANCH  18  19
ENDBRANCH  17  18
ENDBRANCH   8  17
ENDBRANCH   7   8
ENDBRANCH   6   7
BRANCH   1  21
HETATM   21  C   UNL     1      40.957 -11.950   2.640  1.00  0.00    -0.007 A 
HETATM   22  C   UNL     1      42.069 -12.301   3.415  1.00  0.00     0.021 A 
HETATM   23  C   UNL     1      41.919 -12.998   4.626  1.00  0.00    -0.055 A 
HETATM   24  C   UNL     1      40.628 -13.361   5.059  1.00  0.00    -0.056 A 
HETATM   25  C   UNL     1      43.147 -13.383   5.409  1.00  0.00     0.049 C 
HETATM   26  C   UNL     1      40.408 -14.107   6.349  1.00  0.00     0.049 C 
HETATM   27  C   UNL     1      39.518 -13.001   4.281  1.00  0.00     0.008 A 
HETATM   28  C   UNL     1      39.681 -12.307   3.081  1.00  0.00     0.014 A 
ENDBRANCH   1  21
TORSDOF 8
ENDMDL
MODEL 5
REMARK VINA RESULT:      -8.0      2.163      3.237
REMARK  8 active torsions:
REMARK  status: ('A' for Active; 'I' for Inactive)
REMARK    1  A    between atoms: C_6  and  C_7 
REMARK    2  A    between atoms: C_12  and  C_13 
REMARK    3  A    between atoms: C_13  and  N_14 
REMARK    4  A    between atoms: N_14  and  C_16 
REMARK    5  A    between atoms: N_14  and  C_23 
REMARK    6  A    between atoms: C_16  and  C_17 
REMARK    7  A    between atoms: C_23  and  C_24 
REMARK    8  A    between atoms: C_24  and  O_25 
ROOT
HETATM    1  C   UNL     1      43.191 -13.532   5.946  1.00  0.00     0.069 A 
HETATM    2  N   UNL     1      44.304 -13.252   6.702  1.00  0.00    -0.277 N 
HETATM    3  H   UNL     1      45.171 -13.780   6.760  1.00  0.00     0.189 HD
HETATM    4  N   UNL     1      44.193 -12.125   7.420  1.00  0.00    -0.186 NA
HETATM    5  C   UNL     1      43.002 -11.641   7.079  1.00  0.00     0.149 A 
HETATM    6  C   UNL     1      42.304 -12.491   6.192  1.00  0.00     0.016 A 
ENDROOT
BRANCH   6   7
HETATM    7  C   UNL     1      40.940 -12.274   5.652  1.00  0.00     0.277 C 
BRANCH   7   8
HETATM    8  N   UNL     1      40.889 -12.108   4.157  1.00  0.00    -0.061 N 
HETATM    9  H   UNL     1      41.589 -12.774   3.775  1.00  0.00     0.280 HD
BRANCH   8  10
HETATM   10  C   UNL     1      39.592 -12.520   3.507  1.00  0.00     0.273 C 
BRANCH  10  11
HETATM   11  C   UNL     1      39.704 -13.539   2.403  1.00  0.00    -0.033 A 
HETATM   12  C   UNL     1      39.715 -14.916   2.671  1.00  0.00     0.009 A 
HETATM   13  C   UNL     1      39.842 -15.843   1.633  1.00  0.00     0.001 A 
HETATM   14  C   UNL     1      39.949 -15.406   0.315  1.00  0.00     0.000 A 
HETATM   15  C   UNL     1      39.918 -14.044   0.031  1.00  0.00     0.001 A 
HETATM   16  C   UNL     1      39.791 -13.116   1.066  1.00  0.00     0.009 A 
ENDBRANCH  10  11
ENDBRANCH   8  10
BRANCH   8  17
HETATM   17  C   UNL     1      41.435 -10.772   3.684  1.00  0.00     0.261 C 
BRANCH  17  18
HETATM   18  C   UNL     1      42.507 -11.048   2.623  1.00  0.00     0.192 C 
BRANCH  18  19
HETATM   19  O   UNL     1      42.229 -10.176   1.524  1.00  0.00    -0.399 OA
HETATM   20  H   UNL     1      41.406 -10.489   1.096  1.00  0.00     0.209 HD
ENDBRANCH  18  19
ENDBRANCH  17  18
ENDBRANCH   8  17
ENDBRANCH   7   8
ENDBRANCH   6   7
BRANCH   1  21
HETATM   21  C   UNL     1      43.120 -14.695   5.074  1.00  0.00    -0.007 A 
HETATM   22  C   UNL     1      43.330 -14.563   3.697  1.00  0.00     0.021 A 
HETATM   23  C   UNL     1      43.255 -15.676   2.841  1.00  0.00    -0.055 A 
HETATM   24  C   UNL     1      42.950 -16.942   3.379  1.00  0.00    -0.056 A 
HETATM   25  C   UNL     1      43.458 -15.479   1.362  1.00  0.00     0.049 C 
HETATM   26  C   UNL     1      42.859 -18.168   2.510  1.00  0.00     0.049 C 
HETATM   27  C   UNL     1      42.746 -17.068   4.761  1.00  0.00     0.008 A 
HETATM   28  C   UNL     1      42.824 -15.954   5.600  1.00  0.00     0.014 A 
ENDBRANCH   1  21
TORSDOF 8
ENDMDL
MODEL 6
REMARK VINA RESULT:      -8.0      2.491      4.530
REMARK  8 active torsions:
REMARK  status: ('A' for Active; 'I' for Inactive)
REMARK    1  A    between atoms: C_6  and  C_7 
REMARK    2  A    between atoms: C_12  and  C_13 
REMARK    3  A    between atoms: C_13  and  N_14 
REMARK    4  A    between atoms: N_14  and  C_16 
REMARK    5  A    between atoms: N_14  and  C_23 
REMARK    6  A    between atoms: C_16  and  C_17 
REMARK    7  A    between atoms: C_23  and  C_24 
REMARK    8  A    between atoms: C_24  and  O_25 
ROOT
HETATM    1  C   UNL     1      42.191 -15.457   2.009  1.00  0.00     0.069 A 
HETATM    2  N   UNL     1      41.238 -15.615   1.031  1.00  0.00    -0.277 N 
HETATM    3  H   UNL     1      40.858 -16.482   0.662  1.00  0.00     0.189 HD
HETATM    4  N   UNL     1      40.771 -14.455   0.548  1.00  0.00    -0.186 NA
HETATM    5  C   UNL     1      41.398 -13.529   1.267  1.00  0.00     0.149 A 
HETATM    6  C   UNL     1      42.332 -14.084   2.172  1.00  0.00     0.016 A 
ENDROOT
BRANCH   6   7
HETATM    7  C   UNL     1      43.227 -13.335   3.087  1.00  0.00     0.277 C 
BRANCH   7   8
HETATM    8  N   UNL     1      42.544 -12.227   3.844  1.00  0.00    -0.061 N 
HETATM    9  H   UNL     1      41.532 -12.324   3.632  1.00  0.00     0.280 HD
BRANCH   8  10
HETATM   10  C   UNL     1      42.622 -12.332   5.346  1.00  0.00     0.273 C 
BRANCH  10  11
HETATM   11  C   UNL     1      42.187 -13.649   5.937  1.00  0.00    -0.033 A 
HETATM   12  C   UNL     1      40.956 -14.235   5.602  1.00  0.00     0.009 A 
HETATM   13  C   UNL     1      40.564 -15.445   6.178  1.00  0.00     0.001 A 
HETATM   14  C   UNL     1      41.399 -16.090   7.086  1.00  0.00     0.000 A 
HETATM   15  C   UNL     1      42.632 -15.533   7.412  1.00  0.00     0.001 A 
HETATM   16  C   UNL     1      43.027 -14.324   6.838  1.00  0.00     0.009 A 
ENDBRANCH  10  11
ENDBRANCH   8  10
BRANCH   8  17
HETATM   17  C   UNL     1      42.852 -10.847   3.292  1.00  0.00     0.261 C 
BRANCH  17  18
HETATM   18  C   UNL     1      41.616 -10.357   2.528  1.00  0.00     0.192 C 
BRANCH  18  19
HETATM   19  O   UNL     1      42.073  -9.942   1.237  1.00  0.00    -0.399 OA
HETATM   20  H   UNL     1      42.038  -8.964   1.209  1.00  0.00     0.209 HD
ENDBRANCH  18  19
ENDBRANCH  17  18
ENDBRANCH   8  17
ENDBRANCH   7   8
ENDBRANCH   6   7
BRANCH   1  21
HETATM   21  C   UNL     1      42.805 -16.591   2.682  1.00  0.00    -0.007 A 
HETATM   22  C   UNL     1      42.826 -17.852   2.074  1.00  0.00     0.021 A 
HETATM   23  C   UNL     1      43.407 -18.958   2.716  1.00  0.00    -0.055 A 
HETATM   24  C   UNL     1      43.965 -18.798   3.999  1.00  0.00    -0.056 A 
HETATM   25  C   UNL     1      43.377 -20.301   2.035  1.00  0.00     0.049 C 
HETATM   26  C   UNL     1      44.603 -19.949   4.733  1.00  0.00     0.049 C 
HETATM   27  C   UNL     1      43.947 -17.531   4.601  1.00  0.00     0.008 A 
HETATM   28  C   UNL     1      43.367 -16.439   3.951  1.00  0.00     0.014 A 
ENDBRANCH   1  21
TORSDOF 8
ENDMDL
MODEL 7
REMARK VINA RESULT:      -7.9      1.751      5.901
REMARK  8 active torsions:
REMARK  status: ('A' for Active; 'I' for Inactive)
REMARK    1  A    between atoms: C_6  and  C_7 
REMARK    2  A    between atoms: C_12  and  C_13 
REMARK    3  A    between atoms: C_13  and  N_14 
REMARK    4  A    between atoms: N_14  and  C_16 
REMARK    5  A    between atoms: N_14  and  C_23 
REMARK    6  A    between atoms: C_16  and  C_17 
REMARK    7  A    between atoms: C_23  and  C_24 
REMARK    8  A    between atoms: C_24  and  O_25 
ROOT
HETATM    1  C   UNL     1      40.435 -13.925   4.260  1.00  0.00     0.069 A 
HETATM    2  N   UNL     1      39.421 -13.396   5.022  1.00  0.00    -0.277 N 
HETATM    3  H   UNL     1      38.505 -13.080   4.714  1.00  0.00     0.189 HD
HETATM    4  N   UNL     1      39.717 -13.323   6.328  1.00  0.00    -0.186 NA
HETATM    5  C   UNL     1      40.927 -13.865   6.417  1.00  0.00     0.149 A 
HETATM    6  C   UNL     1      41.454 -14.227   5.155  1.00  0.00     0.016 A 
ENDROOT
BRANCH   6   7
HETATM    7  C   UNL     1      42.790 -14.814   4.893  1.00  0.00     0.277 C 
BRANCH   7   8
HETATM    8  N   UNL     1      42.854 -16.306   5.078  1.00  0.00    -0.061 N 
HETATM    9  H   UNL     1      42.103 -16.697   4.476  1.00  0.00     0.280 HD
BRANCH   8  10
HETATM   10  C   UNL     1      44.114 -16.964   4.573  1.00  0.00     0.273 C 
BRANCH  10  11
HETATM   11  C   UNL     1      43.956 -18.362   4.035  1.00  0.00    -0.033 A 
HETATM   12  C   UNL     1      44.162 -19.490   4.845  1.00  0.00     0.009 A 
HETATM   13  C   UNL     1      44.032 -20.777   4.319  1.00  0.00     0.001 A 
HETATM   14  C   UNL     1      43.683 -20.954   2.982  1.00  0.00     0.000 A 
HETATM   15  C   UNL     1      43.454 -19.846   2.172  1.00  0.00     0.001 A 
HETATM   16  C   UNL     1      43.584 -18.558   2.695  1.00  0.00     0.009 A 
ENDBRANCH  10  11
ENDBRANCH   8  10
BRANCH   8  17
HETATM   17  C   UNL     1      42.418 -16.757   6.460  1.00  0.00     0.261 C 
BRANCH  17  18
HETATM   18  C   UNL     1      43.605 -16.577   7.413  1.00  0.00     0.192 C 
BRANCH  18  19
HETATM   19  O   UNL     1      43.090 -15.959   8.596  1.00  0.00    -0.399 OA
HETATM   20  H   UNL     1      43.832 -15.499   9.039  1.00  0.00     0.209 HD
ENDBRANCH  18  19
ENDBRANCH  17  18
ENDBRANCH   8  17
ENDBRANCH   7   8
ENDBRANCH   6   7
BRANCH   1  21
HETATM   21  C   UNL     1      40.304 -14.116   2.824  1.00  0.00    -0.007 A 
HETATM   22  C   UNL     1      40.442 -13.033   1.948  1.00  0.00     0.021 A 
HETATM   23  C   UNL     1      40.309 -13.200   0.559  1.00  0.00    -0.055 A 
HETATM   24  C   UNL     1      40.019 -14.479   0.042  1.00  0.00    -0.056 A 
HETATM   25  C   UNL     1      40.435 -11.999  -0.340  1.00  0.00     0.049 C 
HETATM   26  C   UNL     1      39.869 -14.716  -1.438  1.00  0.00     0.049 C 
HETATM   27  C   UNL     1      39.889 -15.561   0.924  1.00  0.00     0.008 A 
HETATM   28  C   UNL     1      40.024 -15.381   2.302  1.00  0.00     0.014 A 
ENDBRANCH   1  21
TORSDOF 8
ENDMDL
MODEL 8
REMARK VINA RESULT:      -7.9      2.696      5.397
REMARK  8 active torsions:
REMARK  status: ('A' for Active; 'I' for Inactive)
REMARK    1  A    between atoms: C_6  and  C_7 
REMARK    2  A    between atoms: C_12  and  C_13 
REMARK    3  A    between atoms: C_13  and  N_14 
REMARK    4  A    between atoms: N_14  and  C_16 
REMARK    5  A    between atoms: N_14  and  C_23 
REMARK    6  A    between atoms: C_16  and  C_17 
REMARK    7  A    between atoms: C_23  and  C_24 
REMARK    8  A    between atoms: C_24  and  O_25 
ROOT
HETATM    1  C   UNL     1      42.919 -15.398   2.906  1.00  0.00     0.069 A 
HETATM    2  N   UNL     1      43.034 -14.983   1.600  1.00  0.00    -0.277 N 
HETATM    3  H   UNL     1      43.374 -15.513   0.803  1.00  0.00     0.189 HD
HETATM    4  N   UNL     1      42.618 -13.724   1.401  1.00  0.00    -0.186 NA
HETATM    5  C   UNL     1      42.176 -13.337   2.594  1.00  0.00     0.149 A 
HETATM    6  C   UNL     1      42.371 -14.320   3.591  1.00  0.00     0.016 A 
ENDROOT
BRANCH   6   7
HETATM    7  C   UNL     1      42.034 -14.196   5.029  1.00  0.00     0.277 C 
BRANCH   7   8
HETATM    8  N   UNL     1      43.080 -13.487   5.848  1.00  0.00    -0.061 N 
HETATM    9  H   UNL     1      43.953 -13.530   5.287  1.00  0.00     0.280 HD
BRANCH   8  10
HETATM   10  C   UNL     1      42.844 -12.013   6.056  1.00  0.00     0.273 C 
BRANCH  10  11
HETATM   11  C   UNL     1      43.924 -11.273   6.804  1.00  0.00    -0.033 A 
HETATM   12  C   UNL     1      45.281 -11.438   6.490  1.00  0.00     0.009 A 
HETATM   13  C   UNL     1      46.266 -10.759   7.211  1.00  0.00     0.001 A 
HETATM   14  C   UNL     1      45.907  -9.899   8.246  1.00  0.00     0.000 A 
HETATM   15  C   UNL     1      44.564  -9.708   8.555  1.00  0.00     0.001 A 
HETATM   16  C   UNL     1      43.577 -10.386   7.836  1.00  0.00     0.009 A 
ENDBRANCH  10  11
ENDBRANCH   8  10
BRANCH   8  17
HETATM   17  C   UNL     1      43.474 -14.246   7.102  1.00  0.00     0.261 C 
BRANCH  17  18
HETATM   18  C   UNL     1      42.405 -15.314   7.364  1.00  0.00     0.192 C 
BRANCH  18  19
HETATM   19  O   UNL     1      43.025 -16.324   8.165  1.00  0.00    -0.399 OA
HETATM   20  H   UNL     1      42.645 -16.266   9.066  1.00  0.00     0.209 HD
ENDBRANCH  18  19
ENDBRANCH  17  18
ENDBRANCH   8  17
ENDBRANCH   7   8
ENDBRANCH   6   7
BRANCH   1  21
HETATM   21  C   UNL     1      43.289 -16.740   3.327  1.00  0.00    -0.007 A 
HETATM   22  C   UNL     1      43.174 -17.819   2.443  1.00  0.00     0.021 A 
HETATM   23  C   UNL     1      43.520 -19.122   2.838  1.00  0.00    -0.055 A 
HETATM   24  C   UNL     1      43.976 -19.347   4.152  1.00  0.00    -0.056 A 
HETATM   25  C   UNL     1      43.348 -20.256   1.861  1.00  0.00     0.049 C 
HETATM   26  C   UNL     1      44.362 -20.723   4.630  1.00  0.00     0.049 C 
HETATM   27  C   UNL     1      44.095 -18.261   5.032  1.00  0.00     0.008 A 
HETATM   28  C   UNL     1      43.750 -16.971   4.625  1.00  0.00     0.014 A 
ENDBRANCH   1  21
TORSDOF 8
ENDMDL
MODEL 9
REMARK VINA RESULT:      -7.8      3.118      5.291
REMARK  8 active torsions:
REMARK  status: ('A' for Active; 'I' for Inactive)
REMARK    1  A    between atoms: C_6  and  C_7 
REMARK    2  A    between atoms: C_12  and  C_13 
REMARK    3  A    between atoms: C_13  and  N_14 
REMARK    4  A    between atoms: N_14  and  C_16 
REMARK    5  A    between atoms: N_14  and  C_23 
REMARK    6  A    between atoms: C_16  and  C_17 
REMARK    7  A    between atoms: C_23  and  C_24 
REMARK    8  A    between atoms: C_24  and  O_25 
ROOT
HETATM    1  C   UNL     1      41.496 -15.656   5.110  1.00  0.00     0.069 A 
HETATM    2  N   UNL     1      40.293 -15.812   5.757  1.00  0.00    -0.277 N 
HETATM    3  H   UNL     1      39.693 -16.632   5.774  1.00  0.00     0.189 HD
HETATM    4  N   UNL     1      39.915 -14.728   6.450  1.00  0.00    -0.186 NA
HETATM    5  C   UNL     1      40.921 -13.874   6.289  1.00  0.00     0.149 A 
HETATM    6  C   UNL     1      41.925 -14.373   5.429  1.00  0.00     0.016 A 
ENDROOT
BRANCH   6   7
HETATM    7  C   UNL     1      43.156 -13.663   5.004  1.00  0.00     0.277 C 
BRANCH   7   8
HETATM    8  N   UNL     1      43.423 -12.389   5.760  1.00  0.00    -0.061 N 
HETATM    9  H   UNL     1      42.603 -12.254   6.383  1.00  0.00     0.280 HD
BRANCH   8  10
HETATM   10  C   UNL     1      44.601 -12.433   6.700  1.00  0.00     0.273 C 
BRANCH  10  11
HETATM   11  C   UNL     1      44.875 -11.167   7.470  1.00  0.00    -0.033 A 
HETATM   12  C   UNL     1      46.081 -10.464   7.325  1.00  0.00     0.009 A 
HETATM   13  C   UNL     1      46.322  -9.305   8.066  1.00  0.00     0.001 A 
HETATM   14  C   UNL     1      45.360  -8.828   8.952  1.00  0.00     0.000 A 
HETATM   15  C   UNL     1      44.151  -9.502   9.091  1.00  0.00     0.001 A 
HETATM   16  C   UNL     1      43.906 -10.661   8.352  1.00  0.00     0.009 A 
ENDBRANCH  10  11
ENDBRANCH   8  10
BRANCH   8  17
HETATM   17  C   UNL     1      43.361 -11.150   4.884  1.00  0.00     0.261 C 
BRANCH  17  18
HETATM   18  C   UNL     1      43.532 -11.592   3.426  1.00  0.00     0.192 C 
BRANCH  18  19
HETATM   19  O   UNL     1      42.784 -10.670   2.629  1.00  0.00    -0.399 OA
HETATM   20  H   UNL     1      41.843 -10.941   2.663  1.00  0.00     0.209 HD
ENDBRANCH  18  19
ENDBRANCH  17  18
ENDBRANCH   8  17
ENDBRANCH   7   8
ENDBRANCH   6   7
BRANCH   1  21
HETATM   21  C   UNL     1      42.097 -16.723   4.326  1.00  0.00    -0.007 A 
HETATM   22  C   UNL     1      42.953 -17.652   4.929  1.00  0.00     0.021 A 
HETATM   23  C   UNL     1      43.548 -18.683   4.182  1.00  0.00    -0.055 A 
HETATM   24  C   UNL     1      43.289 -18.773   2.800  1.00  0.00    -0.056 A 
HETATM   25  C   UNL     1      44.487 -19.640   4.870  1.00  0.00     0.049 C 
HETATM   26  C   UNL     1      43.898 -19.858   1.952  1.00  0.00     0.049 C 
HETATM   27  C   UNL     1      42.426 -17.843   2.203  1.00  0.00     0.008 A 
HETATM   28  C   UNL     1      41.840 -16.824   2.957  1.00  0.00     0.014 A 
ENDBRANCH   1  21
TORSDOF 8
ENDMDL
MODEL 10
REMARK VINA RESULT:      -7.8      3.567      5.873
REMARK  8 active torsions:
REMARK  status: ('A' for Active; 'I' for Inactive)
REMARK    1  A    between atoms: C_6  and  C_7 
REMARK    2  A    between atoms: C_12  and  C_13 
REMARK    3  A    between atoms: C_13  and  N_14 
REMARK    4  A    between atoms: N_14  and  C_16 
REMARK    5  A    between atoms: N_14  and  C_23 
REMARK    6  A    between atoms: C_16  and  C_17 
REMARK    7  A    between atoms: C_23  and  C_24 
REMARK    8  A    between atoms: C_24  and  O_25 
ROOT
HETATM    1  C   UNL     1      40.502 -14.407   0.284  1.00  0.00     0.069 A 
HETATM    2  N   UNL     1      39.476 -15.027  -0.389  1.00  0.00    -0.277 N 
HETATM    3  H   UNL     1      39.091 -15.954  -0.227  1.00  0.00     0.189 HD
HETATM    4  N   UNL     1      38.938 -14.270  -1.356  1.00  0.00    -0.186 NA
HETATM    5  C   UNL     1      39.596 -13.118  -1.271  1.00  0.00     0.149 A 
HETATM    6  C   UNL     1      40.617 -13.148  -0.292  1.00  0.00     0.016 A 
ENDROOT
BRANCH   6   7
HETATM    7  C   UNL     1      41.562 -12.052   0.029  1.00  0.00     0.277 C 
BRANCH   7   8
HETATM    8  N   UNL     1      41.258 -11.334   1.317  1.00  0.00    -0.061 N 
HETATM    9  H   UNL     1      40.360 -11.732   1.655  1.00  0.00     0.280 HD
BRANCH   8  10
HETATM   10  C   UNL     1      42.228 -11.594   2.442  1.00  0.00     0.273 C 
BRANCH  10  11
HETATM   11  C   UNL     1      41.629 -12.142   3.713  1.00  0.00    -0.033 A 
HETATM   12  C   UNL     1      42.428 -12.699   4.722  1.00  0.00     0.009 A 
HETATM   13  C   UNL     1      41.850 -13.220   5.881  1.00  0.00     0.001 A 
HETATM   14  C   UNL     1      40.468 -13.182   6.052  1.00  0.00     0.000 A 
HETATM   15  C   UNL     1      39.664 -12.613   5.069  1.00  0.00     0.001 A 
HETATM   16  C   UNL     1      40.239 -12.091   3.910  1.00  0.00     0.009 A 
ENDBRANCH  10  11
ENDBRANCH   8  10
BRANCH   8  17
HETATM   17  C   UNL     1      40.900  -9.873   1.118  1.00  0.00     0.261 C 
BRANCH  17  18
HETATM   18  C   UNL     1      41.359  -9.460  -0.286  1.00  0.00     0.192 C 
BRANCH  18  19
HETATM   19  O   UNL     1      42.507  -8.623  -0.111  1.00  0.00    -0.399 OA
HETATM   20  H   UNL     1      42.765  -8.666   0.832  1.00  0.00     0.209 HD
ENDBRANCH  18  19
ENDBRANCH  17  18
ENDBRANCH   8  17
ENDBRANCH   7   8
ENDBRANCH   6   7
BRANCH   1  21
HETATM   21  C   UNL     1      41.201 -15.046   1.388  1.00  0.00    -0.007 A 
HETATM   22  C   UNL     1      40.501 -15.460   2.528  1.00  0.00     0.021 A 
HETATM   23  C   UNL     1      41.164 -16.070   3.606  1.00  0.00    -0.055 A 
HETATM   24  C   UNL     1      42.559 -16.255   3.543  1.00  0.00    -0.056 A 
HETATM   25  C   UNL     1      40.373 -16.470   4.823  1.00  0.00     0.049 C 
HETATM   26  C   UNL     1      43.322 -16.905   4.668  1.00  0.00     0.049 C 
HETATM   27  C   UNL     1      43.254 -15.844   2.396  1.00  0.00     0.008 A 
HETATM   28  C   UNL     1      42.583 -15.240   1.332  1.00  0.00     0.014 A 
ENDBRANCH   1  21
TORSDOF 8
ENDMDL
