MODEL 1
REMARK VINA RESULT:     -10.1      0.000      0.000
REMARK  5 active torsions:
REMARK  status: ('A' for Active; 'I' for Inactive)
REMARK    1  A    between atoms: N_4  and  C_5 
REMARK    2  A    between atoms: C_15  and  N_16 
REMARK       I    between atoms: N_16  and  C_17 
REMARK    3  A    between atoms: C_17  and  C_18 
REMARK    4  A    between atoms: C_20  and  C_21 
REMARK    5  A    between atoms: C_26  and  C_27 
ROOT
HETATM    1  N   UNL     1      41.831 -17.038   1.195  1.00  0.00    -0.307 N 
HETATM    2  C   UNL     1      43.166 -17.027   1.570  1.00  0.00     0.257 C 
HETATM    3  O   UNL     1      43.976 -16.145   1.299  1.00  0.00    -0.267 OA
HETATM    4  H   UNL     1      41.180 -17.646   1.674  1.00  0.00     0.170 HD
ENDROOT
BRANCH   1   5
HETATM    5  C   UNL     1      41.299 -16.004   0.440  1.00  0.00     0.152 C 
HETATM    6  N   UNL     1      40.719 -14.828   0.912  1.00  0.00    -0.045 N 
HETATM    7  N   UNL     1      40.019 -14.194  -0.092  1.00  0.00    -0.156 NA
HETATM    8  C   UNL     1      40.419 -14.811  -1.209  1.00  0.00     0.055 C 
HETATM    9  C   UNL     1      39.947 -14.339  -2.534  1.00  0.00     0.072 C 
HETATM   10  C   UNL     1      41.252 -15.917  -0.933  1.00  0.00     0.079 C 
BRANCH   6  11
HETATM   11  C   UNL     1      40.914 -14.134   2.126  1.00  0.00     0.732 A 
HETATM   12  N   UNL     1      39.955 -13.737   2.912  1.00  0.00    -0.067 NA
HETATM   13  C   UNL     1      40.384 -13.127   4.057  1.00  0.00     0.065 A 
HETATM   14  C   UNL     1      41.653 -12.932   4.417  1.00  0.00     0.036 A 
HETATM   15  C   UNL     1      39.444 -12.624   5.100  1.00  0.00     0.061 C 
HETATM   16  C   UNL     1      41.806 -12.274   5.732  1.00  0.00     0.047 C 
HETATM   17  C   UNL     1      42.720 -13.404   3.538  1.00  0.00     0.268 A 
HETATM   18  C   UNL     1      40.369 -11.829   6.034  1.00  0.00     0.011 C 
HETATM   19  O   UNL     1      43.905 -13.287   3.819  1.00  0.00    -0.267 OA
HETATM   20  N   UNL     1      42.260 -13.999   2.399  1.00  0.00    -0.152 N 
HETATM   21  H   UNL     1      42.928 -14.391   1.744  1.00  0.00     0.188 HD
ENDBRANCH   6  11
ENDBRANCH   1   5
BRANCH   2  22
HETATM   22  C   UNL     1      43.618 -18.157   2.428  1.00  0.00     0.034 A 
HETATM   23  C   UNL     1      43.889 -17.888   3.777  1.00  0.00     0.033 A 
HETATM   24  C   UNL     1      44.284 -18.915   4.648  1.00  0.00     0.049 A 
HETATM   25  C   UNL     1      44.395 -20.223   4.148  1.00  0.00     0.032 A 
HETATM   26  C   UNL     1      44.118 -20.513   2.801  1.00  0.00     0.049 A 
HETATM   27  C   UNL     1      43.718 -19.469   1.948  1.00  0.00     0.033 A 
BRANCH  24  28
HETATM   28  C   UNL     1      44.569 -18.636   6.106  1.00  0.00     0.417 C 
HETATM   29  F   UNL     1      44.462 -19.732   6.906  1.00  0.00    -0.166 F 
HETATM   30  F   UNL     1      45.825 -18.148   6.299  1.00  0.00    -0.166 F 
HETATM   31  F   UNL     1      43.722 -17.707   6.626  1.00  0.00    -0.166 F 
ENDBRANCH  24  28
BRANCH  26  32
HETATM   32  C   UNL     1      44.199 -21.928   2.274  1.00  0.00     0.417 C 
HETATM   33  F   UNL     1      45.272 -22.146   1.469  1.00  0.00    -0.166 F 
HETATM   34  F   UNL     1      44.278 -22.845   3.274  1.00  0.00    -0.166 F 
HETATM   35  F   UNL     1      43.102 -22.267   1.540  1.00  0.00    -0.166 F 
ENDBRANCH  26  32
ENDBRANCH   2  22
TORSDOF 5
ENDMDL
MODEL 2
REMARK VINA RESULT:     -10.0      1.645      1.979
REMARK  5 active torsions:
REMARK  status: ('A' for Active; 'I' for Inactive)
REMARK    1  A    between atoms: N_4  and  C_5 
REMARK    2  A    between atoms: C_15  and  N_16 
REMARK       I    between atoms: N_16  and  C_17 
REMARK    3  A    between atoms: C_17  and  C_18 
REMARK    4  A    between atoms: C_20  and  C_21 
REMARK    5  A    between atoms: C_26  and  C_27 
ROOT
HETATM    1  N   UNL     1      42.058 -16.216   1.083  1.00  0.00    -0.307 N 
HETATM    2  C   UNL     1      41.621 -17.487   1.421  1.00  0.00     0.257 C 
HETATM    3  O   UNL     1      40.563 -17.996   1.066  1.00  0.00    -0.267 OA
HETATM    4  H   UNL     1      43.034 -15.976   1.185  1.00  0.00     0.170 HD
ENDROOT
BRANCH   1   5
HETATM    5  C   UNL     1      41.279 -15.387   0.289  1.00  0.00     0.152 C 
HETATM    6  N   UNL     1      40.234 -14.563   0.704  1.00  0.00    -0.045 N 
HETATM    7  N   UNL     1      39.489 -14.142  -0.376  1.00  0.00    -0.156 NA
HETATM    8  C   UNL     1      40.243 -14.455  -1.435  1.00  0.00     0.055 C 
HETATM    9  C   UNL     1      39.812 -14.068  -2.801  1.00  0.00     0.072 C 
HETATM   10  C   UNL     1      41.390 -15.192  -1.069  1.00  0.00     0.079 C 
BRANCH   6  11
HETATM   11  C   UNL     1      39.980 -13.966   1.959  1.00  0.00     0.732 A 
HETATM   12  N   UNL     1      40.311 -14.487   3.105  1.00  0.00    -0.067 NA
HETATM   13  C   UNL     1      40.007 -13.708   4.184  1.00  0.00     0.065 A 
HETATM   14  C   UNL     1      39.438 -12.503   4.149  1.00  0.00     0.036 A 
HETATM   15  C   UNL     1      40.328 -14.112   5.584  1.00  0.00     0.061 C 
HETATM   16  C   UNL     1      39.266 -11.884   5.482  1.00  0.00     0.047 C 
HETATM   17  C   UNL     1      39.094 -11.917   2.856  1.00  0.00     0.268 A 
HETATM   18  C   UNL     1      39.589 -13.055   6.419  1.00  0.00     0.011 C 
HETATM   19  O   UNL     1      38.598 -10.804   2.747  1.00  0.00    -0.267 OA
HETATM   20  N   UNL     1      39.400 -12.724   1.798  1.00  0.00    -0.152 N 
HETATM   21  H   UNL     1      39.230 -12.387   0.857  1.00  0.00     0.188 HD
ENDBRANCH   6  11
ENDBRANCH   1   5
BRANCH   2  22
HETATM   22  C   UNL     1      42.562 -18.313   2.228  1.00  0.00     0.034 A 
HETATM   23  C   UNL     1      42.993 -17.800   3.460  1.00  0.00     0.033 A 
HETATM   24  C   UNL     1      43.851 -18.542   4.285  1.00  0.00     0.049 A 
HETATM   25  C   UNL     1      44.267 -19.815   3.861  1.00  0.00     0.032 A 
HETATM   26  C   UNL     1      43.839 -20.349   2.634  1.00  0.00     0.049 A 
HETATM   27  C   UNL     1      42.974 -19.590   1.825  1.00  0.00     0.033 A 
BRANCH  24  28
HETATM   28  C   UNL     1      44.312 -18.002   5.619  1.00  0.00     0.417 C 
HETATM   29  F   UNL     1      45.628 -18.232   5.880  1.00  0.00    -0.166 F 
HETATM   30  F   UNL     1      44.136 -16.656   5.717  1.00  0.00    -0.166 F 
HETATM   31  F   UNL     1      43.624 -18.547   6.659  1.00  0.00    -0.166 F 
ENDBRANCH  24  28
BRANCH  26  32
HETATM   32  C   UNL     1      44.255 -21.735   2.196  1.00  0.00     0.417 C 
HETATM   33  F   UNL     1      43.465 -22.256   1.220  1.00  0.00    -0.166 F 
HETATM   34  F   UNL     1      45.526 -21.761   1.715  1.00  0.00    -0.166 F 
HETATM   35  F   UNL     1      44.225 -22.629   3.224  1.00  0.00    -0.166 F 
ENDBRANCH  26  32
ENDBRANCH   2  22
TORSDOF 5
ENDMDL
MODEL 3
REMARK VINA RESULT:      -9.9      1.279      3.446
REMARK  5 active torsions:
REMARK  status: ('A' for Active; 'I' for Inactive)
REMARK    1  A    between atoms: N_4  and  C_5 
REMARK    2  A    between atoms: C_15  and  N_16 
REMARK       I    between atoms: N_16  and  C_17 
REMARK    3  A    between atoms: C_17  and  C_18 
REMARK    4  A    between atoms: C_20  and  C_21 
REMARK    5  A    between atoms: C_26  and  C_27 
ROOT
HETATM    1  N   UNL     1      41.701 -16.956   1.051  1.00  0.00    -0.307 N 
HETATM    2  C   UNL     1      42.998 -16.869   1.535  1.00  0.00     0.257 C 
HETATM    3  O   UNL     1      43.787 -15.959   1.302  1.00  0.00    -0.267 OA
HETATM    4  H   UNL     1      41.040 -17.579   1.494  1.00  0.00     0.170 HD
ENDROOT
BRANCH   1   5
HETATM    5  C   UNL     1      41.189 -15.973   0.217  1.00  0.00     0.152 C 
HETATM    6  N   UNL     1      40.300 -14.956   0.561  1.00  0.00    -0.045 N 
HETATM    7  N   UNL     1      39.766 -14.374  -0.568  1.00  0.00    -0.156 NA
HETATM    8  C   UNL     1      40.540 -14.821  -1.563  1.00  0.00     0.055 C 
HETATM    9  C   UNL     1      40.332 -14.334  -2.949  1.00  0.00     0.072 C 
HETATM   10  C   UNL     1      41.470 -15.785  -1.117  1.00  0.00     0.079 C 
BRANCH   6  11
HETATM   11  C   UNL     1      40.053 -14.338   1.807  1.00  0.00     0.732 A 
HETATM   12  N   UNL     1      40.484 -14.784   2.952  1.00  0.00    -0.067 NA
HETATM   13  C   UNL     1      40.161 -13.995   4.019  1.00  0.00     0.065 A 
HETATM   14  C   UNL     1      39.483 -12.848   3.973  1.00  0.00     0.036 A 
HETATM   15  C   UNL     1      40.584 -14.316   5.413  1.00  0.00     0.061 C 
HETATM   16  C   UNL     1      39.318 -12.198   5.291  1.00  0.00     0.047 C 
HETATM   17  C   UNL     1      39.026 -12.345   2.680  1.00  0.00     0.268 A 
HETATM   18  C   UNL     1      39.792 -13.299   6.249  1.00  0.00     0.011 C 
HETATM   19  O   UNL     1      38.425 -11.286   2.560  1.00  0.00    -0.267 OA
HETATM   20  N   UNL     1      39.354 -13.161   1.636  1.00  0.00    -0.152 N 
HETATM   21  H   UNL     1      39.110 -12.876   0.693  1.00  0.00     0.188 HD
ENDBRANCH   6  11
ENDBRANCH   1   5
BRANCH   2  22
HETATM   22  C   UNL     1      43.425 -17.949   2.468  1.00  0.00     0.034 A 
HETATM   23  C   UNL     1      43.531 -19.251   1.959  1.00  0.00     0.033 A 
HETATM   24  C   UNL     1      43.963 -20.307   2.775  1.00  0.00     0.049 A 
HETATM   25  C   UNL     1      44.295 -20.038   4.114  1.00  0.00     0.032 A 
HETATM   26  C   UNL     1      44.202 -18.738   4.638  1.00  0.00     0.049 A 
HETATM   27  C   UNL     1      43.774 -17.693   3.800  1.00  0.00     0.033 A 
BRANCH  24  28
HETATM   28  C   UNL     1      44.090 -21.712   2.233  1.00  0.00     0.417 C 
HETATM   29  F   UNL     1      44.222 -22.664   3.197  1.00  0.00    -0.166 F 
HETATM   30  F   UNL     1      43.011 -22.075   1.488  1.00  0.00    -0.166 F 
HETATM   31  F   UNL     1      45.172 -21.851   1.418  1.00  0.00    -0.166 F 
ENDBRANCH  24  28
BRANCH  26  32
HETATM   32  C   UNL     1      44.599 -18.442   6.067  1.00  0.00     0.417 C 
HETATM   33  F   UNL     1      45.907 -18.099   6.208  1.00  0.00    -0.166 F 
HETATM   34  F   UNL     1      43.876 -17.421   6.600  1.00  0.00    -0.166 F 
HETATM   35  F   UNL     1      44.399 -19.511   6.888  1.00  0.00    -0.166 F 
ENDBRANCH  26  32
ENDBRANCH   2  22
TORSDOF 5
ENDMDL
MODEL 4
REMARK VINA RESULT:      -9.3      1.968      4.390
REMARK  5 active torsions:
REMARK  status: ('A' for Active; 'I' for Inactive)
REMARK    1  A    between atoms: N_4  and  C_5 
REMARK    2  A    between atoms: C_15  and  N_16 
REMARK       I    between atoms: N_16  and  C_17 
REMARK    3  A    between atoms: C_17  and  C_18 
REMARK    4  A    between atoms: C_20  and  C_21 
REMARK    5  A    between atoms: C_26  and  C_27 
ROOT
HETATM    1  N   UNL     1      41.194 -14.941   3.651  1.00  0.00    -0.307 N 
HETATM    2  C   UNL     1      42.512 -15.077   4.060  1.00  0.00     0.257 C 
HETATM    3  O   UNL     1      43.266 -14.156   4.357  1.00  0.00    -0.267 OA
HETATM    4  H   UNL     1      40.572 -15.737   3.687  1.00  0.00     0.170 HD
ENDROOT
BRANCH   1   5
HETATM    5  C   UNL     1      40.615 -13.686   3.533  1.00  0.00     0.152 C 
HETATM    6  N   UNL     1      40.788 -12.773   2.494  1.00  0.00    -0.045 N 
HETATM    7  N   UNL     1      40.330 -11.526   2.860  1.00  0.00    -0.156 NA
HETATM    8  C   UNL     1      39.623 -11.752   3.972  1.00  0.00     0.055 C 
HETATM    9  C   UNL     1      38.882 -10.645   4.626  1.00  0.00     0.072 C 
HETATM   10  C   UNL     1      39.734 -13.091   4.407  1.00  0.00     0.079 C 
BRANCH   6  11
HETATM   11  C   UNL     1      41.142 -12.980   1.142  1.00  0.00     0.732 A 
HETATM   12  N   UNL     1      40.641 -13.911   0.382  1.00  0.00    -0.067 NA
HETATM   13  C   UNL     1      41.098 -13.890  -0.905  1.00  0.00     0.065 A 
HETATM   14  C   UNL     1      41.966 -13.018  -1.418  1.00  0.00     0.036 A 
HETATM   15  C   UNL     1      40.628 -14.856  -1.941  1.00  0.00     0.061 C 
HETATM   16  C   UNL     1      42.243 -13.225  -2.856  1.00  0.00     0.047 C 
HETATM   17  C   UNL     1      42.501 -11.962  -0.562  1.00  0.00     0.268 A 
HETATM   18  C   UNL     1      41.586 -14.588  -3.112  1.00  0.00     0.011 C 
HETATM   19  O   UNL     1      43.277 -11.110  -0.974  1.00  0.00    -0.267 OA
HETATM   20  N   UNL     1      42.034 -12.017   0.719  1.00  0.00    -0.152 N 
HETATM   21  H   UNL     1      42.323 -11.302   1.379  1.00  0.00     0.188 HD
ENDBRANCH   6  11
ENDBRANCH   1   5
BRANCH   2  22
HETATM   22  C   UNL     1      43.013 -16.472   4.209  1.00  0.00     0.034 A 
HETATM   23  C   UNL     1      43.273 -16.940   5.504  1.00  0.00     0.033 A 
HETATM   24  C   UNL     1      43.713 -18.256   5.716  1.00  0.00     0.049 A 
HETATM   25  C   UNL     1      43.882 -19.102   4.607  1.00  0.00     0.032 A 
HETATM   26  C   UNL     1      43.617 -18.652   3.303  1.00  0.00     0.049 A 
HETATM   27  C   UNL     1      43.171 -17.331   3.114  1.00  0.00     0.033 A 
BRANCH  24  28
HETATM   28  C   UNL     1      43.987 -18.773   7.110  1.00  0.00     0.417 C 
HETATM   29  F   UNL     1      45.243 -18.503   7.559  1.00  0.00    -0.166 F 
HETATM   30  F   UNL     1      43.134 -18.246   8.030  1.00  0.00    -0.166 F 
HETATM   31  F   UNL     1      43.841 -20.123   7.194  1.00  0.00    -0.166 F 
ENDBRANCH  24  28
BRANCH  26  32
HETATM   32  C   UNL     1      43.759 -19.575   2.114  1.00  0.00     0.417 C 
HETATM   33  F   UNL     1      43.856 -18.920   0.927  1.00  0.00    -0.166 F 
HETATM   34  F   UNL     1      44.863 -20.364   2.206  1.00  0.00    -0.166 F 
HETATM   35  F   UNL     1      42.701 -20.424   1.992  1.00  0.00    -0.166 F 
ENDBRANCH  26  32
ENDBRANCH   2  22
TORSDOF 5
ENDMDL
MODEL 5
REMARK VINA RESULT:      -9.2      3.858      5.582
REMARK  5 active torsions:
REMARK  status: ('A' for Active; 'I' for Inactive)
REMARK    1  A    between atoms: N_4  and  C_5 
REMARK    2  A    between atoms: C_15  and  N_16 
REMARK       I    between atoms: N_16  and  C_17 
REMARK    3  A    between atoms: C_17  and  C_18 
REMARK    4  A    between atoms: C_20  and  C_21 
REMARK    5  A    between atoms: C_26  and  C_27 
ROOT
HETATM    1  N   UNL     1      42.107 -13.280   5.258  1.00  0.00    -0.307 N 
HETATM    2  C   UNL     1      41.504 -14.528   5.236  1.00  0.00     0.257 C 
HETATM    3  O   UNL     1      40.303 -14.743   5.364  1.00  0.00    -0.267 OA
HETATM    4  H   UNL     1      43.039 -13.166   4.884  1.00  0.00     0.170 HD
ENDROOT
BRANCH   1   5
HETATM    5  C   UNL     1      41.353 -12.133   5.450  1.00  0.00     0.152 C 
HETATM    6  N   UNL     1      41.177 -11.429   6.640  1.00  0.00    -0.045 N 
HETATM    7  N   UNL     1      40.123 -10.547   6.533  1.00  0.00    -0.156 NA
HETATM    8  C   UNL     1      39.868 -10.502   5.221  1.00  0.00     0.055 C 
HETATM    9  C   UNL     1      38.840  -9.573   4.691  1.00  0.00     0.072 C 
HETATM   10  C   UNL     1      40.639 -11.439   4.499  1.00  0.00     0.079 C 
BRANCH   6  11
HETATM   11  C   UNL     1      42.001 -11.343   7.784  1.00  0.00     0.732 A 
HETATM   12  N   UNL     1      43.285 -11.558   7.787  1.00  0.00    -0.067 NA
HETATM   13  C   UNL     1      43.883 -11.370   9.001  1.00  0.00     0.065 A 
HETATM   14  C   UNL     1      43.277 -10.985  10.125  1.00  0.00     0.036 A 
HETATM   15  C   UNL     1      45.350 -11.539   9.209  1.00  0.00     0.061 C 
HETATM   16  C   UNL     1      44.194 -10.831  11.275  1.00  0.00     0.047 C 
HETATM   17  C   UNL     1      41.840 -10.723  10.103  1.00  0.00     0.268 A 
HETATM   18  C   UNL     1      45.485 -11.463  10.738  1.00  0.00     0.011 C 
HETATM   19  O   UNL     1      41.225 -10.338  11.089  1.00  0.00    -0.267 OA
HETATM   20  N   UNL     1      41.271 -10.930   8.880  1.00  0.00    -0.152 N 
HETATM   21  H   UNL     1      40.282 -10.739   8.758  1.00  0.00     0.188 HD
ENDBRANCH   6  11
ENDBRANCH   1   5
BRANCH   2  22
HETATM   22  C   UNL     1      42.400 -15.687   4.965  1.00  0.00     0.034 A 
HETATM   23  C   UNL     1      42.953 -16.359   6.064  1.00  0.00     0.033 A 
HETATM   24  C   UNL     1      43.776 -17.480   5.880  1.00  0.00     0.049 A 
HETATM   25  C   UNL     1      44.033 -17.925   4.572  1.00  0.00     0.032 A 
HETATM   26  C   UNL     1      43.480 -17.269   3.459  1.00  0.00     0.049 A 
HETATM   27  C   UNL     1      42.653 -16.151   3.668  1.00  0.00     0.033 A 
BRANCH  24  28
HETATM   28  C   UNL     1      44.368 -18.217   7.058  1.00  0.00     0.417 C 
HETATM   29  F   UNL     1      44.052 -19.541   7.095  1.00  0.00    -0.166 F 
HETATM   30  F   UNL     1      45.727 -18.153   7.075  1.00  0.00    -0.166 F 
HETATM   31  F   UNL     1      43.954 -17.700   8.248  1.00  0.00    -0.166 F 
ENDBRANCH  24  28
BRANCH  26  32
HETATM   32  C   UNL     1      43.725 -17.773   2.054  1.00  0.00     0.417 C 
HETATM   33  F   UNL     1      44.621 -17.024   1.358  1.00  0.00    -0.166 F 
HETATM   34  F   UNL     1      44.198 -19.047   2.041  1.00  0.00    -0.166 F 
HETATM   35  F   UNL     1      42.585 -17.788   1.308  1.00  0.00    -0.166 F 
ENDBRANCH  26  32
ENDBRANCH   2  22
TORSDOF 5
ENDMDL
MODEL 6
REMARK VINA RESULT:      -9.2      3.696      6.035
REMARK  5 active torsions:
REMARK  status: ('A' for Active; 'I' for Inactive)
REMARK    1  A    between atoms: N_4  and  C_5 
REMARK    2  A    between atoms: C_15  and  N_16 
REMARK       I    between atoms: N_16  and  C_17 
REMARK    3  A    between atoms: C_17  and  C_18 
REMARK    4  A    between atoms: C_20  and  C_21 
REMARK    5  A    between atoms: C_26  and  C_27 
ROOT
HETATM    1  N   UNL     1      41.620 -13.610   5.403  1.00  0.00    -0.307 N 
HETATM    2  C   UNL     1      42.800 -14.028   4.806  1.00  0.00     0.257 C 
HETATM    3  O   UNL     1      43.612 -13.300   4.245  1.00  0.00    -0.267 OA
HETATM    4  H   UNL     1      41.150 -14.213   6.064  1.00  0.00     0.170 HD
ENDROOT
BRANCH   1   5
HETATM    5  C   UNL     1      41.257 -12.271   5.393  1.00  0.00     0.152 C 
HETATM    6  N   UNL     1      41.302 -11.379   6.462  1.00  0.00    -0.045 N 
HETATM    7  N   UNL     1      40.574 -10.243   6.179  1.00  0.00    -0.156 NA
HETATM    8  C   UNL     1      40.351 -10.318   4.862  1.00  0.00     0.055 C 
HETATM    9  C   UNL     1      39.664  -9.210   4.155  1.00  0.00     0.072 C 
HETATM   10  C   UNL     1      40.798 -11.543   4.319  1.00  0.00     0.079 C 
BRANCH   6  11
HETATM   11  C   UNL     1      42.107 -11.379   7.623  1.00  0.00     0.732 A 
HETATM   12  N   UNL     1      43.335 -11.807   7.670  1.00  0.00    -0.067 NA
HETATM   13  C   UNL     1      43.932 -11.665   8.890  1.00  0.00     0.065 A 
HETATM   14  C   UNL     1      43.379 -11.131   9.979  1.00  0.00     0.036 A 
HETATM   15  C   UNL     1      45.345 -12.070   9.146  1.00  0.00     0.061 C 
HETATM   16  C   UNL     1      44.287 -11.079  11.146  1.00  0.00     0.047 C 
HETATM   17  C   UNL     1      42.009 -10.631   9.907  1.00  0.00     0.268 A 
HETATM   18  C   UNL     1      45.461 -11.946  10.672  1.00  0.00     0.011 C 
HETATM   19  O   UNL     1      41.450 -10.101  10.858  1.00  0.00    -0.267 OA
HETATM   20  N   UNL     1      41.436 -10.797   8.679  1.00  0.00    -0.152 N 
HETATM   21  H   UNL     1      40.497 -10.447   8.523  1.00  0.00     0.188 HD
ENDBRANCH   6  11
ENDBRANCH   1   5
BRANCH   2  22
HETATM   22  C   UNL     1      43.119 -15.478   4.926  1.00  0.00     0.034 A 
HETATM   23  C   UNL     1      43.312 -16.207   3.745  1.00  0.00     0.033 A 
HETATM   24  C   UNL     1      43.651 -17.568   3.789  1.00  0.00     0.049 A 
HETATM   25  C   UNL     1      43.801 -18.189   5.040  1.00  0.00     0.032 A 
HETATM   26  C   UNL     1      43.620 -17.472   6.235  1.00  0.00     0.049 A 
HETATM   27  C   UNL     1      43.287 -16.107   6.167  1.00  0.00     0.033 A 
BRANCH  24  28
HETATM   28  C   UNL     1      43.871 -18.360   2.521  1.00  0.00     0.417 C 
HETATM   29  F   UNL     1      44.660 -19.456   2.687  1.00  0.00    -0.166 F 
HETATM   30  F   UNL     1      42.703 -18.811   1.988  1.00  0.00    -0.166 F 
HETATM   31  F   UNL     1      44.464 -17.616   1.548  1.00  0.00    -0.166 F 
ENDBRANCH  24  28
BRANCH  26  32
HETATM   32  C   UNL     1      43.822 -18.131   7.580  1.00  0.00     0.417 C 
HETATM   33  F   UNL     1      43.303 -19.386   7.653  1.00  0.00    -0.166 F 
HETATM   34  F   UNL     1      45.137 -18.243   7.906  1.00  0.00    -0.166 F 
HETATM   35  F   UNL     1      43.244 -17.425   8.592  1.00  0.00    -0.166 F 
ENDBRANCH  26  32
ENDBRANCH   2  22
TORSDOF 5
ENDMDL
MODEL 7
REMARK VINA RESULT:      -9.1      2.382      5.400
REMARK  5 active torsions:
REMARK  status: ('A' for Active; 'I' for Inactive)
REMARK    1  A    between atoms: N_4  and  C_5 
REMARK    2  A    between atoms: C_15  and  N_16 
REMARK       I    between atoms: N_16  and  C_17 
REMARK    3  A    between atoms: C_17  and  C_18 
REMARK    4  A    between atoms: C_20  and  C_21 
REMARK    5  A    between atoms: C_26  and  C_27 
ROOT
HETATM    1  N   UNL     1      41.359 -13.848   3.815  1.00  0.00    -0.307 N 
HETATM    2  C   UNL     1      41.050 -15.144   3.431  1.00  0.00     0.257 C 
HETATM    3  O   UNL     1      40.058 -15.481   2.792  1.00  0.00    -0.267 OA
HETATM    4  H   UNL     1      42.303 -13.618   4.094  1.00  0.00     0.170 HD
ENDROOT
BRANCH   1   5
HETATM    5  C   UNL     1      40.517 -12.794   3.494  1.00  0.00     0.152 C 
HETATM    6  N   UNL     1      40.554 -12.004   2.347  1.00  0.00    -0.045 N 
HETATM    7  N   UNL     1      39.792 -10.868   2.512  1.00  0.00    -0.156 NA
HETATM    8  C   UNL     1      39.072 -11.116   3.612  1.00  0.00     0.055 C 
HETATM    9  C   UNL     1      38.045 -10.147   4.068  1.00  0.00     0.072 C 
HETATM   10  C   UNL     1      39.456 -12.324   4.234  1.00  0.00     0.079 C 
BRANCH   6  11
HETATM   11  C   UNL     1      41.051 -12.288   1.055  1.00  0.00     0.732 A 
HETATM   12  N   UNL     1      40.534 -13.162   0.240  1.00  0.00    -0.067 NA
HETATM   13  C   UNL     1      41.154 -13.232  -0.975  1.00  0.00     0.065 A 
HETATM   14  C   UNL     1      42.191 -12.494  -1.372  1.00  0.00     0.036 A 
HETATM   15  C   UNL     1      40.699 -14.151  -2.058  1.00  0.00     0.061 C 
HETATM   16  C   UNL     1      42.624 -12.770  -2.759  1.00  0.00     0.047 C 
HETATM   17  C   UNL     1      42.747 -11.499  -0.459  1.00  0.00     0.268 A 
HETATM   18  C   UNL     1      41.829 -14.040  -3.092  1.00  0.00     0.011 C 
HETATM   19  O   UNL     1      43.677 -10.767  -0.768  1.00  0.00    -0.267 OA
HETATM   20  N   UNL     1      42.113 -11.461   0.750  1.00  0.00    -0.152 N 
HETATM   21  H   UNL     1      42.406 -10.775   1.438  1.00  0.00     0.188 HD
ENDBRANCH   6  11
ENDBRANCH   1   5
BRANCH   2  22
HETATM   22  C   UNL     1      42.053 -16.189   3.777  1.00  0.00     0.034 A 
HETATM   23  C   UNL     1      42.329 -17.175   2.820  1.00  0.00     0.033 A 
HETATM   24  C   UNL     1      43.289 -18.167   3.068  1.00  0.00     0.049 A 
HETATM   25  C   UNL     1      43.978 -18.153   4.293  1.00  0.00     0.032 A 
HETATM   26  C   UNL     1      43.721 -17.167   5.260  1.00  0.00     0.049 A 
HETATM   27  C   UNL     1      42.759 -16.178   4.987  1.00  0.00     0.033 A 
BRANCH  24  28
HETATM   28  C   UNL     1      43.601 -19.229   2.039  1.00  0.00     0.417 C 
HETATM   29  F   UNL     1      44.704 -19.970   2.330  1.00  0.00    -0.166 F 
HETATM   30  F   UNL     1      42.579 -20.114   1.889  1.00  0.00    -0.166 F 
HETATM   31  F   UNL     1      43.821 -18.698   0.805  1.00  0.00    -0.166 F 
ENDBRANCH  24  28
BRANCH  26  32
HETATM   32  C   UNL     1      44.491 -17.128   6.561  1.00  0.00     0.417 C 
HETATM   33  F   UNL     1      44.817 -15.871   6.962  1.00  0.00    -0.166 F 
HETATM   34  F   UNL     1      43.797 -17.689   7.586  1.00  0.00    -0.166 F 
HETATM   35  F   UNL     1      45.665 -17.815   6.483  1.00  0.00    -0.166 F 
ENDBRANCH  26  32
ENDBRANCH   2  22
TORSDOF 5
ENDMDL
MODEL 8
REMARK VINA RESULT:      -9.0      4.566      7.473
REMARK  5 active torsions:
REMARK  status: ('A' for Active; 'I' for Inactive)
REMARK    1  A    between atoms: N_4  and  C_5 
REMARK    2  A    between atoms: C_15  and  N_16 
REMARK       I    between atoms: N_16  and  C_17 
REMARK    3  A    between atoms: C_17  and  C_18 
REMARK    4  A    between atoms: C_20  and  C_21 
REMARK    5  A    between atoms: C_26  and  C_27 
ROOT
HETATM    1  N   UNL     1      42.579 -17.739   1.274  1.00  0.00    -0.307 N 
HETATM    2  C   UNL     1      41.350 -17.231   1.663  1.00  0.00     0.257 C 
HETATM    3  O   UNL     1      40.682 -17.627   2.614  1.00  0.00    -0.267 OA
HETATM    4  H   UNL     1      43.177 -17.196   0.666  1.00  0.00     0.170 HD
ENDROOT
BRANCH   1   5
HETATM    5  C   UNL     1      43.160 -18.793   1.962  1.00  0.00     0.152 C 
HETATM    6  N   UNL     1      43.940 -18.718   3.116  1.00  0.00    -0.045 N 
HETATM    7  N   UNL     1      44.606 -19.905   3.331  1.00  0.00    -0.156 NA
HETATM    8  C   UNL     1      44.009 -20.769   2.503  1.00  0.00     0.055 C 
HETATM    9  C   UNL     1      44.394 -22.202   2.512  1.00  0.00     0.072 C 
HETATM   10  C   UNL     1      43.070 -20.133   1.661  1.00  0.00     0.079 C 
BRANCH   6  11
HETATM   11  C   UNL     1      43.972 -17.744   4.138  1.00  0.00     0.732 A 
HETATM   12  N   UNL     1      43.602 -16.505   3.989  1.00  0.00    -0.067 NA
HETATM   13  C   UNL     1      43.675 -15.757   5.130  1.00  0.00     0.065 A 
HETATM   14  C   UNL     1      44.065 -16.188   6.330  1.00  0.00     0.036 A 
HETATM   15  C   UNL     1      43.272 -14.322   5.177  1.00  0.00     0.061 C 
HETATM   16  C   UNL     1      44.005 -15.153   7.385  1.00  0.00     0.047 C 
HETATM   17  C   UNL     1      44.453 -17.587   6.490  1.00  0.00     0.268 A 
HETATM   18  C   UNL     1      43.758 -13.879   6.566  1.00  0.00     0.011 C 
HETATM   19  O   UNL     1      44.791 -18.058   7.568  1.00  0.00    -0.267 OA
HETATM   20  N   UNL     1      44.380 -18.305   5.331  1.00  0.00    -0.152 N 
HETATM   21  H   UNL     1      44.596 -19.295   5.351  1.00  0.00     0.188 HD
ENDBRANCH   6  11
ENDBRANCH   1   5
BRANCH   2  22
HETATM   22  C   UNL     1      40.846 -16.062   0.889  1.00  0.00     0.034 A 
HETATM   23  C   UNL     1      41.253 -15.935  -0.446  1.00  0.00     0.033 A 
HETATM   24  C   UNL     1      40.786 -14.877  -1.241  1.00  0.00     0.049 A 
HETATM   25  C   UNL     1      39.896 -13.948  -0.678  1.00  0.00     0.032 A 
HETATM   26  C   UNL     1      39.471 -14.064   0.656  1.00  0.00     0.049 A 
HETATM   27  C   UNL     1      39.946 -15.136   1.432  1.00  0.00     0.033 A 
BRANCH  24  28
HETATM   28  C   UNL     1      41.211 -14.739  -2.685  1.00  0.00     0.417 C 
HETATM   29  F   UNL     1      40.242 -14.236  -3.497  1.00  0.00    -0.166 F 
HETATM   30  F   UNL     1      42.287 -13.918  -2.827  1.00  0.00    -0.166 F 
HETATM   31  F   UNL     1      41.575 -15.932  -3.230  1.00  0.00    -0.166 F 
ENDBRANCH  24  28
BRANCH  26  32
HETATM   32  C   UNL     1      38.482 -13.086   1.249  1.00  0.00     0.417 C 
HETATM   33  F   UNL     1      37.185 -13.462   1.090  1.00  0.00    -0.166 F 
HETATM   34  F   UNL     1      38.669 -12.911   2.584  1.00  0.00    -0.166 F 
HETATM   35  F   UNL     1      38.585 -11.847   0.690  1.00  0.00    -0.166 F 
ENDBRANCH  26  32
ENDBRANCH   2  22
TORSDOF 5
ENDMDL
MODEL 9
REMARK VINA RESULT:      -9.0      4.529      7.002
REMARK  5 active torsions:
REMARK  status: ('A' for Active; 'I' for Inactive)
REMARK    1  A    between atoms: N_4  and  C_5 
REMARK    2  A    between atoms: C_15  and  N_16 
REMARK       I    between atoms: N_16  and  C_17 
REMARK    3  A    between atoms: C_17  and  C_18 
REMARK    4  A    between atoms: C_20  and  C_21 
REMARK    5  A    between atoms: C_26  and  C_27 
ROOT
HETATM    1  N   UNL     1      42.619 -17.805   1.253  1.00  0.00    -0.307 N 
HETATM    2  C   UNL     1      41.384 -17.288   1.615  1.00  0.00     0.257 C 
HETATM    3  O   UNL     1      40.702 -17.667   2.562  1.00  0.00    -0.267 OA
HETATM    4  H   UNL     1      43.227 -17.274   0.645  1.00  0.00     0.170 HD
ENDROOT
BRANCH   1   5
HETATM    5  C   UNL     1      43.187 -18.847   1.969  1.00  0.00     0.152 C 
HETATM    6  N   UNL     1      43.950 -18.753   3.132  1.00  0.00    -0.045 N 
HETATM    7  N   UNL     1      44.611 -19.937   3.378  1.00  0.00    -0.156 NA
HETATM    8  C   UNL     1      44.024 -20.815   2.557  1.00  0.00     0.055 C 
HETATM    9  C   UNL     1      44.405 -22.248   2.598  1.00  0.00     0.072 C 
HETATM   10  C   UNL     1      43.098 -20.192   1.691  1.00  0.00     0.079 C 
BRANCH   6  11
HETATM   11  C   UNL     1      43.970 -17.761   4.137  1.00  0.00     0.732 A 
HETATM   12  N   UNL     1      43.603 -16.524   3.961  1.00  0.00    -0.067 NA
HETATM   13  C   UNL     1      43.662 -15.756   5.089  1.00  0.00     0.065 A 
HETATM   14  C   UNL     1      44.036 -16.165   6.301  1.00  0.00     0.036 A 
HETATM   15  C   UNL     1      43.259 -14.320   5.105  1.00  0.00     0.061 C 
HETATM   16  C   UNL     1      43.963 -15.112   7.337  1.00  0.00     0.047 C 
HETATM   17  C   UNL     1      44.422 -17.561   6.491  1.00  0.00     0.268 A 
HETATM   18  C   UNL     1      43.727 -13.853   6.492  1.00  0.00     0.011 C 
HETATM   19  O   UNL     1      44.746 -18.013   7.581  1.00  0.00    -0.267 OA
HETATM   20  N   UNL     1      44.363 -18.300   5.345  1.00  0.00    -0.152 N 
HETATM   21  H   UNL     1      44.578 -19.290   5.386  1.00  0.00     0.188 HD
ENDBRANCH   6  11
ENDBRANCH   1   5
BRANCH   2  22
HETATM   22  C   UNL     1      40.894 -16.132   0.813  1.00  0.00     0.034 A 
HETATM   23  C   UNL     1      40.085 -15.185   1.454  1.00  0.00     0.033 A 
HETATM   24  C   UNL     1      39.620 -14.054   0.766  1.00  0.00     0.049 A 
HETATM   25  C   UNL     1      39.986 -13.882  -0.579  1.00  0.00     0.032 A 
HETATM   26  C   UNL     1      40.804 -14.817  -1.236  1.00  0.00     0.049 A 
HETATM   27  C   UNL     1      41.263 -15.939  -0.524  1.00  0.00     0.033 A 
BRANCH  24  28
HETATM   28  C   UNL     1      38.756 -13.022   1.452  1.00  0.00     0.417 C 
HETATM   29  F   UNL     1      38.994 -11.746   1.044  1.00  0.00    -0.166 F 
HETATM   30  F   UNL     1      37.429 -13.244   1.246  1.00  0.00    -0.166 F 
HETATM   31  F   UNL     1      38.930 -13.022   2.802  1.00  0.00    -0.166 F 
ENDBRANCH  24  28
BRANCH  26  32
HETATM   32  C   UNL     1      41.230 -14.609  -2.672  1.00  0.00     0.417 C 
HETATM   33  F   UNL     1      40.250 -14.091  -3.459  1.00  0.00    -0.166 F 
HETATM   34  F   UNL     1      42.290 -13.765  -2.776  1.00  0.00    -0.166 F 
HETATM   35  F   UNL     1      41.617 -15.772  -3.267  1.00  0.00    -0.166 F 
ENDBRANCH  26  32
ENDBRANCH   2  22
TORSDOF 5
ENDMDL
MODEL 10
REMARK VINA RESULT:      -8.9      2.266      4.687
REMARK  5 active torsions:
REMARK  status: ('A' for Active; 'I' for Inactive)
REMARK    1  A    between atoms: N_4  and  C_5 
REMARK    2  A    between atoms: C_15  and  N_16 
REMARK       I    between atoms: N_16  and  C_17 
REMARK    3  A    between atoms: C_17  and  C_18 
REMARK    4  A    between atoms: C_20  and  C_21 
REMARK    5  A    between atoms: C_26  and  C_27 
ROOT
HETATM    1  N   UNL     1      42.301 -14.085   3.758  1.00  0.00    -0.307 N 
HETATM    2  C   UNL     1      41.573 -15.200   4.144  1.00  0.00     0.257 C 
HETATM    3  O   UNL     1      40.361 -15.231   4.330  1.00  0.00    -0.267 OA
HETATM    4  H   UNL     1      43.227 -14.199   3.371  1.00  0.00     0.170 HD
ENDROOT
BRANCH   1   5
HETATM    5  C   UNL     1      41.674 -12.864   3.558  1.00  0.00     0.152 C 
HETATM    6  N   UNL     1      41.309 -12.293   2.340  1.00  0.00    -0.045 N 
HETATM    7  N   UNL     1      41.011 -10.957   2.498  1.00  0.00    -0.156 NA
HETATM    8  C   UNL     1      40.903 -10.802   3.822  1.00  0.00     0.055 C 
HETATM    9  C   UNL     1      40.491  -9.494   4.391  1.00  0.00     0.072 C 
HETATM   10  C   UNL     1      41.263 -11.973   4.524  1.00  0.00     0.079 C 
BRANCH   6  11
HETATM   11  C   UNL     1      41.014 -12.897   1.097  1.00  0.00     0.732 A 
HETATM   12  N   UNL     1      41.400 -14.089   0.746  1.00  0.00    -0.067 NA
HETATM   13  C   UNL     1      40.956 -14.482  -0.485  1.00  0.00     0.065 A 
HETATM   14  C   UNL     1      40.181 -13.772  -1.305  1.00  0.00     0.036 A 
HETATM   15  C   UNL     1      41.265 -15.823  -1.061  1.00  0.00     0.061 C 
HETATM   16  C   UNL     1      39.833 -14.477  -2.558  1.00  0.00     0.047 C 
HETATM   17  C   UNL     1      39.734 -12.445  -0.889  1.00  0.00     0.268 A 
HETATM   18  C   UNL     1      40.771 -15.691  -2.509  1.00  0.00     0.011 C 
HETATM   19  O   UNL     1      38.997 -11.752  -1.577  1.00  0.00    -0.267 OA
HETATM   20  N   UNL     1      40.203 -12.078   0.340  1.00  0.00    -0.152 N 
HETATM   21  H   UNL     1      39.916 -11.186   0.729  1.00  0.00     0.188 HD
ENDBRANCH   6  11
ENDBRANCH   1   5
BRANCH   2  22
HETATM   22  C   UNL     1      42.338 -16.471   4.273  1.00  0.00     0.034 A 
HETATM   23  C   UNL     1      42.700 -16.891   5.560  1.00  0.00     0.033 A 
HETATM   24  C   UNL     1      43.389 -18.098   5.755  1.00  0.00     0.049 A 
HETATM   25  C   UNL     1      43.706 -18.885   4.635  1.00  0.00     0.032 A 
HETATM   26  C   UNL     1      43.344 -18.484   3.338  1.00  0.00     0.049 A 
HETATM   27  C   UNL     1      42.647 -17.275   3.168  1.00  0.00     0.033 A 
BRANCH  24  28
HETATM   28  C   UNL     1      43.775 -18.563   7.140  1.00  0.00     0.417 C 
HETATM   29  F   UNL     1      43.081 -17.951   8.138  1.00  0.00    -0.166 F 
HETATM   30  F   UNL     1      43.577 -19.899   7.306  1.00  0.00    -0.166 F 
HETATM   31  F   UNL     1      45.091 -18.343   7.408  1.00  0.00    -0.166 F 
ENDBRANCH  24  28
BRANCH  26  32
HETATM   32  C   UNL     1      43.650 -19.352   2.138  1.00  0.00     0.417 C 
HETATM   33  F   UNL     1      43.801 -18.649   0.984  1.00  0.00    -0.166 F 
HETATM   34  F   UNL     1      44.793 -20.069   2.301  1.00  0.00    -0.166 F 
HETATM   35  F   UNL     1      42.667 -20.264   1.899  1.00  0.00    -0.166 F 
ENDBRANCH  26  32
ENDBRANCH   2  22
TORSDOF 5
ENDMDL
