MODEL 1
REMARK VINA RESULT:      -9.3      0.000      0.000
REMARK  9 active torsions:
REMARK  status: ('A' for Active; 'I' for Inactive)
REMARK    1  A    between atoms: C_4  and  O_5 
REMARK    2  A    between atoms: O_5  and  C_6 
REMARK    3  A    between atoms: C_6  and  C_7 
REMARK       I    between atoms: C_7  and  N_8 
REMARK    4  A    between atoms: N_8  and  C_9 
REMARK    5  A    between atoms: C_9  and  N_10 
REMARK    6  A    between atoms: N_10  and  C_11 
REMARK    7  A    between atoms: C_14  and  N_15 
REMARK    8  A    between atoms: N_18  and  C_20 
REMARK    9  A    between atoms: C_20  and  C_21 
ROOT
HETATM    1  C   UNL     1      42.041 -14.592   5.011  1.00  0.00     0.034 A 
HETATM    2  C   UNL     1      42.843 -14.381   3.894  1.00  0.00     0.032 A 
HETATM    3  C   UNL     1      42.271 -14.154   2.633  1.00  0.00     0.031 A 
HETATM    4  C   UNL     1      40.887 -14.094   2.455  1.00  0.00     0.030 A 
HETATM    5  C   UNL     1      40.094 -14.357   3.583  1.00  0.00     0.031 A 
HETATM    6  C   UNL     1      40.658 -14.624   4.837  1.00  0.00     0.032 A 
ENDROOT
BRANCH   1   7
HETATM    7  N   UNL     1      42.543 -14.852   6.300  1.00  0.00    -0.333 N 
HETATM    8  H   UNL     1      41.852 -14.815   7.051  1.00  0.00     0.168 HD
BRANCH   7   9
HETATM    9  C   UNL     1      43.833 -15.024   6.748  1.00  0.00     0.178 C 
HETATM   10  S   UNL     1      44.888 -13.871   7.346  1.00  0.00    -0.040 SA
BRANCH   9  11
HETATM   11  N   UNL     1      44.287 -16.330   6.728  1.00  0.00    -0.302 N 
HETATM   12  C   UNL     1      43.616 -17.496   7.078  1.00  0.00     0.248 C 
HETATM   13  O   UNL     1      42.511 -17.514   7.619  1.00  0.00    -0.271 OA
HETATM   14  H   UNL     1      45.239 -16.441   6.396  1.00  0.00     0.171 HD
BRANCH  12  15
HETATM   15  C   UNL     1      44.381 -18.760   6.703  1.00  0.00     0.278 C 
BRANCH  15  16
HETATM   16  O   UNL     1      45.077 -18.610   5.473  1.00  0.00    -0.342 OA
BRANCH  16  17
HETATM   17  C   UNL     1      44.405 -18.931   4.325  1.00  0.00     0.070 A 
HETATM   18  C   UNL     1      43.454 -18.138   3.678  1.00  0.00     0.043 A 
HETATM   19  C   UNL     1      42.846 -18.576   2.493  1.00  0.00    -0.059 A 
HETATM   20  C   UNL     1      41.811 -17.729   1.812  1.00  0.00     0.048 C 
HETATM   21  C   UNL     1      43.175 -19.836   1.978  1.00  0.00     0.013 A 
HETATM   22  C   UNL     1      44.123 -20.643   2.617  1.00  0.00    -0.059 A 
HETATM   23  C   UNL     1      44.724 -20.185   3.796  1.00  0.00     0.043 A 
HETATM   24  C   UNL     1      44.452 -21.997   2.060  1.00  0.00     0.048 C 
ENDBRANCH  16  17
ENDBRANCH  15  16
ENDBRANCH  12  15
ENDBRANCH   9  11
ENDBRANCH   7   9
ENDBRANCH   1   7
BRANCH   4  25
HETATM   25  N   UNL     1      40.270 -13.811   1.234  1.00  0.00    -0.378 N 
HETATM   26  C   UNL     1      40.429 -14.727   0.091  1.00  0.00     0.150 C 
HETATM   27  C   UNL     1      41.629 -14.350  -0.803  1.00  0.00     0.255 C 
HETATM   28  N   UNL     1      41.591 -12.872  -1.185  1.00  0.00    -0.064 N 
HETATM   29  H   UNL     1      40.739 -12.722  -1.743  1.00  0.00     0.280 HD
HETATM   30  C   UNL     1      41.466 -11.983   0.053  1.00  0.00     0.255 C 
HETATM   31  C   UNL     1      40.221 -12.379   0.872  1.00  0.00     0.150 C 
BRANCH  28  32
HETATM   32  C   UNL     1      42.756 -12.461  -2.055  1.00  0.00     0.275 C 
BRANCH  32  33
HETATM   33  C   UNL     1      42.437 -11.332  -2.999  1.00  0.00    -0.011 A 
HETATM   34  C   UNL     1      42.888 -10.020  -2.770  1.00  0.00     0.042 A 
HETATM   35 CL   UNL     1      43.818  -9.629  -1.367  1.00  0.00    -0.084 Cl
HETATM   36  C   UNL     1      42.570  -8.989  -3.656  1.00  0.00     0.024 A 
HETATM   37  C   UNL     1      41.797  -9.255  -4.784  1.00  0.00     0.002 A 
HETATM   38  C   UNL     1      41.343 -10.549  -5.028  1.00  0.00     0.001 A 
HETATM   39  C   UNL     1      41.661 -11.582  -4.144  1.00  0.00     0.010 A 
ENDBRANCH  32  33
ENDBRANCH  28  32
ENDBRANCH   4  25
TORSDOF 9
ENDMDL
MODEL 2
REMARK VINA RESULT:      -9.2      2.778      3.439
REMARK  9 active torsions:
REMARK  status: ('A' for Active; 'I' for Inactive)
REMARK    1  A    between atoms: C_4  and  O_5 
REMARK    2  A    between atoms: O_5  and  C_6 
REMARK    3  A    between atoms: C_6  and  C_7 
REMARK       I    between atoms: C_7  and  N_8 
REMARK    4  A    between atoms: N_8  and  C_9 
REMARK    5  A    between atoms: C_9  and  N_10 
REMARK    6  A    between atoms: N_10  and  C_11 
REMARK    7  A    between atoms: C_14  and  N_15 
REMARK    8  A    between atoms: N_18  and  C_20 
REMARK    9  A    between atoms: C_20  and  C_21 
ROOT
HETATM    1  C   UNL     1      42.496 -14.170   5.390  1.00  0.00     0.034 A 
HETATM    2  C   UNL     1      43.053 -14.319   4.124  1.00  0.00     0.032 A 
HETATM    3  C   UNL     1      42.335 -14.944   3.092  1.00  0.00     0.031 A 
HETATM    4  C   UNL     1      41.030 -15.404   3.282  1.00  0.00     0.030 A 
HETATM    5  C   UNL     1      40.503 -15.290   4.578  1.00  0.00     0.031 A 
HETATM    6  C   UNL     1      41.229 -14.703   5.622  1.00  0.00     0.032 A 
ENDROOT
BRANCH   1   7
HETATM    7  N   UNL     1      43.166 -13.580   6.477  1.00  0.00    -0.333 N 
HETATM    8  H   UNL     1      42.747 -12.717   6.830  1.00  0.00     0.168 HD
BRANCH   7   9
HETATM    9  C   UNL     1      44.367 -13.890   7.074  1.00  0.00     0.178 C 
HETATM   10  S   UNL     1      45.294 -12.945   8.097  1.00  0.00    -0.040 SA
BRANCH   9  11
HETATM   11  N   UNL     1      44.835 -15.164   6.812  1.00  0.00    -0.302 N 
HETATM   12  C   UNL     1      44.282 -16.391   7.161  1.00  0.00     0.248 C 
HETATM   13  O   UNL     1      43.320 -16.517   7.917  1.00  0.00    -0.271 OA
HETATM   14  H   UNL     1      45.697 -15.195   6.275  1.00  0.00     0.171 HD
BRANCH  12  15
HETATM   15  C   UNL     1      44.978 -17.571   6.492  1.00  0.00     0.278 C 
BRANCH  15  16
HETATM   16  O   UNL     1      44.060 -18.599   6.148  1.00  0.00    -0.342 OA
BRANCH  16  17
HETATM   17  C   UNL     1      44.152 -19.132   4.890  1.00  0.00     0.070 A 
HETATM   18  C   UNL     1      44.313 -20.484   4.579  1.00  0.00     0.043 A 
HETATM   19  C   UNL     1      44.377 -20.905   3.243  1.00  0.00    -0.059 A 
HETATM   20  C   UNL     1      44.570 -22.357   2.912  1.00  0.00     0.048 C 
HETATM   21  C   UNL     1      44.313 -19.953   2.219  1.00  0.00     0.013 A 
HETATM   22  C   UNL     1      44.156 -18.595   2.516  1.00  0.00    -0.059 A 
HETATM   23  C   UNL     1      44.087 -18.194   3.856  1.00  0.00     0.043 A 
HETATM   24  C   UNL     1      44.105 -17.585   1.406  1.00  0.00     0.048 C 
ENDBRANCH  16  17
ENDBRANCH  15  16
ENDBRANCH  12  15
ENDBRANCH   9  11
ENDBRANCH   7   9
ENDBRANCH   1   7
BRANCH   4  25
HETATM   25  N   UNL     1      40.251 -15.978   2.274  1.00  0.00    -0.378 N 
HETATM   26  C   UNL     1      40.893 -16.663   1.139  1.00  0.00     0.150 C 
HETATM   27  C   UNL     1      41.150 -15.715  -0.053  1.00  0.00     0.255 C 
HETATM   28  N   UNL     1      39.889 -14.937  -0.422  1.00  0.00    -0.064 N 
HETATM   29  H   UNL     1      39.184 -15.622  -0.727  1.00  0.00     0.280 HD
HETATM   30  C   UNL     1      39.303 -14.220   0.796  1.00  0.00     0.255 C 
HETATM   31  C   UNL     1      39.024 -15.231   1.928  1.00  0.00     0.150 C 
BRANCH  28  32
HETATM   32  C   UNL     1      40.101 -13.990  -1.579  1.00  0.00     0.275 C 
BRANCH  32  33
HETATM   33  C   UNL     1      38.914 -13.883  -2.499  1.00  0.00    -0.011 A 
HETATM   34  C   UNL     1      38.591 -14.896  -3.419  1.00  0.00     0.042 A 
HETATM   35 CL   UNL     1      39.564 -16.318  -3.558  1.00  0.00    -0.084 Cl
HETATM   36  C   UNL     1      37.490 -14.768  -4.268  1.00  0.00     0.024 A 
HETATM   37  C   UNL     1      36.696 -13.624  -4.210  1.00  0.00     0.002 A 
HETATM   38  C   UNL     1      37.001 -12.611  -3.305  1.00  0.00     0.001 A 
HETATM   39  C   UNL     1      38.100 -12.738  -2.452  1.00  0.00     0.010 A 
ENDBRANCH  32  33
ENDBRANCH  28  32
ENDBRANCH   4  25
TORSDOF 9
ENDMDL
MODEL 3
REMARK VINA RESULT:      -9.0      5.731      9.855
REMARK  9 active torsions:
REMARK  status: ('A' for Active; 'I' for Inactive)
REMARK    1  A    between atoms: C_4  and  O_5 
REMARK    2  A    between atoms: O_5  and  C_6 
REMARK    3  A    between atoms: C_6  and  C_7 
REMARK       I    between atoms: C_7  and  N_8 
REMARK    4  A    between atoms: N_8  and  C_9 
REMARK    5  A    between atoms: C_9  and  N_10 
REMARK    6  A    between atoms: N_10  and  C_11 
REMARK    7  A    between atoms: C_14  and  N_15 
REMARK    8  A    between atoms: N_18  and  C_20 
REMARK    9  A    between atoms: C_20  and  C_21 
ROOT
HETATM    1  C   UNL     1      41.610 -12.616   4.829  1.00  0.00     0.034 A 
HETATM    2  C   UNL     1      42.796 -13.270   5.148  1.00  0.00     0.032 A 
HETATM    3  C   UNL     1      42.782 -14.584   5.639  1.00  0.00     0.031 A 
HETATM    4  C   UNL     1      41.590 -15.297   5.793  1.00  0.00     0.030 A 
HETATM    5  C   UNL     1      40.401 -14.605   5.513  1.00  0.00     0.031 A 
HETATM    6  C   UNL     1      40.406 -13.280   5.060  1.00  0.00     0.032 A 
ENDROOT
BRANCH   1   7
HETATM    7  N   UNL     1      41.546 -11.292   4.357  1.00  0.00    -0.333 N 
HETATM    8  H   UNL     1      41.848 -11.160   3.390  1.00  0.00     0.168 HD
BRANCH   7   9
HETATM    9  C   UNL     1      41.267 -10.113   5.011  1.00  0.00     0.178 C 
HETATM   10  S   UNL     1      41.004  -8.598   4.353  1.00  0.00    -0.040 SA
BRANCH   9  11
HETATM   11  N   UNL     1      41.159 -10.221   6.385  1.00  0.00    -0.302 N 
HETATM   12  C   UNL     1      40.016 -10.321   7.169  1.00  0.00     0.248 C 
HETATM   13  O   UNL     1      38.874 -10.177   6.735  1.00  0.00    -0.271 OA
HETATM   14  H   UNL     1      42.047 -10.244   6.877  1.00  0.00     0.171 HD
BRANCH  12  15
HETATM   15  C   UNL     1      40.319 -10.652   8.626  1.00  0.00     0.278 C 
BRANCH  15  16
HETATM   16  O   UNL     1      41.034  -9.605   9.267  1.00  0.00    -0.342 OA
BRANCH  16  17
HETATM   17  C   UNL     1      42.167  -9.945   9.956  1.00  0.00     0.070 A 
HETATM   18  C   UNL     1      43.265 -10.639   9.443  1.00  0.00     0.043 A 
HETATM   19  C   UNL     1      44.378 -10.912  10.251  1.00  0.00    -0.059 A 
HETATM   20  C   UNL     1      45.548 -11.675   9.701  1.00  0.00     0.048 C 
HETATM   21  C   UNL     1      44.366 -10.513  11.593  1.00  0.00     0.013 A 
HETATM   22  C   UNL     1      43.272  -9.821  12.122  1.00  0.00    -0.059 A 
HETATM   23  C   UNL     1      42.173  -9.551  11.297  1.00  0.00     0.043 A 
HETATM   24  C   UNL     1      43.268  -9.415  13.567  1.00  0.00     0.048 C 
ENDBRANCH  16  17
ENDBRANCH  15  16
ENDBRANCH  12  15
ENDBRANCH   9  11
ENDBRANCH   7   9
ENDBRANCH   1   7
BRANCH   4  25
HETATM   25  N   UNL     1      41.526 -16.625   6.221  1.00  0.00    -0.378 N 
HETATM   26  C   UNL     1      42.415 -17.103   7.294  1.00  0.00     0.150 C 
HETATM   27  C   UNL     1      43.736 -17.687   6.749  1.00  0.00     0.255 C 
HETATM   28  N   UNL     1      43.475 -18.712   5.648  1.00  0.00    -0.064 N 
HETATM   29  H   UNL     1      42.952 -19.491   6.072  1.00  0.00     0.280 HD
HETATM   30  C   UNL     1      42.580 -18.132   4.551  1.00  0.00     0.255 C 
HETATM   31  C   UNL     1      41.259 -17.615   5.157  1.00  0.00     0.150 C 
BRANCH  28  32
HETATM   32  C   UNL     1      44.745 -19.301   5.081  1.00  0.00     0.275 C 
BRANCH  32  33
HETATM   33  C   UNL     1      44.518 -20.206   3.899  1.00  0.00    -0.011 A 
HETATM   34  C   UNL     1      44.650 -21.602   3.993  1.00  0.00     0.042 A 
HETATM   35 CL   UNL     1      45.107 -22.356   5.480  1.00  0.00    -0.084 Cl
HETATM   36  C   UNL     1      44.444 -22.418   2.879  1.00  0.00     0.024 A 
HETATM   37  C   UNL     1      44.102 -21.849   1.654  1.00  0.00     0.002 A 
HETATM   38  C   UNL     1      43.966 -20.468   1.542  1.00  0.00     0.001 A 
HETATM   39  C   UNL     1      44.169 -19.650   2.655  1.00  0.00     0.010 A 
ENDBRANCH  32  33
ENDBRANCH  28  32
ENDBRANCH   4  25
TORSDOF 9
ENDMDL
MODEL 4
REMARK VINA RESULT:      -9.0      5.593      9.798
REMARK  9 active torsions:
REMARK  status: ('A' for Active; 'I' for Inactive)
REMARK    1  A    between atoms: C_4  and  O_5 
REMARK    2  A    between atoms: O_5  and  C_6 
REMARK    3  A    between atoms: C_6  and  C_7 
REMARK       I    between atoms: C_7  and  N_8 
REMARK    4  A    between atoms: N_8  and  C_9 
REMARK    5  A    between atoms: C_9  and  N_10 
REMARK    6  A    between atoms: N_10  and  C_11 
REMARK    7  A    between atoms: C_14  and  N_15 
REMARK    8  A    between atoms: N_18  and  C_20 
REMARK    9  A    between atoms: C_20  and  C_21 
ROOT
HETATM    1  C   UNL     1      40.817 -12.048   5.220  1.00  0.00     0.034 A 
HETATM    2  C   UNL     1      42.073 -12.575   5.499  1.00  0.00     0.032 A 
HETATM    3  C   UNL     1      42.224 -13.925   5.853  1.00  0.00     0.031 A 
HETATM    4  C   UNL     1      41.133 -14.796   5.902  1.00  0.00     0.030 A 
HETATM    5  C   UNL     1      39.868 -14.236   5.665  1.00  0.00     0.031 A 
HETATM    6  C   UNL     1      39.706 -12.881   5.351  1.00  0.00     0.032 A 
ENDROOT
BRANCH   1   7
HETATM    7  N   UNL     1      40.587 -10.701   4.886  1.00  0.00    -0.333 N 
HETATM    8  H   UNL     1      40.026 -10.551   4.045  1.00  0.00     0.168 HD
BRANCH   7   9
HETATM    9  C   UNL     1      41.094  -9.539   5.421  1.00  0.00     0.178 C 
HETATM   10  S   UNL     1      41.818  -8.258   4.625  1.00  0.00    -0.040 SA
BRANCH   9  11
HETATM   11  N   UNL     1      40.946  -9.416   6.790  1.00  0.00    -0.302 N 
HETATM   12  C   UNL     1      39.820  -9.643   7.573  1.00  0.00     0.248 C 
HETATM   13  O   UNL     1      38.700  -9.859   7.115  1.00  0.00    -0.271 OA
HETATM   14  H   UNL     1      41.788  -9.134   7.282  1.00  0.00     0.171 HD
BRANCH  12  15
HETATM   15  C   UNL     1      40.120  -9.618   9.068  1.00  0.00     0.278 C 
BRANCH  15  16
HETATM   16  O   UNL     1      40.798 -10.793   9.490  1.00  0.00    -0.342 OA
BRANCH  16  17
HETATM   17  C   UNL     1      41.938 -10.631  10.231  1.00  0.00     0.070 A 
HETATM   18  C   UNL     1      42.005 -10.172  11.549  1.00  0.00     0.043 A 
HETATM   19  C   UNL     1      43.240 -10.066  12.205  1.00  0.00    -0.059 A 
HETATM   20  C   UNL     1      43.310  -9.554  13.615  1.00  0.00     0.048 C 
HETATM   21  C   UNL     1      44.414 -10.392  11.516  1.00  0.00     0.013 A 
HETATM   22  C   UNL     1      44.362 -10.850  10.195  1.00  0.00    -0.059 A 
HETATM   23  C   UNL     1      43.119 -10.955   9.558  1.00  0.00     0.043 A 
HETATM   24  C   UNL     1      45.632 -11.180   9.465  1.00  0.00     0.048 C 
ENDBRANCH  16  17
ENDBRANCH  15  16
ENDBRANCH  12  15
ENDBRANCH   9  11
ENDBRANCH   7   9
ENDBRANCH   1   7
BRANCH   4  25
HETATM   25  N   UNL     1      41.237 -16.159   6.189  1.00  0.00    -0.378 N 
HETATM   26  C   UNL     1      42.333 -16.658   7.037  1.00  0.00     0.150 C 
HETATM   27  C   UNL     1      43.572 -17.073   6.216  1.00  0.00     0.255 C 
HETATM   28  N   UNL     1      43.190 -18.009   5.072  1.00  0.00    -0.064 N 
HETATM   29  H   UNL     1      42.805 -18.866   5.492  1.00  0.00     0.280 HD
HETATM   30  C   UNL     1      42.077 -17.407   4.212  1.00  0.00     0.255 C 
HETATM   31  C   UNL     1      40.852 -17.064   5.085  1.00  0.00     0.150 C 
BRANCH  28  32
HETATM   32  C   UNL     1      44.376 -18.431   4.237  1.00  0.00     0.275 C 
BRANCH  32  33
HETATM   33  C   UNL     1      44.454 -19.916   4.004  1.00  0.00    -0.011 A 
HETATM   34  C   UNL     1      44.143 -20.492   2.760  1.00  0.00     0.042 A 
HETATM   35 CL   UNL     1      43.626 -19.517   1.430  1.00  0.00    -0.084 Cl
HETATM   36  C   UNL     1      44.214 -21.874   2.573  1.00  0.00     0.024 A 
HETATM   37  C   UNL     1      44.598 -22.700   3.628  1.00  0.00     0.002 A 
HETATM   38  C   UNL     1      44.911 -22.147   4.866  1.00  0.00     0.001 A 
HETATM   39  C   UNL     1      44.843 -20.765   5.056  1.00  0.00     0.010 A 
ENDBRANCH  32  33
ENDBRANCH  28  32
ENDBRANCH   4  25
TORSDOF 9
ENDMDL
MODEL 5
REMARK VINA RESULT:      -9.0      1.687      2.231
REMARK  9 active torsions:
REMARK  status: ('A' for Active; 'I' for Inactive)
REMARK    1  A    between atoms: C_4  and  O_5 
REMARK    2  A    between atoms: O_5  and  C_6 
REMARK    3  A    between atoms: C_6  and  C_7 
REMARK       I    between atoms: C_7  and  N_8 
REMARK    4  A    between atoms: N_8  and  C_9 
REMARK    5  A    between atoms: C_9  and  N_10 
REMARK    6  A    between atoms: N_10  and  C_11 
REMARK    7  A    between atoms: C_14  and  N_15 
REMARK    8  A    between atoms: N_18  and  C_20 
REMARK    9  A    between atoms: C_20  and  C_21 
ROOT
HETATM    1  C   UNL     1      42.263 -14.635   5.379  1.00  0.00     0.034 A 
HETATM    2  C   UNL     1      42.527 -14.027   4.156  1.00  0.00     0.032 A 
HETATM    3  C   UNL     1      41.866 -14.443   2.990  1.00  0.00     0.031 A 
HETATM    4  C   UNL     1      40.898 -15.450   3.015  1.00  0.00     0.030 A 
HETATM    5  C   UNL     1      40.680 -16.085   4.248  1.00  0.00     0.031 A 
HETATM    6  C   UNL     1      41.366 -15.702   5.408  1.00  0.00     0.032 A 
ENDROOT
BRANCH   1   7
HETATM    7  N   UNL     1      42.906 -14.290   6.582  1.00  0.00    -0.333 N 
HETATM    8  H   UNL     1      42.337 -13.755   7.241  1.00  0.00     0.168 HD
BRANCH   7   9
HETATM    9  C   UNL     1      44.215 -14.435   6.981  1.00  0.00     0.178 C 
HETATM   10  S   UNL     1      45.222 -13.295   7.678  1.00  0.00    -0.040 SA
BRANCH   9  11
HETATM   11  N   UNL     1      44.739 -15.703   6.807  1.00  0.00    -0.302 N 
HETATM   12  C   UNL     1      44.258 -16.921   7.273  1.00  0.00     0.248 C 
HETATM   13  O   UNL     1      43.327 -17.029   8.070  1.00  0.00    -0.271 OA
HETATM   14  H   UNL     1      45.584 -15.737   6.246  1.00  0.00     0.171 HD
BRANCH  12  15
HETATM   15  C   UNL     1      44.992 -18.118   6.680  1.00  0.00     0.278 C 
BRANCH  15  16
HETATM   16  O   UNL     1      44.096 -19.036   6.069  1.00  0.00    -0.342 OA
BRANCH  16  17
HETATM   17  C   UNL     1      44.109 -19.115   4.702  1.00  0.00     0.070 A 
HETATM   18  C   UNL     1      43.996 -18.042   3.814  1.00  0.00     0.043 A 
HETATM   19  C   UNL     1      44.042 -18.254   2.429  1.00  0.00    -0.059 A 
HETATM   20  C   UNL     1      43.900 -17.100   1.479  1.00  0.00     0.048 C 
HETATM   21  C   UNL     1      44.167 -19.559   1.938  1.00  0.00     0.013 A 
HETATM   22  C   UNL     1      44.277 -20.643   2.815  1.00  0.00    -0.059 A 
HETATM   23  C   UNL     1      44.237 -20.411   4.195  1.00  0.00     0.043 A 
HETATM   24  C   UNL     1      44.395 -22.038   2.271  1.00  0.00     0.048 C 
ENDBRANCH  16  17
ENDBRANCH  15  16
ENDBRANCH  12  15
ENDBRANCH   9  11
ENDBRANCH   7   9
ENDBRANCH   1   7
BRANCH   4  25
HETATM   25  N   UNL     1      40.169 -15.859   1.896  1.00  0.00    -0.378 N 
HETATM   26  C   UNL     1      40.847 -16.069   0.605  1.00  0.00     0.150 C 
HETATM   27  C   UNL     1      40.853 -14.798  -0.272  1.00  0.00     0.255 C 
HETATM   28  N   UNL     1      39.452 -14.201  -0.389  1.00  0.00    -0.064 N 
HETATM   29  H   UNL     1      38.862 -14.896  -0.867  1.00  0.00     0.280 HD
HETATM   30  C   UNL     1      38.830 -13.973   0.989  1.00  0.00     0.255 C 
HETATM   31  C   UNL     1      38.809 -15.291   1.791  1.00  0.00     0.150 C 
BRANCH  28  32
HETATM   32  C   UNL     1      39.417 -12.949  -1.233  1.00  0.00     0.275 C 
BRANCH  32  33
HETATM   33  C   UNL     1      40.723 -12.201  -1.261  1.00  0.00    -0.011 A 
HETATM   34  C   UNL     1      41.628 -12.322  -2.330  1.00  0.00     0.042 A 
HETATM   35 CL   UNL     1      41.294 -13.365  -3.668  1.00  0.00    -0.084 Cl
HETATM   36  C   UNL     1      42.838 -11.625  -2.327  1.00  0.00     0.024 A 
HETATM   37  C   UNL     1      43.161 -10.796  -1.254  1.00  0.00     0.002 A 
HETATM   38  C   UNL     1      42.276 -10.663  -0.187  1.00  0.00     0.001 A 
HETATM   39  C   UNL     1      41.064 -11.357  -0.189  1.00  0.00     0.010 A 
ENDBRANCH  32  33
ENDBRANCH  28  32
ENDBRANCH   4  25
TORSDOF 9
ENDMDL
MODEL 6
REMARK VINA RESULT:      -8.8      5.295      9.647
REMARK  9 active torsions:
REMARK  status: ('A' for Active; 'I' for Inactive)
REMARK    1  A    between atoms: C_4  and  O_5 
REMARK    2  A    between atoms: O_5  and  C_6 
REMARK    3  A    between atoms: C_6  and  C_7 
REMARK       I    between atoms: C_7  and  N_8 
REMARK    4  A    between atoms: N_8  and  C_9 
REMARK    5  A    between atoms: C_9  and  N_10 
REMARK    6  A    between atoms: N_10  and  C_11 
REMARK    7  A    between atoms: C_14  and  N_15 
REMARK    8  A    between atoms: N_18  and  C_20 
REMARK    9  A    between atoms: C_20  and  C_21 
ROOT
HETATM    1  C   UNL     1      41.200 -11.562   5.138  1.00  0.00     0.034 A 
HETATM    2  C   UNL     1      41.966 -12.547   5.751  1.00  0.00     0.032 A 
HETATM    3  C   UNL     1      41.739 -13.906   5.483  1.00  0.00     0.031 A 
HETATM    4  C   UNL     1      40.766 -14.320   4.570  1.00  0.00     0.030 A 
HETATM    5  C   UNL     1      39.969 -13.315   3.998  1.00  0.00     0.031 A 
HETATM    6  C   UNL     1      40.166 -11.960   4.292  1.00  0.00     0.032 A 
ENDROOT
BRANCH   1   7
HETATM    7  N   UNL     1      41.354 -10.185   5.378  1.00  0.00    -0.333 N 
HETATM    8  H   UNL     1      42.309  -9.833   5.295  1.00  0.00     0.168 HD
BRANCH   7   9
HETATM    9  C   UNL     1      40.460  -9.242   5.834  1.00  0.00     0.178 C 
HETATM   10  S   UNL     1      39.559  -8.149   4.945  1.00  0.00    -0.040 SA
BRANCH   9  11
HETATM   11  N   UNL     1      40.269  -9.236   7.204  1.00  0.00    -0.302 N 
HETATM   12  C   UNL     1      39.632 -10.177   8.004  1.00  0.00     0.248 C 
HETATM   13  O   UNL     1      38.989 -11.128   7.562  1.00  0.00    -0.271 OA
HETATM   14  H   UNL     1      40.668  -8.434   7.682  1.00  0.00     0.171 HD
BRANCH  12  15
HETATM   15  C   UNL     1      39.827  -9.923   9.494  1.00  0.00     0.278 C 
BRANCH  15  16
HETATM   16  O   UNL     1      40.896  -9.019   9.740  1.00  0.00    -0.342 OA
BRANCH  16  17
HETATM   17  C   UNL     1      42.003  -9.510  10.379  1.00  0.00     0.070 A 
HETATM   18  C   UNL     1      43.009 -10.288   9.801  1.00  0.00     0.043 A 
HETATM   19  C   UNL     1      44.105 -10.717  10.563  1.00  0.00    -0.059 A 
HETATM   20  C   UNL     1      45.175 -11.569   9.944  1.00  0.00     0.048 C 
HETATM   21  C   UNL     1      44.167 -10.388  11.923  1.00  0.00     0.013 A 
HETATM   22  C   UNL     1      43.165  -9.613  12.516  1.00  0.00    -0.059 A 
HETATM   23  C   UNL     1      42.081  -9.188  11.736  1.00  0.00     0.043 A 
HETATM   24  C   UNL     1      43.238  -9.282  13.978  1.00  0.00     0.048 C 
ENDBRANCH  16  17
ENDBRANCH  15  16
ENDBRANCH  12  15
ENDBRANCH   9  11
ENDBRANCH   7   9
ENDBRANCH   1   7
BRANCH   4  25
HETATM   25  N   UNL     1      40.540 -15.654   4.223  1.00  0.00    -0.378 N 
HETATM   26  C   UNL     1      41.008 -16.740   5.103  1.00  0.00     0.150 C 
HETATM   27  C   UNL     1      42.426 -17.227   4.734  1.00  0.00     0.255 C 
HETATM   28  N   UNL     1      42.534 -17.538   3.243  1.00  0.00    -0.064 N 
HETATM   29  H   UNL     1      41.886 -18.313   3.045  1.00  0.00     0.280 HD
HETATM   30  C   UNL     1      42.070 -16.353   2.395  1.00  0.00     0.255 C 
HETATM   31  C   UNL     1      40.630 -15.951   2.779  1.00  0.00     0.150 C 
BRANCH  28  32
HETATM   32  C   UNL     1      43.911 -18.010   2.840  1.00  0.00     0.275 C 
BRANCH  32  33
HETATM   33  C   UNL     1      44.083 -19.504   2.910  1.00  0.00    -0.011 A 
HETATM   34  C   UNL     1      44.638 -20.138   4.035  1.00  0.00     0.042 A 
HETATM   35 CL   UNL     1      45.180 -19.223   5.397  1.00  0.00    -0.084 Cl
HETATM   36  C   UNL     1      44.797 -21.525   4.071  1.00  0.00     0.024 A 
HETATM   37  C   UNL     1      44.401 -22.298   2.981  1.00  0.00     0.002 A 
HETATM   38  C   UNL     1      43.847 -21.688   1.859  1.00  0.00     0.001 A 
HETATM   39  C   UNL     1      43.686 -20.301   1.821  1.00  0.00     0.010 A 
ENDBRANCH  32  33
ENDBRANCH  28  32
ENDBRANCH   4  25
TORSDOF 9
ENDMDL
MODEL 7
REMARK VINA RESULT:      -8.6      3.029      4.856
REMARK  9 active torsions:
REMARK  status: ('A' for Active; 'I' for Inactive)
REMARK    1  A    between atoms: C_4  and  O_5 
REMARK    2  A    between atoms: O_5  and  C_6 
REMARK    3  A    between atoms: C_6  and  C_7 
REMARK       I    between atoms: C_7  and  N_8 
REMARK    4  A    between atoms: N_8  and  C_9 
REMARK    5  A    between atoms: C_9  and  N_10 
REMARK    6  A    between atoms: N_10  and  C_11 
REMARK    7  A    between atoms: C_14  and  N_15 
REMARK    8  A    between atoms: N_18  and  C_20 
REMARK    9  A    between atoms: C_20  and  C_21 
ROOT
HETATM    1  C   UNL     1      43.147 -17.815   1.809  1.00  0.00     0.034 A 
HETATM    2  C   UNL     1      41.795 -17.829   1.486  1.00  0.00     0.032 A 
HETATM    3  C   UNL     1      41.021 -16.663   1.583  1.00  0.00     0.031 A 
HETATM    4  C   UNL     1      41.580 -15.442   1.968  1.00  0.00     0.030 A 
HETATM    5  C   UNL     1      42.934 -15.457   2.337  1.00  0.00     0.031 A 
HETATM    6  C   UNL     1      43.702 -16.627   2.281  1.00  0.00     0.032 A 
ENDROOT
BRANCH   1   7
HETATM    7  N   UNL     1      43.977 -18.950   1.762  1.00  0.00    -0.333 N 
HETATM    8  H   UNL     1      44.733 -18.908   1.075  1.00  0.00     0.168 HD
BRANCH   7   9
HETATM    9  C   UNL     1      43.876 -20.170   2.392  1.00  0.00     0.178 C 
HETATM   10  S   UNL     1      44.034 -21.698   1.729  1.00  0.00    -0.040 SA
BRANCH   9  11
HETATM   11  N   UNL     1      43.649 -20.104   3.754  1.00  0.00    -0.302 N 
HETATM   12  C   UNL     1      44.546 -20.279   4.801  1.00  0.00     0.248 C 
HETATM   13  O   UNL     1      45.700 -20.679   4.654  1.00  0.00    -0.271 OA
HETATM   14  H   UNL     1      42.693 -19.882   4.012  1.00  0.00     0.171 HD
BRANCH  12  15
HETATM   15  C   UNL     1      43.960 -19.902   6.157  1.00  0.00     0.278 C 
BRANCH  15  16
HETATM   16  O   UNL     1      44.572 -18.736   6.691  1.00  0.00    -0.342 OA
BRANCH  16  17
HETATM   17  C   UNL     1      43.931 -17.542   6.495  1.00  0.00     0.070 A 
HETATM   18  C   UNL     1      42.610 -17.377   6.072  1.00  0.00     0.043 A 
HETATM   19  C   UNL     1      42.064 -16.094   5.925  1.00  0.00    -0.059 A 
HETATM   20  C   UNL     1      40.650 -15.919   5.452  1.00  0.00     0.048 C 
HETATM   21  C   UNL     1      42.866 -14.974   6.172  1.00  0.00     0.013 A 
HETATM   22  C   UNL     1      44.192 -15.124   6.593  1.00  0.00    -0.059 A 
HETATM   23  C   UNL     1      44.718 -16.413   6.740  1.00  0.00     0.043 A 
HETATM   24  C   UNL     1      45.043 -13.912   6.838  1.00  0.00     0.048 C 
ENDBRANCH  16  17
ENDBRANCH  15  16
ENDBRANCH  12  15
ENDBRANCH   9  11
ENDBRANCH   7   9
ENDBRANCH   1   7
BRANCH   4  25
HETATM   25  N   UNL     1      40.868 -14.241   2.022  1.00  0.00    -0.378 N 
HETATM   26  C   UNL     1      39.423 -14.221   1.735  1.00  0.00     0.150 C 
HETATM   27  C   UNL     1      39.123 -13.950   0.245  1.00  0.00     0.255 C 
HETATM   28  N   UNL     1      39.879 -12.723  -0.258  1.00  0.00    -0.064 N 
HETATM   29  H   UNL     1      39.534 -11.911   0.273  1.00  0.00     0.280 HD
HETATM   30  C   UNL     1      41.376 -12.834   0.039  1.00  0.00     0.255 C 
HETATM   31  C   UNL     1      41.606 -13.052   1.549  1.00  0.00     0.150 C 
BRANCH  28  32
HETATM   32  C   UNL     1      39.619 -12.429  -1.716  1.00  0.00     0.275 C 
BRANCH  32  33
HETATM   33  C   UNL     1      39.210 -13.639  -2.514  1.00  0.00    -0.011 A 
HETATM   34  C   UNL     1      40.151 -14.443  -3.181  1.00  0.00     0.042 A 
HETATM   35 CL   UNL     1      41.837 -14.065  -3.139  1.00  0.00    -0.084 Cl
HETATM   36  C   UNL     1      39.745 -15.555  -3.923  1.00  0.00     0.024 A 
HETATM   37  C   UNL     1      38.393 -15.879  -4.007  1.00  0.00     0.002 A 
HETATM   38  C   UNL     1      37.447 -15.094  -3.352  1.00  0.00     0.001 A 
HETATM   39  C   UNL     1      37.850 -13.983  -2.607  1.00  0.00     0.010 A 
ENDBRANCH  32  33
ENDBRANCH  28  32
ENDBRANCH   4  25
TORSDOF 9
ENDMDL
MODEL 8
REMARK VINA RESULT:      -8.5      5.854     10.079
REMARK  9 active torsions:
REMARK  status: ('A' for Active; 'I' for Inactive)
REMARK    1  A    between atoms: C_4  and  O_5 
REMARK    2  A    between atoms: O_5  and  C_6 
REMARK    3  A    between atoms: C_6  and  C_7 
REMARK       I    between atoms: C_7  and  N_8 
REMARK    4  A    between atoms: N_8  and  C_9 
REMARK    5  A    between atoms: C_9  and  N_10 
REMARK    6  A    between atoms: N_10  and  C_11 
REMARK    7  A    between atoms: C_14  and  N_15 
REMARK    8  A    between atoms: N_18  and  C_20 
REMARK    9  A    between atoms: C_20  and  C_21 
ROOT
HETATM    1  C   UNL     1      40.158 -10.906   5.705  1.00  0.00     0.034 A 
HETATM    2  C   UNL     1      40.334 -11.211   4.360  1.00  0.00     0.032 A 
HETATM    3  C   UNL     1      41.383 -12.045   3.944  1.00  0.00     0.031 A 
HETATM    4  C   UNL     1      42.265 -12.627   4.859  1.00  0.00     0.030 A 
HETATM    5  C   UNL     1      42.102 -12.269   6.206  1.00  0.00     0.031 A 
HETATM    6  C   UNL     1      41.081 -11.406   6.623  1.00  0.00     0.032 A 
ENDROOT
BRANCH   1   7
HETATM    7  N   UNL     1      39.146 -10.058   6.192  1.00  0.00    -0.333 N 
HETATM    8  H   UNL     1      38.207 -10.459   6.195  1.00  0.00     0.168 HD
BRANCH   7   9
HETATM    9  C   UNL     1      39.176  -8.729   6.548  1.00  0.00     0.178 C 
HETATM   10  S   UNL     1      39.045  -7.385   5.561  1.00  0.00    -0.040 SA
BRANCH   9  11
HETATM   11  N   UNL     1      39.295  -8.493   7.906  1.00  0.00    -0.302 N 
HETATM   12  C   UNL     1      38.976  -9.327   8.971  1.00  0.00     0.248 C 
HETATM   13  O   UNL     1      38.378 -10.395   8.849  1.00  0.00    -0.271 OA
HETATM   14  H   UNL     1      39.685  -7.586   8.144  1.00  0.00     0.171 HD
BRANCH  12  15
HETATM   15  C   UNL     1      39.464  -8.792  10.313  1.00  0.00     0.278 C 
BRANCH  15  16
HETATM   16  O   UNL     1      39.672  -9.837  11.253  1.00  0.00    -0.342 OA
BRANCH  16  17
HETATM   17  C   UNL     1      40.849  -9.830  11.953  1.00  0.00     0.070 A 
HETATM   18  C   UNL     1      40.995  -9.552  13.314  1.00  0.00     0.043 A 
HETATM   19  C   UNL     1      42.260  -9.594  13.919  1.00  0.00    -0.059 A 
HETATM   20  C   UNL     1      42.415  -9.275  15.378  1.00  0.00     0.048 C 
HETATM   21  C   UNL     1      43.384  -9.885  13.138  1.00  0.00     0.013 A 
HETATM   22  C   UNL     1      43.254 -10.162  11.774  1.00  0.00    -0.059 A 
HETATM   23  C   UNL     1      41.982 -10.121  11.189  1.00  0.00     0.043 A 
HETATM   24  C   UNL     1      44.472 -10.456  10.948  1.00  0.00     0.048 C 
ENDBRANCH  16  17
ENDBRANCH  15  16
ENDBRANCH  12  15
ENDBRANCH   9  11
ENDBRANCH   7   9
ENDBRANCH   1   7
BRANCH   4  25
HETATM   25  N   UNL     1      43.287 -13.510   4.502  1.00  0.00    -0.378 N 
HETATM   26  C   UNL     1      43.299 -14.131   3.167  1.00  0.00     0.150 C 
HETATM   27  C   UNL     1      42.566 -15.489   3.142  1.00  0.00     0.255 C 
HETATM   28  N   UNL     1      43.056 -16.403   4.263  1.00  0.00    -0.064 N 
HETATM   29  H   UNL     1      44.052 -16.594   4.090  1.00  0.00     0.280 HD
HETATM   30  C   UNL     1      42.975 -15.705   5.622  1.00  0.00     0.255 C 
HETATM   31  C   UNL     1      43.770 -14.383   5.592  1.00  0.00     0.150 C 
BRANCH  28  32
HETATM   32  C   UNL     1      42.355 -17.741   4.279  1.00  0.00     0.275 C 
BRANCH  32  33
HETATM   33  C   UNL     1      43.177 -18.862   3.700  1.00  0.00    -0.011 A 
HETATM   34  C   UNL     1      44.188 -19.501   4.437  1.00  0.00     0.042 A 
HETATM   35 CL   UNL     1      44.560 -19.011   6.053  1.00  0.00    -0.084 Cl
HETATM   36  C   UNL     1      44.944 -20.531   3.874  1.00  0.00     0.024 A 
HETATM   37  C   UNL     1      44.698 -20.937   2.564  1.00  0.00     0.002 A 
HETATM   38  C   UNL     1      43.699 -20.317   1.819  1.00  0.00     0.001 A 
HETATM   39  C   UNL     1      42.940 -19.287   2.381  1.00  0.00     0.010 A 
ENDBRANCH  32  33
ENDBRANCH  28  32
ENDBRANCH   4  25
TORSDOF 9
ENDMDL
MODEL 9
REMARK VINA RESULT:      -8.5      2.623      3.096
REMARK  9 active torsions:
REMARK  status: ('A' for Active; 'I' for Inactive)
REMARK    1  A    between atoms: C_4  and  O_5 
REMARK    2  A    between atoms: O_5  and  C_6 
REMARK    3  A    between atoms: C_6  and  C_7 
REMARK       I    between atoms: C_7  and  N_8 
REMARK    4  A    between atoms: N_8  and  C_9 
REMARK    5  A    between atoms: C_9  and  N_10 
REMARK    6  A    between atoms: N_10  and  C_11 
REMARK    7  A    between atoms: C_14  and  N_15 
REMARK    8  A    between atoms: N_18  and  C_20 
REMARK    9  A    between atoms: C_20  and  C_21 
ROOT
HETATM    1  C   UNL     1      42.273 -14.439   5.264  1.00  0.00     0.034 A 
HETATM    2  C   UNL     1      42.743 -13.840   4.100  1.00  0.00     0.032 A 
HETATM    3  C   UNL     1      42.120 -14.081   2.866  1.00  0.00     0.031 A 
HETATM    4  C   UNL     1      40.991 -14.897   2.762  1.00  0.00     0.030 A 
HETATM    5  C   UNL     1      40.561 -15.532   3.938  1.00  0.00     0.031 A 
HETATM    6  C   UNL     1      41.203 -15.327   5.165  1.00  0.00     0.032 A 
ENDROOT
BRANCH   1   7
HETATM    7  N   UNL     1      42.863 -14.265   6.530  1.00  0.00    -0.333 N 
HETATM    8  H   UNL     1      42.246 -13.879   7.247  1.00  0.00     0.168 HD
BRANCH   7   9
HETATM    9  C   UNL     1      44.168 -14.404   6.945  1.00  0.00     0.178 C 
HETATM   10  S   UNL     1      45.138 -13.280   7.717  1.00  0.00    -0.040 SA
BRANCH   9  11
HETATM   11  N   UNL     1      44.721 -15.650   6.718  1.00  0.00    -0.302 N 
HETATM   12  C   UNL     1      44.289 -16.895   7.161  1.00  0.00     0.248 C 
HETATM   13  O   UNL     1      43.384 -17.053   7.979  1.00  0.00    -0.271 OA
HETATM   14  H   UNL     1      45.551 -15.643   6.133  1.00  0.00     0.171 HD
BRANCH  12  15
HETATM   15  C   UNL     1      45.037 -18.052   6.511  1.00  0.00     0.278 C 
BRANCH  15  16
HETATM   16  O   UNL     1      44.149 -18.997   5.931  1.00  0.00    -0.342 OA
BRANCH  16  17
HETATM   17  C   UNL     1      44.102 -19.063   4.565  1.00  0.00     0.070 A 
HETATM   18  C   UNL     1      43.903 -17.988   3.695  1.00  0.00     0.043 A 
HETATM   19  C   UNL     1      43.893 -18.186   2.307  1.00  0.00    -0.059 A 
HETATM   20  C   UNL     1      43.659 -17.032   1.376  1.00  0.00     0.048 C 
HETATM   21  C   UNL     1      44.051 -19.480   1.797  1.00  0.00     0.013 A 
HETATM   22  C   UNL     1      44.247 -20.567   2.656  1.00  0.00    -0.059 A 
HETATM   23  C   UNL     1      44.261 -20.348   4.039  1.00  0.00     0.043 A 
HETATM   24  C   UNL     1      44.398 -21.950   2.093  1.00  0.00     0.048 C 
ENDBRANCH  16  17
ENDBRANCH  15  16
ENDBRANCH  12  15
ENDBRANCH   9  11
ENDBRANCH   7   9
ENDBRANCH   1   7
BRANCH   4  25
HETATM   25  N   UNL     1      40.299 -15.121   1.569  1.00  0.00    -0.378 N 
HETATM   26  C   UNL     1      40.927 -14.804   0.275  1.00  0.00     0.150 C 
HETATM   27  C   UNL     1      40.613 -13.367  -0.196  1.00  0.00     0.255 C 
HETATM   28  N   UNL     1      39.114 -13.083  -0.141  1.00  0.00    -0.064 N 
HETATM   29  H   UNL     1      38.655 -13.726  -0.802  1.00  0.00     0.280 HD
HETATM   30  C   UNL     1      38.540 -13.397   1.242  1.00  0.00     0.255 C 
HETATM   31  C   UNL     1      38.846 -14.859   1.628  1.00  0.00     0.150 C 
BRANCH  28  32
HETATM   32  C   UNL     1      38.765 -11.683  -0.587  1.00  0.00     0.275 C 
BRANCH  32  33
HETATM   33  C   UNL     1      37.652 -11.629  -1.600  1.00  0.00    -0.011 A 
HETATM   34  C   UNL     1      36.412 -11.032  -1.313  1.00  0.00     0.042 A 
HETATM   35 CL   UNL     1      36.091 -10.344   0.240  1.00  0.00    -0.084 Cl
HETATM   36  C   UNL     1      35.393 -11.005  -2.267  1.00  0.00     0.024 A 
HETATM   37  C   UNL     1      35.599 -11.574  -3.522  1.00  0.00     0.002 A 
HETATM   38  C   UNL     1      36.821 -12.169  -3.824  1.00  0.00     0.001 A 
HETATM   39  C   UNL     1      37.843 -12.196  -2.872  1.00  0.00     0.010 A 
ENDBRANCH  32  33
ENDBRANCH  28  32
ENDBRANCH   4  25
TORSDOF 9
ENDMDL
MODEL 10
REMARK VINA RESULT:      -8.5      1.357      2.083
REMARK  9 active torsions:
REMARK  status: ('A' for Active; 'I' for Inactive)
REMARK    1  A    between atoms: C_4  and  O_5 
REMARK    2  A    between atoms: O_5  and  C_6 
REMARK    3  A    between atoms: C_6  and  C_7 
REMARK       I    between atoms: C_7  and  N_8 
REMARK    4  A    between atoms: N_8  and  C_9 
REMARK    5  A    between atoms: C_9  and  N_10 
REMARK    6  A    between atoms: N_10  and  C_11 
REMARK    7  A    between atoms: C_14  and  N_15 
REMARK    8  A    between atoms: N_18  and  C_20 
REMARK    9  A    between atoms: C_20  and  C_21 
ROOT
HETATM    1  C   UNL     1      42.271 -14.380   4.938  1.00  0.00     0.034 A 
HETATM    2  C   UNL     1      42.937 -13.671   3.944  1.00  0.00     0.032 A 
HETATM    3  C   UNL     1      42.455 -13.657   2.626  1.00  0.00     0.031 A 
HETATM    4  C   UNL     1      41.277 -14.318   2.269  1.00  0.00     0.030 A 
HETATM    5  C   UNL     1      40.646 -15.068   3.274  1.00  0.00     0.031 A 
HETATM    6  C   UNL     1      41.144 -15.118   4.582  1.00  0.00     0.032 A 
ENDROOT
BRANCH   1   7
HETATM    7  N   UNL     1      42.710 -14.460   6.273  1.00  0.00    -0.333 N 
HETATM    8  H   UNL     1      41.983 -14.327   6.979  1.00  0.00     0.168 HD
BRANCH   7   9
HETATM    9  C   UNL     1      43.977 -14.561   6.802  1.00  0.00     0.178 C 
HETATM   10  S   UNL     1      44.819 -13.431   7.703  1.00  0.00    -0.040 SA
BRANCH   9  11
HETATM   11  N   UNL     1      44.605 -15.773   6.582  1.00  0.00    -0.302 N 
HETATM   12  C   UNL     1      44.223 -17.045   6.992  1.00  0.00     0.248 C 
HETATM   13  O   UNL     1      43.297 -17.264   7.772  1.00  0.00    -0.271 OA
HETATM   14  H   UNL     1      45.454 -15.713   6.029  1.00  0.00     0.171 HD
BRANCH  12  15
HETATM   15  C   UNL     1      45.057 -18.152   6.357  1.00  0.00     0.278 C 
BRANCH  15  16
HETATM   16  O   UNL     1      44.248 -19.220   5.885  1.00  0.00    -0.342 OA
BRANCH  16  17
HETATM   17  C   UNL     1      44.169 -19.401   4.530  1.00  0.00     0.070 A 
HETATM   18  C   UNL     1      44.274 -20.619   3.855  1.00  0.00     0.043 A 
HETATM   19  C   UNL     1      44.158 -20.673   2.459  1.00  0.00    -0.059 A 
HETATM   20  C   UNL     1      44.290 -21.982   1.735  1.00  0.00     0.048 C 
HETATM   21  C   UNL     1      43.970 -19.487   1.739  1.00  0.00     0.013 A 
HETATM   22  C   UNL     1      43.867 -18.259   2.401  1.00  0.00    -0.059 A 
HETATM   23  C   UNL     1      43.978 -18.226   3.797  1.00  0.00     0.043 A 
HETATM   24  C   UNL     1      43.682 -16.995   1.614  1.00  0.00     0.048 C 
ENDBRANCH  16  17
ENDBRANCH  15  16
ENDBRANCH  12  15
ENDBRANCH   9  11
ENDBRANCH   7   9
ENDBRANCH   1   7
BRANCH   4  25
HETATM   25  N   UNL     1      40.724 -14.285   0.987  1.00  0.00    -0.378 N 
HETATM   26  C   UNL     1      41.594 -14.348  -0.200  1.00  0.00     0.150 C 
HETATM   27  C   UNL     1      42.009 -12.947  -0.700  1.00  0.00     0.255 C 
HETATM   28  N   UNL     1      40.794 -12.036  -0.861  1.00  0.00    -0.064 N 
HETATM   29  H   UNL     1      40.193 -12.451  -1.586  1.00  0.00     0.280 HD
HETATM   30  C   UNL     1      39.963 -11.989   0.422  1.00  0.00     0.255 C 
HETATM   31  C   UNL     1      39.540 -13.414   0.837  1.00  0.00     0.150 C 
BRANCH  28  32
HETATM   32  C   UNL     1      41.159 -10.651  -1.341  1.00  0.00     0.275 C 
BRANCH  32  33
HETATM   33  C   UNL     1      41.203 -10.523  -2.841  1.00  0.00    -0.011 A 
HETATM   34  C   UNL     1      40.033 -10.477  -3.619  1.00  0.00     0.042 A 
HETATM   35 CL   UNL     1      38.470 -10.593  -2.887  1.00  0.00    -0.084 Cl
HETATM   36  C   UNL     1      40.100 -10.369  -5.009  1.00  0.00     0.024 A 
HETATM   37  C   UNL     1      41.339 -10.303  -5.642  1.00  0.00     0.002 A 
HETATM   38  C   UNL     1      42.509 -10.345  -4.888  1.00  0.00     0.001 A 
HETATM   39  C   UNL     1      42.444 -10.452  -3.497  1.00  0.00     0.010 A 
ENDBRANCH  32  33
ENDBRANCH  28  32
ENDBRANCH   4  25
TORSDOF 9
ENDMDL
