MODEL 1
REMARK VINA RESULT:      -8.7      0.000      0.000
REMARK  4 active torsions:
REMARK  status: ('A' for Active; 'I' for Inactive)
REMARK    1  A    between atoms: C_6  and  C_7 
REMARK    2  A    between atoms: C_7  and  C_8 
REMARK    3  A    between atoms: N_10  and  C_11 
REMARK    4  A    between atoms: C_19  and  C_20 
ROOT
HETATM    1  C   UNL     1      41.742 -16.296   3.801  1.00  0.00     0.149 A 
HETATM    2  N   UNL     1      42.109 -17.361   3.093  1.00  0.00    -0.150 NA
HETATM    3  N   UNL     1      43.008 -17.984   3.901  1.00  0.00    -0.218 N 
HETATM    4  C   UNL     1      43.244 -17.164   5.007  1.00  0.00     0.136 A 
HETATM    5  N   UNL     1      42.407 -16.137   4.982  1.00  0.00    -0.216 NA
ENDROOT
BRANCH   1   6
HETATM    6  C   UNL     1      40.736 -15.324   3.288  1.00  0.00     0.087 C 
BRANCH   6   7
HETATM    7  C   UNL     1      40.082 -15.734   1.949  1.00  0.00    -0.004 C 
HETATM    8  C   UNL     1      40.942 -15.448   0.705  1.00  0.00     0.032 C 
HETATM    9  C   UNL     1      41.071 -13.961   0.397  1.00  0.00     0.234 C 
HETATM   10  N   UNL     1      39.691 -13.371   0.228  1.00  0.00    -0.075 N 
HETATM   11  C   UNL     1      39.757 -11.922  -0.186  1.00  0.00     0.269 C 
HETATM   12  H   UNL     1      39.241 -13.863  -0.557  1.00  0.00     0.279 HD
HETATM   13  C   UNL     1      38.815 -13.562   1.440  1.00  0.00     0.234 C 
HETATM   14  C   UNL     1      38.713 -15.049   1.774  1.00  0.00     0.032 C 
ENDBRANCH   6   7
ENDBRANCH   1   6
BRANCH   3  15
HETATM   15  C   UNL     1      43.519 -19.261   3.536  1.00  0.00     0.062 A 
HETATM   16  C   UNL     1      44.143 -20.104   4.463  1.00  0.00     0.058 A 
HETATM   17  C   UNL     1      44.630 -21.354   4.057  1.00  0.00     0.074 A 
HETATM   18 CL   UNL     1      45.395 -22.364   5.222  1.00  0.00    -0.081 Cl
HETATM   19  C   UNL     1      44.485 -21.768   2.737  1.00  0.00     0.138 A 
HETATM   20  F   UNL     1      44.948 -22.960   2.337  1.00  0.00    -0.204 F 
HETATM   21  C   UNL     1      43.846 -20.952   1.813  1.00  0.00     0.046 A 
HETATM   22  C   UNL     1      43.355 -19.705   2.211  1.00  0.00     0.035 A 
ENDBRANCH   3  15
BRANCH   4  23
HETATM   23  C   UNL     1      44.354 -17.307   6.011  1.00  0.00     0.084 C 
HETATM   24  C   UNL     1      44.649 -15.972   6.700  1.00  0.00     0.244 C 
HETATM   25  N   UNL     1      43.560 -15.859   7.724  1.00  0.00    -0.074 N 
HETATM   26  H   UNL     1      43.811 -15.249   8.515  1.00  0.00     0.277 HD
HETATM   27  H   UNL     1      42.743 -15.434   7.253  1.00  0.00     0.277 HD
HETATM   28  C   UNL     1      43.179 -17.245   8.144  1.00  0.00     0.233 C 
HETATM   29  C   UNL     1      43.937 -18.173   7.198  1.00  0.00     0.041 C 
ENDBRANCH   4  23
TORSDOF 4
ENDMDL
MODEL 2
REMARK VINA RESULT:      -8.6      3.996      7.585
REMARK  4 active torsions:
REMARK  status: ('A' for Active; 'I' for Inactive)
REMARK    1  A    between atoms: C_6  and  C_7 
REMARK    2  A    between atoms: C_7  and  C_8 
REMARK    3  A    between atoms: N_10  and  C_11 
REMARK    4  A    between atoms: C_19  and  C_20 
ROOT
HETATM    1  C   UNL     1      41.469 -17.042   3.413  1.00  0.00     0.149 A 
HETATM    2  N   UNL     1      40.804 -16.832   2.280  1.00  0.00    -0.150 NA
HETATM    3  N   UNL     1      40.322 -15.570   2.425  1.00  0.00    -0.218 N 
HETATM    4  C   UNL     1      40.606 -15.139   3.723  1.00  0.00     0.136 A 
HETATM    5  N   UNL     1      41.380 -16.030   4.325  1.00  0.00    -0.216 NA
ENDROOT
BRANCH   1   6
HETATM    6  C   UNL     1      42.184 -18.322   3.676  1.00  0.00     0.087 C 
BRANCH   6   7
HETATM    7  C   UNL     1      43.722 -18.225   3.561  1.00  0.00    -0.004 C 
HETATM    8  C   UNL     1      44.355 -19.251   2.603  1.00  0.00     0.032 C 
HETATM    9  C   UNL     1      44.302 -20.678   3.135  1.00  0.00     0.234 C 
HETATM   10  N   UNL     1      44.982 -20.728   4.482  1.00  0.00    -0.075 N 
HETATM   11  C   UNL     1      45.057 -22.138   5.012  1.00  0.00     0.269 C 
HETATM   12  H   UNL     1      45.960 -20.433   4.344  1.00  0.00     0.279 HD
HETATM   13  C   UNL     1      44.368 -19.790   5.489  1.00  0.00     0.234 C 
HETATM   14  C   UNL     1      44.387 -18.363   4.944  1.00  0.00     0.032 C 
ENDBRANCH   6   7
ENDBRANCH   1   6
BRANCH   3  15
HETATM   15  C   UNL     1      39.668 -14.934   1.333  1.00  0.00     0.062 A 
HETATM   16  C   UNL     1      40.333 -14.641   0.137  1.00  0.00     0.058 A 
HETATM   17  C   UNL     1      39.647 -14.015  -0.913  1.00  0.00     0.074 A 
HETATM   18 CL   UNL     1      40.496 -13.666  -2.369  1.00  0.00    -0.081 Cl
HETATM   19  C   UNL     1      38.301 -13.692  -0.777  1.00  0.00     0.138 A 
HETATM   20  F   UNL     1      37.635 -13.092  -1.772  1.00  0.00    -0.204 F 
HETATM   21  C   UNL     1      37.622 -13.999   0.396  1.00  0.00     0.046 A 
HETATM   22  C   UNL     1      38.299 -14.627   1.446  1.00  0.00     0.035 A 
ENDBRANCH   3  15
BRANCH   4  23
HETATM   23  C   UNL     1      40.031 -13.934   4.417  1.00  0.00     0.084 C 
HETATM   24  C   UNL     1      40.280 -13.997   5.926  1.00  0.00     0.244 C 
HETATM   25  N   UNL     1      41.707 -13.557   6.062  1.00  0.00    -0.074 N 
HETATM   26  H   UNL     1      41.923 -13.170   6.992  1.00  0.00     0.277 HD
HETATM   27  H   UNL     1      42.298 -14.396   5.931  1.00  0.00     0.277 HD
HETATM   28  C   UNL     1      42.004 -12.607   4.943  1.00  0.00     0.233 C 
HETATM   29  C   UNL     1      40.774 -12.655   4.041  1.00  0.00     0.041 C 
ENDBRANCH   4  23
TORSDOF 4
ENDMDL
MODEL 3
REMARK VINA RESULT:      -8.3      1.996      2.586
REMARK  4 active torsions:
REMARK  status: ('A' for Active; 'I' for Inactive)
REMARK    1  A    between atoms: C_6  and  C_7 
REMARK    2  A    between atoms: C_7  and  C_8 
REMARK    3  A    between atoms: N_10  and  C_11 
REMARK    4  A    between atoms: C_19  and  C_20 
ROOT
HETATM    1  C   UNL     1      42.363 -15.465   1.810  1.00  0.00     0.149 A 
HETATM    2  N   UNL     1      43.012 -16.622   1.707  1.00  0.00    -0.150 NA
HETATM    3  N   UNL     1      43.131 -17.034   2.997  1.00  0.00    -0.218 N 
HETATM    4  C   UNL     1      42.669 -16.011   3.828  1.00  0.00     0.136 A 
HETATM    5  N   UNL     1      42.128 -15.053   3.090  1.00  0.00    -0.216 NA
ENDROOT
BRANCH   1   6
HETATM    6  C   UNL     1      42.001 -14.661   0.610  1.00  0.00     0.087 C 
BRANCH   6   7
HETATM    7  C   UNL     1      40.755 -15.175  -0.147  1.00  0.00    -0.004 C 
HETATM    8  C   UNL     1      41.025 -15.602  -1.602  1.00  0.00     0.032 C 
HETATM    9  C   UNL     1      41.327 -14.427  -2.524  1.00  0.00     0.234 C 
HETATM   10  N   UNL     1      40.177 -13.450  -2.469  1.00  0.00    -0.075 N 
HETATM   11  C   UNL     1      40.369 -12.316  -3.445  1.00  0.00     0.269 C 
HETATM   12  H   UNL     1      39.334 -13.949  -2.787  1.00  0.00     0.279 HD
HETATM   13  C   UNL     1      39.901 -12.941  -1.077  1.00  0.00     0.234 C 
HETATM   14  C   UNL     1      39.633 -14.119  -0.141  1.00  0.00     0.032 C 
ENDBRANCH   6   7
ENDBRANCH   1   6
BRANCH   3  15
HETATM   15  C   UNL     1      43.653 -18.327   3.279  1.00  0.00     0.062 A 
HETATM   16  C   UNL     1      43.600 -19.370   2.346  1.00  0.00     0.058 A 
HETATM   17  C   UNL     1      44.129 -20.627   2.669  1.00  0.00     0.074 A 
HETATM   18 CL   UNL     1      44.046 -21.888   1.500  1.00  0.00    -0.081 Cl
HETATM   19  C   UNL     1      44.718 -20.843   3.911  1.00  0.00     0.138 A 
HETATM   20  F   UNL     1      45.225 -22.041   4.232  1.00  0.00    -0.204 F 
HETATM   21  C   UNL     1      44.798 -19.810   4.837  1.00  0.00     0.046 A 
HETATM   22  C   UNL     1      44.276 -18.552   4.520  1.00  0.00     0.035 A 
ENDBRANCH   3  15
BRANCH   4  23
HETATM   23  C   UNL     1      42.862 -15.905   5.316  1.00  0.00     0.084 C 
HETATM   24  C   UNL     1      42.675 -14.463   5.793  1.00  0.00     0.244 C 
HETATM   25  N   UNL     1      41.186 -14.301   5.844  1.00  0.00    -0.074 N 
HETATM   26  H   UNL     1      40.881 -13.563   6.493  1.00  0.00     0.277 HD
HETATM   27  H   UNL     1      40.878 -14.026   4.896  1.00  0.00     0.277 HD
HETATM   28  C   UNL     1      40.589 -15.641   6.149  1.00  0.00     0.233 C 
HETATM   29  C   UNL     1      41.755 -16.623   6.083  1.00  0.00     0.041 C 
ENDBRANCH   4  23
TORSDOF 4
ENDMDL
MODEL 4
REMARK VINA RESULT:      -8.3      3.027      4.688
REMARK  4 active torsions:
REMARK  status: ('A' for Active; 'I' for Inactive)
REMARK    1  A    between atoms: C_6  and  C_7 
REMARK    2  A    between atoms: C_7  and  C_8 
REMARK    3  A    between atoms: N_10  and  C_11 
REMARK    4  A    between atoms: C_19  and  C_20 
ROOT
HETATM    1  C   UNL     1      42.296 -15.085   4.758  1.00  0.00     0.149 A 
HETATM    2  N   UNL     1      42.809 -16.131   5.401  1.00  0.00    -0.150 NA
HETATM    3  N   UNL     1      42.800 -17.114   4.463  1.00  0.00    -0.218 N 
HETATM    4  C   UNL     1      42.134 -16.636   3.333  1.00  0.00     0.136 A 
HETATM    5  N   UNL     1      41.873 -15.346   3.487  1.00  0.00    -0.216 NA
ENDROOT
BRANCH   1   6
HETATM    6  C   UNL     1      42.135 -13.761   5.421  1.00  0.00     0.087 C 
BRANCH   6   7
HETATM    7  C   UNL     1      41.101 -12.833   4.743  1.00  0.00    -0.004 C 
HETATM    8  C   UNL     1      41.407 -11.330   4.880  1.00  0.00     0.032 C 
HETATM    9  C   UNL     1      41.217 -10.809   6.299  1.00  0.00     0.234 C 
HETATM   10  N   UNL     1      39.804 -11.100   6.746  1.00  0.00    -0.075 N 
HETATM   11  C   UNL     1      39.522 -10.510   8.106  1.00  0.00     0.269 C 
HETATM   12  H   UNL     1      39.170 -10.613   6.097  1.00  0.00     0.279 HD
HETATM   13  C   UNL     1      39.459 -12.566   6.697  1.00  0.00     0.234 C 
HETATM   14  C   UNL     1      39.683 -13.101   5.283  1.00  0.00     0.032 C 
ENDBRANCH   6   7
ENDBRANCH   1   6
BRANCH   3  15
HETATM   15  C   UNL     1      43.419 -18.364   4.745  1.00  0.00     0.062 A 
HETATM   16  C   UNL     1      43.233 -19.028   5.964  1.00  0.00     0.058 A 
HETATM   17  C   UNL     1      43.862 -20.259   6.195  1.00  0.00     0.074 A 
HETATM   18 CL   UNL     1      43.614 -21.046   7.705  1.00  0.00    -0.081 Cl
HETATM   19  C   UNL     1      44.665 -20.832   5.214  1.00  0.00     0.138 A 
HETATM   20  F   UNL     1      45.274 -22.007   5.425  1.00  0.00    -0.204 F 
HETATM   21  C   UNL     1      44.839 -20.196   3.992  1.00  0.00     0.046 A 
HETATM   22  C   UNL     1      44.211 -18.969   3.752  1.00  0.00     0.035 A 
ENDBRANCH   3  15
BRANCH   4  23
HETATM   23  C   UNL     1      41.643 -17.449   2.167  1.00  0.00     0.084 C 
HETATM   24  C   UNL     1      40.219 -17.047   1.776  1.00  0.00     0.244 C 
HETATM   25  N   UNL     1      40.416 -15.789   0.984  1.00  0.00    -0.074 N 
HETATM   26  H   UNL     1      39.643 -15.598   0.330  1.00  0.00     0.277 HD
HETATM   27  H   UNL     1      40.450 -15.007   1.660  1.00  0.00     0.277 HD
HETATM   28  C   UNL     1      41.751 -15.874   0.312  1.00  0.00     0.233 C 
HETATM   29  C   UNL     1      42.410 -17.125   0.887  1.00  0.00     0.041 C 
ENDBRANCH   4  23
TORSDOF 4
ENDMDL
MODEL 5
REMARK VINA RESULT:      -8.1      2.733      4.618
REMARK  4 active torsions:
REMARK  status: ('A' for Active; 'I' for Inactive)
REMARK    1  A    between atoms: C_6  and  C_7 
REMARK    2  A    between atoms: C_7  and  C_8 
REMARK    3  A    between atoms: N_10  and  C_11 
REMARK    4  A    between atoms: C_19  and  C_20 
ROOT
HETATM    1  C   UNL     1      42.663 -14.633   4.188  1.00  0.00     0.149 A 
HETATM    2  N   UNL     1      43.275 -15.662   4.768  1.00  0.00    -0.150 NA
HETATM    3  N   UNL     1      43.005 -16.701   3.934  1.00  0.00    -0.218 N 
HETATM    4  C   UNL     1      42.107 -16.259   2.960  1.00  0.00     0.136 A 
HETATM    5  N   UNL     1      41.939 -14.950   3.075  1.00  0.00    -0.216 NA
ENDROOT
BRANCH   1   6
HETATM    6  C   UNL     1      42.715 -13.262   4.770  1.00  0.00     0.087 C 
BRANCH   6   7
HETATM    7  C   UNL     1      41.780 -13.051   5.982  1.00  0.00    -0.004 C 
HETATM    8  C   UNL     1      40.350 -13.588   5.785  1.00  0.00     0.032 C 
HETATM    9  C   UNL     1      39.538 -12.775   4.785  1.00  0.00     0.234 C 
HETATM   10  N   UNL     1      39.500 -11.334   5.236  1.00  0.00    -0.075 N 
HETATM   11  C   UNL     1      38.619 -10.499   4.341  1.00  0.00     0.269 C 
HETATM   12  H   UNL     1      39.051 -11.315   6.163  1.00  0.00     0.279 HD
HETATM   13  C   UNL     1      40.871 -10.726   5.387  1.00  0.00     0.234 C 
HETATM   14  C   UNL     1      41.701 -11.560   6.362  1.00  0.00     0.032 C 
ENDBRANCH   6   7
ENDBRANCH   1   6
BRANCH   3  15
HETATM   15  C   UNL     1      43.626 -17.962   4.155  1.00  0.00     0.062 A 
HETATM   16  C   UNL     1      43.751 -18.917   3.139  1.00  0.00     0.058 A 
HETATM   17  C   UNL     1      44.372 -20.146   3.403  1.00  0.00     0.074 A 
HETATM   18 CL   UNL     1      44.506 -21.298   2.132  1.00  0.00    -0.081 Cl
HETATM   19  C   UNL     1      44.877 -20.419   4.670  1.00  0.00     0.138 A 
HETATM   20  F   UNL     1      45.470 -21.590   4.936  1.00  0.00    -0.204 F 
HETATM   21  C   UNL     1      44.781 -19.470   5.681  1.00  0.00     0.046 A 
HETATM   22  C   UNL     1      44.166 -18.241   5.424  1.00  0.00     0.035 A 
ENDBRANCH   3  15
BRANCH   4  23
HETATM   23  C   UNL     1      41.321 -17.117   2.006  1.00  0.00     0.084 C 
HETATM   24  C   UNL     1      39.916 -16.552   1.788  1.00  0.00     0.244 C 
HETATM   25  N   UNL     1      40.136 -15.437   0.810  1.00  0.00    -0.074 N 
HETATM   26  H   UNL     1      39.294 -15.207   0.263  1.00  0.00     0.277 HD
HETATM   27  H   UNL     1      40.387 -14.597   1.358  1.00  0.00     0.277 HD
HETATM   28  C   UNL     1      41.314 -15.799  -0.042  1.00  0.00     0.233 C 
HETATM   29  C   UNL     1      41.893 -17.061   0.592  1.00  0.00     0.041 C 
ENDBRANCH   4  23
TORSDOF 4
ENDMDL
MODEL 6
REMARK VINA RESULT:      -8.1      1.310      1.763
REMARK  4 active torsions:
REMARK  status: ('A' for Active; 'I' for Inactive)
REMARK    1  A    between atoms: C_6  and  C_7 
REMARK    2  A    between atoms: C_7  and  C_8 
REMARK    3  A    between atoms: N_10  and  C_11 
REMARK    4  A    between atoms: C_19  and  C_20 
ROOT
HETATM    1  C   UNL     1      41.556 -16.375   2.111  1.00  0.00     0.149 A 
HETATM    2  N   UNL     1      42.112 -17.518   1.717  1.00  0.00    -0.150 NA
HETATM    3  N   UNL     1      42.714 -17.981   2.845  1.00  0.00    -0.218 N 
HETATM    4  C   UNL     1      42.609 -16.999   3.833  1.00  0.00     0.136 A 
HETATM    5  N   UNL     1      41.829 -16.019   3.400  1.00  0.00    -0.216 NA
ENDROOT
BRANCH   1   6
HETATM    6  C   UNL     1      40.764 -15.527   1.176  1.00  0.00     0.087 C 
BRANCH   6   7
HETATM    7  C   UNL     1      41.601 -14.860   0.060  1.00  0.00    -0.004 C 
HETATM    8  C   UNL     1      41.778 -13.339   0.220  1.00  0.00     0.032 C 
HETATM    9  C   UNL     1      40.492 -12.559  -0.025  1.00  0.00     0.234 C 
HETATM   10  N   UNL     1      39.973 -12.885  -1.405  1.00  0.00    -0.075 N 
HETATM   11  C   UNL     1      38.758 -12.059  -1.748  1.00  0.00     0.269 C 
HETATM   12  H   UNL     1      40.698 -12.603  -2.081  1.00  0.00     0.279 HD
HETATM   13  C   UNL     1      39.717 -14.356  -1.607  1.00  0.00     0.234 C 
HETATM   14  C   UNL     1      40.995 -15.146  -1.327  1.00  0.00     0.032 C 
ENDBRANCH   6   7
ENDBRANCH   1   6
BRANCH   3  15
HETATM   15  C   UNL     1      43.301 -19.277   2.850  1.00  0.00     0.062 A 
HETATM   16  C   UNL     1      43.989 -19.778   3.962  1.00  0.00     0.058 A 
HETATM   17  C   UNL     1      44.548 -21.062   3.921  1.00  0.00     0.074 A 
HETATM   18 CL   UNL     1      45.390 -21.645   5.305  1.00  0.00    -0.081 Cl
HETATM   19  C   UNL     1      44.414 -21.850   2.783  1.00  0.00     0.138 A 
HETATM   20  F   UNL     1      44.947 -23.078   2.731  1.00  0.00    -0.204 F 
HETATM   21  C   UNL     1      43.713 -21.375   1.681  1.00  0.00     0.046 A 
HETATM   22  C   UNL     1      43.149 -20.096   1.716  1.00  0.00     0.035 A 
ENDBRANCH   3  15
BRANCH   4  23
HETATM   23  C   UNL     1      43.357 -16.951   5.137  1.00  0.00     0.084 C 
HETATM   24  C   UNL     1      43.369 -15.533   5.712  1.00  0.00     0.244 C 
HETATM   25  N   UNL     1      42.013 -15.397   6.335  1.00  0.00    -0.074 N 
HETATM   26  H   UNL     1      41.981 -14.691   7.084  1.00  0.00     0.277 HD
HETATM   27  H   UNL     1      41.365 -15.088   5.591  1.00  0.00     0.277 HD
HETATM   28  C   UNL     1      41.576 -16.757   6.787  1.00  0.00     0.233 C 
HETATM   29  C   UNL     1      42.627 -17.718   6.237  1.00  0.00     0.041 C 
ENDBRANCH   4  23
TORSDOF 4
ENDMDL
MODEL 7
REMARK VINA RESULT:      -7.8      2.715      4.487
REMARK  4 active torsions:
REMARK  status: ('A' for Active; 'I' for Inactive)
REMARK    1  A    between atoms: C_6  and  C_7 
REMARK    2  A    between atoms: C_7  and  C_8 
REMARK    3  A    between atoms: N_10  and  C_11 
REMARK    4  A    between atoms: C_19  and  C_20 
ROOT
HETATM    1  C   UNL     1      40.724 -15.223   3.963  1.00  0.00     0.149 A 
HETATM    2  N   UNL     1      41.042 -15.689   5.168  1.00  0.00    -0.150 NA
HETATM    3  N   UNL     1      41.867 -16.734   4.894  1.00  0.00    -0.218 N 
HETATM    4  C   UNL     1      41.881 -16.931   3.511  1.00  0.00     0.136 A 
HETATM    5  N   UNL     1      41.219 -15.948   2.919  1.00  0.00    -0.216 NA
ENDROOT
BRANCH   1   6
HETATM    6  C   UNL     1      39.830 -14.043   3.792  1.00  0.00     0.087 C 
BRANCH   6   7
HETATM    7  C   UNL     1      40.468 -12.697   4.207  1.00  0.00    -0.004 C 
HETATM    8  C   UNL     1      39.720 -11.452   3.697  1.00  0.00     0.032 C 
HETATM    9  C   UNL     1      39.844 -11.256   2.191  1.00  0.00     0.234 C 
HETATM   10  N   UNL     1      41.306 -11.176   1.824  1.00  0.00    -0.075 N 
HETATM   11  C   UNL     1      41.492 -10.873   0.358  1.00  0.00     0.269 C 
HETATM   12  H   UNL     1      41.706 -10.370   2.325  1.00  0.00     0.279 HD
HETATM   13  C   UNL     1      42.087 -12.396   2.239  1.00  0.00     0.234 C 
HETATM   14  C   UNL     1      41.936 -12.618   3.744  1.00  0.00     0.032 C 
ENDBRANCH   6   7
ENDBRANCH   1   6
BRANCH   3  15
HETATM   15  C   UNL     1      42.536 -17.403   5.957  1.00  0.00     0.062 A 
HETATM   16  C   UNL     1      42.846 -18.767   5.900  1.00  0.00     0.058 A 
HETATM   17  C   UNL     1      43.507 -19.382   6.972  1.00  0.00     0.074 A 
HETATM   18 CL   UNL     1      43.871 -21.061   6.869  1.00  0.00    -0.081 Cl
HETATM   19  C   UNL     1      43.868 -18.640   8.092  1.00  0.00     0.138 A 
HETATM   20  F   UNL     1      44.498 -19.217   9.124  1.00  0.00    -0.204 F 
HETATM   21  C   UNL     1      43.588 -17.281   8.152  1.00  0.00     0.046 A 
HETATM   22  C   UNL     1      42.932 -16.660   7.085  1.00  0.00     0.035 A 
ENDBRANCH   3  15
BRANCH   4  23
HETATM   23  C   UNL     1      42.424 -18.127   2.778  1.00  0.00     0.084 C 
HETATM   24  C   UNL     1      41.991 -18.117   1.311  1.00  0.00     0.244 C 
HETATM   25  N   UNL     1      42.930 -17.137   0.675  1.00  0.00    -0.074 N 
HETATM   26  H   UNL     1      43.049 -17.288  -0.337  1.00  0.00     0.277 HD
HETATM   27  H   UNL     1      42.520 -16.196   0.802  1.00  0.00     0.277 HD
HETATM   28  C   UNL     1      44.221 -17.181   1.434  1.00  0.00     0.233 C 
HETATM   29  C   UNL     1      43.944 -18.067   2.645  1.00  0.00     0.041 C 
ENDBRANCH   4  23
TORSDOF 4
ENDMDL
MODEL 8
REMARK VINA RESULT:      -7.8      4.648      9.073
REMARK  4 active torsions:
REMARK  status: ('A' for Active; 'I' for Inactive)
REMARK    1  A    between atoms: C_6  and  C_7 
REMARK    2  A    between atoms: C_7  and  C_8 
REMARK    3  A    between atoms: N_10  and  C_11 
REMARK    4  A    between atoms: C_19  and  C_20 
ROOT
HETATM    1  C   UNL     1      41.104 -15.785   0.551  1.00  0.00     0.149 A 
HETATM    2  N   UNL     1      40.186 -15.109   1.238  1.00  0.00    -0.150 NA
HETATM    3  N   UNL     1      39.994 -13.989   0.491  1.00  0.00    -0.218 N 
HETATM    4  C   UNL     1      40.931 -13.987  -0.545  1.00  0.00     0.136 A 
HETATM    5  N   UNL     1      41.586 -15.139  -0.551  1.00  0.00    -0.216 NA
ENDROOT
BRANCH   1   6
HETATM    6  C   UNL     1      41.608 -17.109   1.011  1.00  0.00     0.087 C 
BRANCH   6   7
HETATM    7  C   UNL     1      43.135 -17.161   1.245  1.00  0.00    -0.004 C 
HETATM    8  C   UNL     1      43.683 -18.565   1.561  1.00  0.00     0.032 C 
HETATM    9  C   UNL     1      43.270 -19.072   2.937  1.00  0.00     0.234 C 
HETATM   10  N   UNL     1      43.725 -18.083   3.984  1.00  0.00    -0.075 N 
HETATM   11  C   UNL     1      43.440 -18.584   5.378  1.00  0.00     0.269 C 
HETATM   12  H   UNL     1      44.751 -18.016   3.919  1.00  0.00     0.279 HD
HETATM   13  C   UNL     1      43.170 -16.698   3.769  1.00  0.00     0.234 C 
HETATM   14  C   UNL     1      43.551 -16.201   2.375  1.00  0.00     0.032 C 
ENDBRANCH   6   7
ENDBRANCH   1   6
BRANCH   3  15
HETATM   15  C   UNL     1      38.959 -13.078   0.840  1.00  0.00     0.062 A 
HETATM   16  C   UNL     1      39.071 -12.207   1.930  1.00  0.00     0.058 A 
HETATM   17  C   UNL     1      38.025 -11.325   2.234  1.00  0.00     0.074 A 
HETATM   18 CL   UNL     1      38.195 -10.270   3.584  1.00  0.00    -0.081 Cl
HETATM   19  C   UNL     1      36.877 -11.301   1.450  1.00  0.00     0.138 A 
HETATM   20  F   UNL     1      35.869 -10.464   1.732  1.00  0.00    -0.204 F 
HETATM   21  C   UNL     1      36.762 -12.143   0.351  1.00  0.00     0.046 A 
HETATM   22  C   UNL     1      37.803 -13.023   0.039  1.00  0.00     0.035 A 
ENDBRANCH   3  15
BRANCH   4  23
HETATM   23  C   UNL     1      41.276 -12.831  -1.443  1.00  0.00     0.084 C 
HETATM   24  C   UNL     1      42.630 -13.047  -2.124  1.00  0.00     0.244 C 
HETATM   25  N   UNL     1      42.310 -13.991  -3.244  1.00  0.00    -0.074 N 
HETATM   26  H   UNL     1      42.987 -13.942  -4.019  1.00  0.00     0.277 HD
HETATM   27  H   UNL     1      42.354 -14.949  -2.856  1.00  0.00     0.277 HD
HETATM   28  C   UNL     1      40.899 -13.733  -3.673  1.00  0.00     0.233 C 
HETATM   29  C   UNL     1      40.342 -12.750  -2.648  1.00  0.00     0.041 C 
ENDBRANCH   4  23
TORSDOF 4
ENDMDL
MODEL 9
REMARK VINA RESULT:      -7.6      4.438      8.344
REMARK  4 active torsions:
REMARK  status: ('A' for Active; 'I' for Inactive)
REMARK    1  A    between atoms: C_6  and  C_7 
REMARK    2  A    between atoms: C_7  and  C_8 
REMARK    3  A    between atoms: N_10  and  C_11 
REMARK    4  A    between atoms: C_19  and  C_20 
ROOT
HETATM    1  C   UNL     1      41.990 -16.710   3.681  1.00  0.00     0.149 A 
HETATM    2  N   UNL     1      41.800 -15.847   4.676  1.00  0.00    -0.150 NA
HETATM    3  N   UNL     1      41.343 -14.733   4.045  1.00  0.00    -0.218 N 
HETATM    4  C   UNL     1      41.425 -14.945   2.667  1.00  0.00     0.136 A 
HETATM    5  N   UNL     1      41.768 -16.203   2.433  1.00  0.00    -0.216 NA
ENDROOT
BRANCH   1   6
HETATM    6  C   UNL     1      42.481 -18.095   3.928  1.00  0.00     0.087 C 
BRANCH   6   7
HETATM    7  C   UNL     1      44.006 -18.269   3.750  1.00  0.00    -0.004 C 
HETATM    8  C   UNL     1      44.411 -19.201   2.594  1.00  0.00     0.032 C 
HETATM    9  C   UNL     1      44.091 -20.666   2.868  1.00  0.00     0.234 C 
HETATM   10  N   UNL     1      44.773 -21.089   4.147  1.00  0.00    -0.075 N 
HETATM   11  C   UNL     1      44.582 -22.561   4.414  1.00  0.00     0.269 C 
HETATM   12  H   UNL     1      45.787 -20.962   4.011  1.00  0.00     0.279 HD
HETATM   13  C   UNL     1      44.371 -20.254   5.335  1.00  0.00     0.234 C 
HETATM   14  C   UNL     1      44.657 -18.780   5.050  1.00  0.00     0.032 C 
ENDBRANCH   6   7
ENDBRANCH   1   6
BRANCH   3  15
HETATM   15  C   UNL     1      40.887 -13.625   4.813  1.00  0.00     0.062 A 
HETATM   16  C   UNL     1      41.451 -12.350   4.687  1.00  0.00     0.058 A 
HETATM   17  C   UNL     1      40.967 -11.289   5.464  1.00  0.00     0.074 A 
HETATM   18 CL   UNL     1      41.686  -9.735   5.287  1.00  0.00    -0.081 Cl
HETATM   19  C   UNL     1      39.917 -11.492   6.353  1.00  0.00     0.138 A 
HETATM   20  F   UNL     1      39.447 -10.486   7.102  1.00  0.00    -0.204 F 
HETATM   21  C   UNL     1      39.331 -12.746   6.470  1.00  0.00     0.046 A 
HETATM   22  C   UNL     1      39.807 -13.810   5.696  1.00  0.00     0.035 A 
ENDBRANCH   3  15
BRANCH   4  23
HETATM   23  C   UNL     1      41.294 -13.905   1.588  1.00  0.00     0.084 C 
HETATM   24  C   UNL     1      41.501 -14.521   0.203  1.00  0.00     0.244 C 
HETATM   25  N   UNL     1      40.185 -15.177  -0.089  1.00  0.00    -0.074 N 
HETATM   26  H   UNL     1      40.007 -15.296  -1.096  1.00  0.00     0.277 HD
HETATM   27  H   UNL     1      40.215 -16.120   0.334  1.00  0.00     0.277 HD
HETATM   28  C   UNL     1      39.117 -14.394   0.612  1.00  0.00     0.233 C 
HETATM   29  C   UNL     1      39.864 -13.382   1.476  1.00  0.00     0.041 C 
ENDBRANCH   4  23
TORSDOF 4
ENDMDL
MODEL 10
REMARK VINA RESULT:      -7.6      5.034      9.485
REMARK  4 active torsions:
REMARK  status: ('A' for Active; 'I' for Inactive)
REMARK    1  A    between atoms: C_6  and  C_7 
REMARK    2  A    between atoms: C_7  and  C_8 
REMARK    3  A    between atoms: N_10  and  C_11 
REMARK    4  A    between atoms: C_19  and  C_20 
ROOT
HETATM    1  C   UNL     1      41.490 -15.716  -0.042  1.00  0.00     0.149 A 
HETATM    2  N   UNL     1      41.977 -14.485   0.090  1.00  0.00    -0.150 NA
HETATM    3  N   UNL     1      41.496 -13.836  -1.004  1.00  0.00    -0.218 N 
HETATM    4  C   UNL     1      40.857 -14.771  -1.822  1.00  0.00     0.136 A 
HETATM    5  N   UNL     1      40.794 -15.936  -1.195  1.00  0.00    -0.216 NA
ENDROOT
BRANCH   1   6
HETATM    6  C   UNL     1      41.762 -16.777   0.968  1.00  0.00     0.087 C 
BRANCH   6   7
HETATM    7  C   UNL     1      43.263 -17.010   1.256  1.00  0.00    -0.004 C 
HETATM    8  C   UNL     1      43.648 -18.485   1.477  1.00  0.00     0.032 C 
HETATM    9  C   UNL     1      43.120 -19.049   2.791  1.00  0.00     0.234 C 
HETATM   10  N   UNL     1      43.625 -18.197   3.931  1.00  0.00    -0.075 N 
HETATM   11  C   UNL     1      43.224 -18.770   5.268  1.00  0.00     0.269 C 
HETATM   12  H   UNL     1      44.654 -18.236   3.911  1.00  0.00     0.279 HD
HETATM   13  C   UNL     1      43.227 -16.749   3.808  1.00  0.00     0.234 C 
HETATM   14  C   UNL     1      43.723 -16.189   2.476  1.00  0.00     0.032 C 
ENDBRANCH   6   7
ENDBRANCH   1   6
BRANCH   3  15
HETATM   15  C   UNL     1      41.692 -12.433  -1.135  1.00  0.00     0.062 A 
HETATM   16  C   UNL     1      40.803 -11.503  -0.581  1.00  0.00     0.058 A 
HETATM   17  C   UNL     1      41.039 -10.130  -0.734  1.00  0.00     0.074 A 
HETATM   18 CL   UNL     1      39.925  -9.015  -0.043  1.00  0.00    -0.081 Cl
HETATM   19  C   UNL     1      42.160  -9.683  -1.426  1.00  0.00     0.138 A 
HETATM   20  F   UNL     1      42.394  -8.373  -1.582  1.00  0.00    -0.204 F 
HETATM   21  C   UNL     1      43.062 -10.595  -1.960  1.00  0.00     0.046 A 
HETATM   22  C   UNL     1      42.836 -11.966  -1.808  1.00  0.00     0.035 A 
ENDBRANCH   3  15
BRANCH   4  23
HETATM   23  C   UNL     1      40.423 -14.570  -3.248  1.00  0.00     0.084 C 
HETATM   24  C   UNL     1      39.737 -15.823  -3.796  1.00  0.00     0.244 C 
HETATM   25  N   UNL     1      38.353 -15.741  -3.226  1.00  0.00    -0.074 N 
HETATM   26  H   UNL     1      37.656 -16.260  -3.779  1.00  0.00     0.277 HD
HETATM   27  H   UNL     1      38.385 -16.171  -2.286  1.00  0.00     0.277 HD
HETATM   28  C   UNL     1      38.011 -14.292  -3.057  1.00  0.00     0.233 C 
HETATM   29  C   UNL     1      39.303 -13.538  -3.359  1.00  0.00     0.041 C 
ENDBRANCH   4  23
TORSDOF 4
ENDMDL
