MODEL 1
REMARK VINA RESULT:      -8.9      0.000      0.000
REMARK  6 active torsions:
REMARK  status: ('A' for Active; 'I' for Inactive)
REMARK    1  A    between atoms: C_2  and  C_3 
REMARK    2  A    between atoms: C_3  and  C_4 
REMARK    3  A    between atoms: C_7  and  C_8 
REMARK    4  A    between atoms: C_14  and  C_15 
REMARK    5  A    between atoms: C_18  and  N_19 
REMARK       I    between atoms: N_19  and  C_20 
REMARK    6  A    between atoms: C_28  and  N_29 
ROOT
HETATM    1  C   UNL     1      40.843 -16.342   2.371  1.00  0.00     0.099 A 
HETATM    2  N   UNL     1      39.718 -16.763   1.762  1.00  0.00    -0.172 NA
HETATM    3  N   UNL     1      38.868 -15.722   1.860  1.00  0.00    -0.256 N 
HETATM    4  H   UNL     1      37.943 -15.805   1.456  1.00  0.00     0.191 HD
HETATM    5  C   UNL     1      39.396 -14.673   2.539  1.00  0.00     0.175 A 
HETATM    6  C   UNL     1      40.674 -15.025   2.883  1.00  0.00     0.040 A 
HETATM    7  C   UNL     1      41.521 -14.076   3.666  1.00  0.00     0.106 A 
HETATM    8  C   UNL     1      40.748 -12.793   3.970  1.00  0.00     0.081 A 
HETATM    9  C   UNL     1      41.454 -11.773   4.673  1.00  0.00     0.100 C 
HETATM   10  N   UNL     1      42.018 -10.939   5.247  1.00  0.00    -0.191 NA
HETATM   11  C   UNL     1      39.469 -12.581   3.550  1.00  0.00     0.140 A 
HETATM   12  O   UNL     1      38.754 -13.546   2.817  1.00  0.00    -0.279 OA
ENDROOT
BRANCH   7  13
HETATM   13  C   UNL     1      41.977 -14.837   4.904  1.00  0.00    -0.044 A 
HETATM   14  C   UNL     1      43.345 -14.870   5.222  1.00  0.00     0.010 A 
HETATM   15  C   UNL     1      43.826 -15.661   6.270  1.00  0.00     0.030 A 
HETATM   16  C   UNL     1      42.949 -16.421   7.040  1.00  0.00     0.034 A 
HETATM   17  C   UNL     1      41.576 -16.335   6.780  1.00  0.00     0.030 A 
HETATM   18  C   UNL     1      41.093 -15.550   5.726  1.00  0.00     0.010 A 
BRANCH  16  19
HETATM   19  N   UNL     1      43.361 -17.304   8.059  1.00  0.00    -0.328 N 
HETATM   20  C   UNL     1      44.140 -18.439   7.923  1.00  0.00     0.218 C 
HETATM   21  C   UNL     1      44.304 -19.173   9.231  1.00  0.00     0.117 C 
HETATM   22  O   UNL     1      44.674 -18.857   6.902  1.00  0.00    -0.274 OA
HETATM   23  H   UNL     1      42.997 -17.111   8.984  1.00  0.00     0.169 HD
ENDBRANCH  16  19
ENDBRANCH   7  13
BRANCH  11  24
HETATM   24  N   UNL     1      38.737 -11.436   3.770  1.00  0.00    -0.282 NA
HETATM   25  H   UNL     1      37.879 -11.349   3.231  1.00  0.00     0.126 HD
HETATM   26  H   UNL     1      39.314 -10.599   3.749  1.00  0.00     0.126 HD
ENDBRANCH  11  24
BRANCH   1  27
HETATM   27  C   UNL     1      42.002 -17.213   2.521  1.00  0.00    -0.005 A 
HETATM   28  C   UNL     1      42.143 -18.030   3.647  1.00  0.00     0.014 A 
HETATM   29  C   UNL     1      43.166 -18.983   3.708  1.00  0.00     0.008 A 
HETATM   30  C   UNL     1      44.071 -19.133   2.650  1.00  0.00    -0.058 A 
HETATM   31  C   UNL     1      43.963 -18.256   1.557  1.00  0.00     0.008 A 
HETATM   32  C   UNL     1      42.939 -17.309   1.490  1.00  0.00     0.014 A 
BRANCH  30  33
HETATM   33  C   UNL     1      45.163 -20.185   2.610  1.00  0.00     0.042 C 
BRANCH  33  34
HETATM   34  C   UNL     1      44.745 -21.652   2.367  1.00  0.00    -0.019 C 
HETATM   35  C   UNL     1      43.431 -21.742   1.583  1.00  0.00     0.010 C 
HETATM   36  C   UNL     1      44.577 -22.382   3.705  1.00  0.00     0.010 C 
ENDBRANCH  33  34
ENDBRANCH  30  33
ENDBRANCH   1  27
TORSDOF 6
ENDMDL
MODEL 2
REMARK VINA RESULT:      -8.8      1.821      2.982
REMARK  6 active torsions:
REMARK  status: ('A' for Active; 'I' for Inactive)
REMARK    1  A    between atoms: C_2  and  C_3 
REMARK    2  A    between atoms: C_3  and  C_4 
REMARK    3  A    between atoms: C_7  and  C_8 
REMARK    4  A    between atoms: C_14  and  C_15 
REMARK    5  A    between atoms: C_18  and  N_19 
REMARK       I    between atoms: N_19  and  C_20 
REMARK    6  A    between atoms: C_28  and  N_29 
ROOT
HETATM    1  C   UNL     1      39.025 -14.089   1.249  1.00  0.00     0.099 A 
HETATM    2  N   UNL     1      37.784 -14.280   0.764  1.00  0.00    -0.172 NA
HETATM    3  N   UNL     1      37.129 -13.137   1.047  1.00  0.00    -0.256 N 
HETATM    4  H   UNL     1      36.161 -13.043   0.762  1.00  0.00     0.191 HD
HETATM    5  C   UNL     1      37.894 -12.246   1.727  1.00  0.00     0.175 A 
HETATM    6  C   UNL     1      39.131 -12.815   1.874  1.00  0.00     0.040 A 
HETATM    7  C   UNL     1      40.205 -12.080   2.606  1.00  0.00     0.106 A 
HETATM    8  C   UNL     1      39.687 -10.730   3.102  1.00  0.00     0.081 A 
HETATM    9  C   UNL     1      40.625  -9.896   3.779  1.00  0.00     0.100 C 
HETATM   10  N   UNL     1      41.379  -9.211   4.334  1.00  0.00    -0.191 NA
HETATM   11  C   UNL     1      38.419 -10.291   2.869  1.00  0.00     0.140 A 
HETATM   12  O   UNL     1      37.477 -11.066   2.167  1.00  0.00    -0.279 OA
ENDROOT
BRANCH   7  13
HETATM   13  C   UNL     1      40.676 -13.011   3.715  1.00  0.00    -0.044 A 
HETATM   14  C   UNL     1      42.001 -13.475   3.702  1.00  0.00     0.010 A 
HETATM   15  C   UNL     1      42.442 -14.433   4.622  1.00  0.00     0.030 A 
HETATM   16  C   UNL     1      41.576 -14.933   5.591  1.00  0.00     0.034 A 
HETATM   17  C   UNL     1      40.275 -14.419   5.660  1.00  0.00     0.030 A 
HETATM   18  C   UNL     1      39.828 -13.467   4.736  1.00  0.00     0.010 A 
BRANCH  16  19
HETATM   19  N   UNL     1      41.918 -15.955   6.499  1.00  0.00    -0.328 N 
HETATM   20  C   UNL     1      43.146 -16.169   7.100  1.00  0.00     0.218 C 
HETATM   21  C   UNL     1      43.148 -17.413   7.953  1.00  0.00     0.117 C 
HETATM   22  O   UNL     1      44.151 -15.473   7.007  1.00  0.00    -0.274 OA
HETATM   23  H   UNL     1      41.195 -16.638   6.688  1.00  0.00     0.169 HD
ENDBRANCH  16  19
ENDBRANCH   7  13
BRANCH  11  24
HETATM   24  N   UNL     1      37.910  -9.075   3.266  1.00  0.00    -0.282 NA
HETATM   25  H   UNL     1      37.810  -8.942   4.269  1.00  0.00     0.126 HD
HETATM   26  H   UNL     1      37.079  -8.814   2.741  1.00  0.00     0.126 HD
ENDBRANCH  11  24
BRANCH   1  27
HETATM   27  C   UNL     1      40.040 -15.134   1.183  1.00  0.00    -0.005 A 
HETATM   28  C   UNL     1      41.122 -15.027   0.304  1.00  0.00     0.014 A 
HETATM   29  C   UNL     1      42.176 -15.946   0.362  1.00  0.00     0.008 A 
HETATM   30  C   UNL     1      42.166 -16.992   1.293  1.00  0.00    -0.058 A 
HETATM   31  C   UNL     1      41.038 -17.131   2.120  1.00  0.00     0.008 A 
HETATM   32  C   UNL     1      39.987 -16.212   2.069  1.00  0.00     0.014 A 
BRANCH  30  33
HETATM   33  C   UNL     1      43.297 -17.986   1.465  1.00  0.00     0.042 C 
BRANCH  33  34
HETATM   34  C   UNL     1      43.133 -19.092   2.532  1.00  0.00    -0.019 C 
HETATM   35  C   UNL     1      43.955 -18.788   3.789  1.00  0.00     0.010 C 
HETATM   36  C   UNL     1      43.577 -20.445   1.963  1.00  0.00     0.010 C 
ENDBRANCH  33  34
ENDBRANCH  30  33
ENDBRANCH   1  27
TORSDOF 6
ENDMDL
MODEL 3
REMARK VINA RESULT:      -8.7      2.639      5.579
REMARK  6 active torsions:
REMARK  status: ('A' for Active; 'I' for Inactive)
REMARK    1  A    between atoms: C_2  and  C_3 
REMARK    2  A    between atoms: C_3  and  C_4 
REMARK    3  A    between atoms: C_7  and  C_8 
REMARK    4  A    between atoms: C_14  and  C_15 
REMARK    5  A    between atoms: C_18  and  N_19 
REMARK       I    between atoms: N_19  and  C_20 
REMARK    6  A    between atoms: C_28  and  N_29 
ROOT
HETATM    1  C   UNL     1      42.961 -14.874   5.378  1.00  0.00     0.099 A 
HETATM    2  N   UNL     1      44.042 -14.696   6.161  1.00  0.00    -0.172 NA
HETATM    3  N   UNL     1      43.814 -13.527   6.792  1.00  0.00    -0.256 N 
HETATM    4  H   UNL     1      44.502 -13.186   7.454  1.00  0.00     0.191 HD
HETATM    5  C   UNL     1      42.652 -12.941   6.412  1.00  0.00     0.175 A 
HETATM    6  C   UNL     1      42.062 -13.779   5.504  1.00  0.00     0.040 A 
HETATM    7  C   UNL     1      40.761 -13.398   4.878  1.00  0.00     0.106 A 
HETATM    8  C   UNL     1      40.294 -12.038   5.396  1.00  0.00     0.081 A 
HETATM    9  C   UNL     1      39.035 -11.570   4.918  1.00  0.00     0.100 C 
HETATM   10  N   UNL     1      38.014 -11.178   4.532  1.00  0.00    -0.191 NA
HETATM   11  C   UNL     1      40.993 -11.316   6.317  1.00  0.00     0.140 A 
HETATM   12  O   UNL     1      42.217 -11.764   6.845  1.00  0.00    -0.279 OA
ENDROOT
BRANCH   7  13
HETATM   13  C   UNL     1      40.984 -13.447   3.372  1.00  0.00    -0.044 A 
HETATM   14  C   UNL     1      40.256 -14.367   2.602  1.00  0.00     0.010 A 
HETATM   15  C   UNL     1      40.520 -14.541   1.239  1.00  0.00     0.030 A 
HETATM   16  C   UNL     1      41.503 -13.782   0.609  1.00  0.00     0.034 A 
HETATM   17  C   UNL     1      42.181 -12.808   1.351  1.00  0.00     0.030 A 
HETATM   18  C   UNL     1      41.925 -12.638   2.717  1.00  0.00     0.010 A 
BRANCH  16  19
HETATM   19  N   UNL     1      41.885 -13.952  -0.738  1.00  0.00    -0.328 N 
HETATM   20  C   UNL     1      41.175 -13.579  -1.866  1.00  0.00     0.218 C 
HETATM   21  C   UNL     1      41.872 -13.998  -3.136  1.00  0.00     0.117 C 
HETATM   22  O   UNL     1      40.111 -12.972  -1.908  1.00  0.00    -0.274 OA
HETATM   23  H   UNL     1      42.751 -14.453  -0.891  1.00  0.00     0.169 HD
ENDBRANCH  16  19
ENDBRANCH   7  13
BRANCH  11  24
HETATM   24  N   UNL     1      40.606 -10.102   6.839  1.00  0.00    -0.282 NA
HETATM   25  H   UNL     1      41.332  -9.573   7.315  1.00  0.00     0.126 HD
HETATM   26  H   UNL     1      39.741 -10.168   7.371  1.00  0.00     0.126 HD
ENDBRANCH  11  24
BRANCH   1  27
HETATM   27  C   UNL     1      42.847 -16.020   4.484  1.00  0.00    -0.005 A 
HETATM   28  C   UNL     1      43.501 -16.032   3.248  1.00  0.00     0.014 A 
HETATM   29  C   UNL     1      43.526 -17.195   2.470  1.00  0.00     0.008 A 
HETATM   30  C   UNL     1      42.893 -18.365   2.907  1.00  0.00    -0.058 A 
HETATM   31  C   UNL     1      42.177 -18.318   4.116  1.00  0.00     0.008 A 
HETATM   32  C   UNL     1      42.156 -17.160   4.898  1.00  0.00     0.014 A 
BRANCH  30  33
HETATM   33  C   UNL     1      42.930 -19.682   2.157  1.00  0.00     0.042 C 
BRANCH  33  34
HETATM   34  C   UNL     1      44.254 -20.478   2.160  1.00  0.00    -0.019 C 
HETATM   35  C   UNL     1      44.057 -21.902   1.629  1.00  0.00     0.010 C 
HETATM   36  C   UNL     1      44.823 -20.551   3.582  1.00  0.00     0.010 C 
ENDBRANCH  33  34
ENDBRANCH  30  33
ENDBRANCH   1  27
TORSDOF 6
ENDMDL
MODEL 4
REMARK VINA RESULT:      -8.7      2.945      6.774
REMARK  6 active torsions:
REMARK  status: ('A' for Active; 'I' for Inactive)
REMARK    1  A    between atoms: C_2  and  C_3 
REMARK    2  A    between atoms: C_3  and  C_4 
REMARK    3  A    between atoms: C_7  and  C_8 
REMARK    4  A    between atoms: C_14  and  C_15 
REMARK    5  A    between atoms: C_18  and  N_19 
REMARK       I    between atoms: N_19  and  C_20 
REMARK    6  A    between atoms: C_28  and  N_29 
ROOT
HETATM    1  C   UNL     1      43.168 -18.269   2.404  1.00  0.00     0.099 A 
HETATM    2  N   UNL     1      43.846 -18.550   1.275  1.00  0.00    -0.172 NA
HETATM    3  N   UNL     1      44.577 -19.640   1.580  1.00  0.00    -0.256 N 
HETATM    4  H   UNL     1      45.171 -20.047   0.867  1.00  0.00     0.191 HD
HETATM    5  C   UNL     1      44.418 -20.037   2.867  1.00  0.00     0.175 A 
HETATM    6  C   UNL     1      43.511 -19.186   3.438  1.00  0.00     0.040 A 
HETATM    7  C   UNL     1      43.135 -19.352   4.873  1.00  0.00     0.106 A 
HETATM    8  C   UNL     1      43.894 -20.525   5.493  1.00  0.00     0.081 A 
HETATM    9  C   UNL     1      43.596 -20.832   6.853  1.00  0.00     0.100 C 
HETATM   10  N   UNL     1      43.363 -21.088   7.960  1.00  0.00    -0.191 NA
HETATM   11  C   UNL     1      44.770 -21.297   4.790  1.00  0.00     0.140 A 
HETATM   12  O   UNL     1      45.058 -21.052   3.434  1.00  0.00    -0.279 OA
ENDROOT
BRANCH   7  13
HETATM   13  C   UNL     1      43.408 -18.011   5.542  1.00  0.00    -0.044 A 
HETATM   14  C   UNL     1      44.734 -17.643   5.820  1.00  0.00     0.010 A 
HETATM   15  C   UNL     1      45.026 -16.485   6.550  1.00  0.00     0.030 A 
HETATM   16  C   UNL     1      44.001 -15.657   7.000  1.00  0.00     0.034 A 
HETATM   17  C   UNL     1      42.681 -15.976   6.662  1.00  0.00     0.030 A 
HETATM   18  C   UNL     1      42.385 -17.138   5.939  1.00  0.00     0.010 A 
BRANCH  16  19
HETATM   19  N   UNL     1      44.207 -14.520   7.807  1.00  0.00    -0.328 N 
HETATM   20  C   UNL     1      45.096 -13.482   7.587  1.00  0.00     0.218 C 
HETATM   21  C   UNL     1      45.086 -12.481   8.715  1.00  0.00     0.117 C 
HETATM   22  O   UNL     1      45.827 -13.323   6.616  1.00  0.00    -0.274 OA
HETATM   23  H   UNL     1      43.681 -14.492   8.672  1.00  0.00     0.169 HD
ENDBRANCH  16  19
ENDBRANCH   7  13
BRANCH  11  24
HETATM   24  N   UNL     1      45.457 -22.380   5.288  1.00  0.00    -0.282 NA
HETATM   25  H   UNL     1      45.656 -23.123   4.623  1.00  0.00     0.126 HD
HETATM   26  H   UNL     1      45.064 -22.718   6.163  1.00  0.00     0.126 HD
ENDBRANCH  11  24
BRANCH   1  27
HETATM   27  C   UNL     1      42.290 -17.110   2.499  1.00  0.00    -0.005 A 
HETATM   28  C   UNL     1      40.900 -17.259   2.459  1.00  0.00     0.014 A 
HETATM   29  C   UNL     1      40.062 -16.169   2.717  1.00  0.00     0.008 A 
HETATM   30  C   UNL     1      40.595 -14.907   3.011  1.00  0.00    -0.058 A 
HETATM   31  C   UNL     1      41.992 -14.754   2.975  1.00  0.00     0.008 A 
HETATM   32  C   UNL     1      42.831 -15.843   2.725  1.00  0.00     0.014 A 
BRANCH  30  33
HETATM   33  C   UNL     1      39.758 -13.694   3.367  1.00  0.00     0.042 C 
BRANCH  33  34
HETATM   34  C   UNL     1      40.178 -12.863   4.600  1.00  0.00    -0.019 C 
HETATM   35  C   UNL     1      39.978 -13.645   5.902  1.00  0.00     0.010 C 
HETATM   36  C   UNL     1      39.359 -11.568   4.667  1.00  0.00     0.010 C 
ENDBRANCH  33  34
ENDBRANCH  30  33
ENDBRANCH   1  27
TORSDOF 6
ENDMDL
MODEL 5
REMARK VINA RESULT:      -8.3      2.003      7.877
REMARK  6 active torsions:
REMARK  status: ('A' for Active; 'I' for Inactive)
REMARK    1  A    between atoms: C_2  and  C_3 
REMARK    2  A    between atoms: C_3  and  C_4 
REMARK    3  A    between atoms: C_7  and  C_8 
REMARK    4  A    between atoms: C_14  and  C_15 
REMARK    5  A    between atoms: C_18  and  N_19 
REMARK       I    between atoms: N_19  and  C_20 
REMARK    6  A    between atoms: C_28  and  N_29 
ROOT
HETATM    1  C   UNL     1      43.320 -16.936   6.883  1.00  0.00     0.099 A 
HETATM    2  N   UNL     1      43.120 -17.238   8.180  1.00  0.00    -0.172 NA
HETATM    3  N   UNL     1      43.431 -18.545   8.275  1.00  0.00    -0.256 N 
HETATM    4  H   UNL     1      43.365 -18.999   9.179  1.00  0.00     0.191 HD
HETATM    5  C   UNL     1      43.783 -19.092   7.085  1.00  0.00     0.175 A 
HETATM    6  C   UNL     1      43.733 -18.087   6.156  1.00  0.00     0.040 A 
HETATM    7  C   UNL     1      44.052 -18.380   4.727  1.00  0.00     0.106 A 
HETATM    8  C   UNL     1      44.394 -19.859   4.546  1.00  0.00     0.081 A 
HETATM    9  C   UNL     1      44.769 -20.273   3.235  1.00  0.00     0.100 C 
HETATM   10  N   UNL     1      45.072 -20.620   2.170  1.00  0.00    -0.191 NA
HETATM   11  C   UNL     1      44.410 -20.748   5.579  1.00  0.00     0.140 A 
HETATM   12  O   UNL     1      44.088 -20.369   6.896  1.00  0.00    -0.279 OA
ENDROOT
BRANCH   7  13
HETATM   13  C   UNL     1      42.847 -17.917   3.919  1.00  0.00    -0.044 A 
HETATM   14  C   UNL     1      43.056 -17.238   2.708  1.00  0.00     0.010 A 
HETATM   15  C   UNL     1      41.988 -16.679   1.998  1.00  0.00     0.030 A 
HETATM   16  C   UNL     1      40.684 -16.804   2.471  1.00  0.00     0.034 A 
HETATM   17  C   UNL     1      40.459 -17.545   3.637  1.00  0.00     0.030 A 
HETATM   18  C   UNL     1      41.526 -18.098   4.354  1.00  0.00     0.010 A 
BRANCH  16  19
HETATM   19  N   UNL     1      39.565 -16.203   1.859  1.00  0.00    -0.328 N 
HETATM   20  C   UNL     1      39.179 -14.876   1.932  1.00  0.00     0.218 C 
HETATM   21  C   UNL     1      37.879 -14.624   1.209  1.00  0.00     0.117 C 
HETATM   22  O   UNL     1      39.772 -13.958   2.489  1.00  0.00    -0.274 OA
HETATM   23  H   UNL     1      38.948 -16.828   1.356  1.00  0.00     0.169 HD
ENDBRANCH  16  19
ENDBRANCH   7  13
BRANCH  11  24
HETATM   24  N   UNL     1      44.738 -22.081   5.479  1.00  0.00    -0.282 NA
HETATM   25  H   UNL     1      44.198 -22.621   4.807  1.00  0.00     0.126 HD
HETATM   26  H   UNL     1      44.812 -22.530   6.389  1.00  0.00     0.126 HD
ENDBRANCH  11  24
BRANCH   1  27
HETATM   27  C   UNL     1      43.042 -15.605   6.357  1.00  0.00    -0.005 A 
HETATM   28  C   UNL     1      44.068 -14.809   5.839  1.00  0.00     0.014 A 
HETATM   29  C   UNL     1      43.773 -13.608   5.186  1.00  0.00     0.008 A 
HETATM   30  C   UNL     1      42.449 -13.173   5.045  1.00  0.00    -0.058 A 
HETATM   31  C   UNL     1      41.433 -13.945   5.635  1.00  0.00     0.008 A 
HETATM   32  C   UNL     1      41.724 -15.149   6.281  1.00  0.00     0.014 A 
BRANCH  30  33
HETATM   33  C   UNL     1      42.042 -11.920   4.294  1.00  0.00     0.042 C 
BRANCH  33  34
HETATM   34  C   UNL     1      40.812 -11.138   4.807  1.00  0.00    -0.019 C 
HETATM   35  C   UNL     1      40.007 -10.534   3.651  1.00  0.00     0.010 C 
HETATM   36  C   UNL     1      41.257 -10.011   5.747  1.00  0.00     0.010 C 
ENDBRANCH  33  34
ENDBRANCH  30  33
ENDBRANCH   1  27
TORSDOF 6
ENDMDL
MODEL 6
REMARK VINA RESULT:      -8.1      2.433      7.051
REMARK  6 active torsions:
REMARK  status: ('A' for Active; 'I' for Inactive)
REMARK    1  A    between atoms: C_2  and  C_3 
REMARK    2  A    between atoms: C_3  and  C_4 
REMARK    3  A    between atoms: C_7  and  C_8 
REMARK    4  A    between atoms: C_14  and  C_15 
REMARK    5  A    between atoms: C_18  and  N_19 
REMARK       I    between atoms: N_19  and  C_20 
REMARK    6  A    between atoms: C_28  and  N_29 
ROOT
HETATM    1  C   UNL     1      42.007 -16.740   1.600  1.00  0.00     0.099 A 
HETATM    2  N   UNL     1      42.758 -17.218   0.589  1.00  0.00    -0.172 NA
HETATM    3  N   UNL     1      43.699 -17.971   1.193  1.00  0.00    -0.256 N 
HETATM    4  H   UNL     1      44.384 -18.450   0.620  1.00  0.00     0.191 HD
HETATM    5  C   UNL     1      43.597 -17.957   2.545  1.00  0.00     0.175 A 
HETATM    6  C   UNL     1      42.513 -17.180   2.855  1.00  0.00     0.040 A 
HETATM    7  C   UNL     1      42.146 -16.952   4.284  1.00  0.00     0.106 A 
HETATM    8  C   UNL     1      43.125 -17.674   5.210  1.00  0.00     0.081 A 
HETATM    9  C   UNL     1      42.866 -17.583   6.609  1.00  0.00     0.100 C 
HETATM   10  N   UNL     1      42.666 -17.512   7.750  1.00  0.00    -0.191 NA
HETATM   11  C   UNL     1      44.164 -18.426   4.750  1.00  0.00     0.140 A 
HETATM   12  O   UNL     1      44.426 -18.576   3.376  1.00  0.00    -0.279 OA
ENDROOT
BRANCH   7  13
HETATM   13  C   UNL     1      42.107 -15.442   4.477  1.00  0.00    -0.044 A 
HETATM   14  C   UNL     1      40.938 -14.846   4.976  1.00  0.00     0.010 A 
HETATM   15  C   UNL     1      40.808 -13.455   5.046  1.00  0.00     0.030 A 
HETATM   16  C   UNL     1      41.850 -12.626   4.639  1.00  0.00     0.034 A 
HETATM   17  C   UNL     1      43.048 -13.212   4.211  1.00  0.00     0.030 A 
HETATM   18  C   UNL     1      43.178 -14.604   4.133  1.00  0.00     0.010 A 
BRANCH  16  19
HETATM   19  N   UNL     1      41.768 -11.219   4.602  1.00  0.00    -0.328 N 
HETATM   20  C   UNL     1      41.540 -10.362   5.664  1.00  0.00     0.218 C 
HETATM   21  C   UNL     1      41.441  -8.925   5.219  1.00  0.00     0.117 C 
HETATM   22  O   UNL     1      41.430 -10.659   6.849  1.00  0.00    -0.274 OA
HETATM   23  H   UNL     1      41.830 -10.798   3.684  1.00  0.00     0.169 HD
ENDBRANCH  16  19
ENDBRANCH   7  13
BRANCH  11  24
HETATM   24  N   UNL     1      45.056 -19.120   5.536  1.00  0.00    -0.282 NA
HETATM   25  H   UNL     1      44.672 -19.535   6.381  1.00  0.00     0.126 HD
HETATM   26  H   UNL     1      45.915 -18.599   5.697  1.00  0.00     0.126 HD
ENDBRANCH  11  24
BRANCH   1  27
HETATM   27  C   UNL     1      40.897 -15.826   1.360  1.00  0.00    -0.005 A 
HETATM   28  C   UNL     1      39.620 -16.105   1.855  1.00  0.00     0.014 A 
HETATM   29  C   UNL     1      38.601 -15.150   1.767  1.00  0.00     0.008 A 
HETATM   30  C   UNL     1      38.835 -13.902   1.175  1.00  0.00    -0.058 A 
HETATM   31  C   UNL     1      40.102 -13.663   0.615  1.00  0.00     0.008 A 
HETATM   32  C   UNL     1      41.124 -14.612   0.708  1.00  0.00     0.014 A 
BRANCH  30  33
HETATM   33  C   UNL     1      37.806 -12.791   1.101  1.00  0.00     0.042 C 
BRANCH  33  34
HETATM   34  C   UNL     1      38.201 -11.402   1.652  1.00  0.00    -0.019 C 
HETATM   35  C   UNL     1      38.448 -11.445   3.164  1.00  0.00     0.010 C 
HETATM   36  C   UNL     1      37.092 -10.384   1.358  1.00  0.00     0.010 C 
ENDBRANCH  33  34
ENDBRANCH  30  33
ENDBRANCH   1  27
TORSDOF 6
ENDMDL
MODEL 7
REMARK VINA RESULT:      -8.1      3.364      4.987
REMARK  6 active torsions:
REMARK  status: ('A' for Active; 'I' for Inactive)
REMARK    1  A    between atoms: C_2  and  C_3 
REMARK    2  A    between atoms: C_3  and  C_4 
REMARK    3  A    between atoms: C_7  and  C_8 
REMARK    4  A    between atoms: C_14  and  C_15 
REMARK    5  A    between atoms: C_18  and  N_19 
REMARK       I    between atoms: N_19  and  C_20 
REMARK    6  A    between atoms: C_28  and  N_29 
ROOT
HETATM    1  C   UNL     1      41.426 -15.864  -0.168  1.00  0.00     0.099 A 
HETATM    2  N   UNL     1      40.669 -16.539  -1.054  1.00  0.00    -0.172 NA
HETATM    3  N   UNL     1      40.422 -15.650  -2.036  1.00  0.00    -0.256 N 
HETATM    4  H   UNL     1      39.867 -15.942  -2.832  1.00  0.00     0.191 HD
HETATM    5  C   UNL     1      40.958 -14.430  -1.788  1.00  0.00     0.175 A 
HETATM    6  C   UNL     1      41.624 -14.522  -0.595  1.00  0.00     0.040 A 
HETATM    7  C   UNL     1      42.313 -13.322  -0.034  1.00  0.00     0.106 A 
HETATM    8  C   UNL     1      42.131 -12.118  -0.958  1.00  0.00     0.081 A 
HETATM    9  C   UNL     1      42.781 -10.910  -0.570  1.00  0.00     0.100 C 
HETATM   10  N   UNL     1      43.302  -9.921  -0.261  1.00  0.00    -0.191 NA
HETATM   11  C   UNL     1      41.441 -12.182  -2.132  1.00  0.00     0.140 A 
HETATM   12  O   UNL     1      40.822 -13.367  -2.571  1.00  0.00    -0.279 OA
ENDROOT
BRANCH   7  13
HETATM   13  C   UNL     1      41.748 -13.123   1.366  1.00  0.00    -0.044 A 
HETATM   14  C   UNL     1      42.603 -13.242   2.473  1.00  0.00     0.010 A 
HETATM   15  C   UNL     1      42.106 -13.199   3.780  1.00  0.00     0.030 A 
HETATM   16  C   UNL     1      40.746 -13.013   4.012  1.00  0.00     0.034 A 
HETATM   17  C   UNL     1      39.897 -12.817   2.917  1.00  0.00     0.030 A 
HETATM   18  C   UNL     1      40.390 -12.868   1.607  1.00  0.00     0.010 A 
BRANCH  16  19
HETATM   19  N   UNL     1      40.156 -13.038   5.292  1.00  0.00    -0.328 N 
HETATM   20  C   UNL     1      39.820 -11.954   6.084  1.00  0.00     0.218 C 
HETATM   21  C   UNL     1      39.281 -12.381   7.427  1.00  0.00     0.117 C 
HETATM   22  O   UNL     1      39.911 -10.766   5.796  1.00  0.00    -0.274 OA
HETATM   23  H   UNL     1      40.015 -13.956   5.695  1.00  0.00     0.169 HD
ENDBRANCH  16  19
ENDBRANCH   7  13
BRANCH  11  24
HETATM   24  N   UNL     1      41.270 -11.139  -3.014  1.00  0.00    -0.282 NA
HETATM   25  H   UNL     1      40.308 -10.862  -3.192  1.00  0.00     0.126 HD
HETATM   26  H   UNL     1      41.818 -11.258  -3.863  1.00  0.00     0.126 HD
ENDBRANCH  11  24
BRANCH   1  27
HETATM   27  C   UNL     1      41.866 -16.475   1.081  1.00  0.00    -0.005 A 
HETATM   28  C   UNL     1      43.204 -16.837   1.268  1.00  0.00     0.014 A 
HETATM   29  C   UNL     1      43.653 -17.266   2.522  1.00  0.00     0.008 A 
HETATM   30  C   UNL     1      42.775 -17.347   3.610  1.00  0.00    -0.058 A 
HETATM   31  C   UNL     1      41.419 -17.050   3.390  1.00  0.00     0.008 A 
HETATM   32  C   UNL     1      40.969 -16.616   2.141  1.00  0.00     0.014 A 
BRANCH  30  33
HETATM   33  C   UNL     1      43.197 -17.737   5.013  1.00  0.00     0.042 C 
BRANCH  33  34
HETATM   34  C   UNL     1      44.566 -18.430   5.191  1.00  0.00    -0.019 C 
HETATM   35  C   UNL     1      44.442 -19.955   5.101  1.00  0.00     0.010 C 
HETATM   36  C   UNL     1      45.173 -18.060   6.550  1.00  0.00     0.010 C 
ENDBRANCH  33  34
ENDBRANCH  30  33
ENDBRANCH   1  27
TORSDOF 6
ENDMDL
MODEL 8
REMARK VINA RESULT:      -7.9      3.543      6.317
REMARK  6 active torsions:
REMARK  status: ('A' for Active; 'I' for Inactive)
REMARK    1  A    between atoms: C_2  and  C_3 
REMARK    2  A    between atoms: C_3  and  C_4 
REMARK    3  A    between atoms: C_7  and  C_8 
REMARK    4  A    between atoms: C_14  and  C_15 
REMARK    5  A    between atoms: C_18  and  N_19 
REMARK       I    between atoms: N_19  and  C_20 
REMARK    6  A    between atoms: C_28  and  N_29 
ROOT
HETATM    1  C   UNL     1      41.902 -11.961   0.736  1.00  0.00     0.099 A 
HETATM    2  N   UNL     1      42.846 -11.087   0.338  1.00  0.00    -0.172 NA
HETATM    3  N   UNL     1      42.580 -10.870  -0.965  1.00  0.00    -0.256 N 
HETATM    4  H   UNL     1      43.166 -10.226  -1.483  1.00  0.00     0.191 HD
HETATM    5  C   UNL     1      41.531 -11.601  -1.417  1.00  0.00     0.175 A 
HETATM    6  C   UNL     1      41.055 -12.316  -0.351  1.00  0.00     0.040 A 
HETATM    7  C   UNL     1      39.898 -13.242  -0.534  1.00  0.00     0.106 A 
HETATM    8  C   UNL     1      39.426 -13.229  -1.988  1.00  0.00     0.081 A 
HETATM    9  C   UNL     1      38.291 -14.034  -2.298  1.00  0.00     0.100 C 
HETATM   10  N   UNL     1      37.371 -14.689  -2.562  1.00  0.00    -0.191 NA
HETATM   11  C   UNL     1      40.000 -12.449  -2.947  1.00  0.00     0.140 A 
HETATM   12  O   UNL     1      41.094 -11.609  -2.670  1.00  0.00    -0.279 OA
ENDROOT
BRANCH   7  13
HETATM   13  C   UNL     1      40.365 -14.607  -0.044  1.00  0.00    -0.044 A 
HETATM   14  C   UNL     1      39.832 -15.126   1.146  1.00  0.00     0.010 A 
HETATM   15  C   UNL     1      40.325 -16.310   1.704  1.00  0.00     0.030 A 
HETATM   16  C   UNL     1      41.346 -17.016   1.074  1.00  0.00     0.034 A 
HETATM   17  C   UNL     1      41.831 -16.547  -0.153  1.00  0.00     0.030 A 
HETATM   18  C   UNL     1      41.346 -15.357  -0.709  1.00  0.00     0.010 A 
BRANCH  16  19
HETATM   19  N   UNL     1      41.951 -18.171   1.611  1.00  0.00    -0.328 N 
HETATM   20  C   UNL     1      43.154 -18.251   2.289  1.00  0.00     0.218 C 
HETATM   21  C   UNL     1      43.510 -19.674   2.642  1.00  0.00     0.117 C 
HETATM   22  O   UNL     1      43.891 -17.325   2.609  1.00  0.00    -0.274 OA
HETATM   23  H   UNL     1      41.473 -19.045   1.428  1.00  0.00     0.169 HD
ENDBRANCH  16  19
ENDBRANCH   7  13
BRANCH  11  24
HETATM   24  N   UNL     1      39.598 -12.376  -4.261  1.00  0.00    -0.282 NA
HETATM   25  H   UNL     1      39.259 -11.468  -4.571  1.00  0.00     0.126 HD
HETATM   26  H   UNL     1      38.985 -13.145  -4.521  1.00  0.00     0.126 HD
ENDBRANCH  11  24
BRANCH   1  27
HETATM   27  C   UNL     1      41.877 -12.492   2.094  1.00  0.00    -0.005 A 
HETATM   28  C   UNL     1      40.857 -12.139   2.982  1.00  0.00     0.014 A 
HETATM   29  C   UNL     1      40.744 -12.777   4.222  1.00  0.00     0.008 A 
HETATM   30  C   UNL     1      41.651 -13.775   4.601  1.00  0.00    -0.058 A 
HETATM   31  C   UNL     1      42.715 -14.068   3.730  1.00  0.00     0.008 A 
HETATM   32  C   UNL     1      42.826 -13.437   2.489  1.00  0.00     0.014 A 
BRANCH  30  33
HETATM   33  C   UNL     1      41.558 -14.559   5.895  1.00  0.00     0.042 C 
BRANCH  33  34
HETATM   34  C   UNL     1      42.075 -16.016   5.897  1.00  0.00    -0.019 C 
HETATM   35  C   UNL     1      40.954 -17.011   6.212  1.00  0.00     0.010 C 
HETATM   36  C   UNL     1      43.192 -16.178   6.935  1.00  0.00     0.010 C 
ENDBRANCH  33  34
ENDBRANCH  30  33
ENDBRANCH   1  27
TORSDOF 6
ENDMDL
MODEL 9
REMARK VINA RESULT:      -7.8      2.547      3.510
REMARK  6 active torsions:
REMARK  status: ('A' for Active; 'I' for Inactive)
REMARK    1  A    between atoms: C_2  and  C_3 
REMARK    2  A    between atoms: C_3  and  C_4 
REMARK    3  A    between atoms: C_7  and  C_8 
REMARK    4  A    between atoms: C_14  and  C_15 
REMARK    5  A    between atoms: C_18  and  N_19 
REMARK       I    between atoms: N_19  and  C_20 
REMARK    6  A    between atoms: C_28  and  N_29 
ROOT
HETATM    1  C   UNL     1      39.395 -14.807   1.317  1.00  0.00     0.099 A 
HETATM    2  N   UNL     1      38.049 -14.838   1.325  1.00  0.00    -0.172 NA
HETATM    3  N   UNL     1      37.679 -13.641   0.829  1.00  0.00    -0.256 N 
HETATM    4  H   UNL     1      36.691 -13.436   0.730  1.00  0.00     0.191 HD
HETATM    5  C   UNL     1      38.735 -12.839   0.544  1.00  0.00     0.175 A 
HETATM    6  C   UNL     1      39.867 -13.553   0.836  1.00  0.00     0.040 A 
HETATM    7  C   UNL     1      41.209 -12.929   0.645  1.00  0.00     0.106 A 
HETATM    8  C   UNL     1      41.066 -11.498   0.127  1.00  0.00     0.081 A 
HETATM    9  C   UNL     1      42.275 -10.794  -0.149  1.00  0.00     0.100 C 
HETATM   10  N   UNL     1      43.253 -10.212  -0.373  1.00  0.00    -0.191 NA
HETATM   11  C   UNL     1      39.859 -10.919  -0.128  1.00  0.00     0.140 A 
HETATM   12  O   UNL     1      38.645 -11.596   0.091  1.00  0.00    -0.279 OA
ENDROOT
BRANCH   7  13
HETATM   13  C   UNL     1      41.923 -13.037   1.986  1.00  0.00    -0.044 A 
HETATM   14  C   UNL     1      43.019 -13.905   2.111  1.00  0.00     0.010 A 
HETATM   15  C   UNL     1      43.622 -14.137   3.351  1.00  0.00     0.030 A 
HETATM   16  C   UNL     1      43.159 -13.489   4.493  1.00  0.00     0.034 A 
HETATM   17  C   UNL     1      42.116 -12.564   4.366  1.00  0.00     0.030 A 
HETATM   18  C   UNL     1      41.505 -12.336   3.127  1.00  0.00     0.010 A 
BRANCH  16  19
HETATM   19  N   UNL     1      43.658 -13.728   5.790  1.00  0.00    -0.328 N 
HETATM   20  C   UNL     1      43.837 -14.953   6.409  1.00  0.00     0.218 C 
HETATM   21  C   UNL     1      44.319 -14.803   7.831  1.00  0.00     0.117 C 
HETATM   22  O   UNL     1      43.656 -16.065   5.925  1.00  0.00    -0.274 OA
HETATM   23  H   UNL     1      43.854 -12.905   6.346  1.00  0.00     0.169 HD
ENDBRANCH  16  19
ENDBRANCH   7  13
BRANCH  11  24
HETATM   24  N   UNL     1      39.673  -9.647  -0.621  1.00  0.00    -0.282 NA
HETATM   25  H   UNL     1      38.724  -9.286  -0.567  1.00  0.00     0.126 HD
HETATM   26  H   UNL     1      40.101  -9.521  -1.535  1.00  0.00     0.126 HD
ENDBRANCH  11  24
BRANCH   1  27
HETATM   27  C   UNL     1      40.187 -15.916   1.833  1.00  0.00    -0.005 A 
HETATM   28  C   UNL     1      40.897 -16.754   0.968  1.00  0.00     0.014 A 
HETATM   29  C   UNL     1      41.784 -17.709   1.475  1.00  0.00     0.008 A 
HETATM   30  C   UNL     1      41.976 -17.851   2.855  1.00  0.00    -0.058 A 
HETATM   31  C   UNL     1      41.202 -17.054   3.716  1.00  0.00     0.008 A 
HETATM   32  C   UNL     1      40.320 -16.094   3.212  1.00  0.00     0.014 A 
BRANCH  30  33
HETATM   33  C   UNL     1      42.966 -18.814   3.480  1.00  0.00     0.042 C 
BRANCH  33  34
HETATM   34  C   UNL     1      43.896 -19.609   2.536  1.00  0.00    -0.019 C 
HETATM   35  C   UNL     1      43.162 -20.785   1.883  1.00  0.00     0.010 C 
HETATM   36  C   UNL     1      45.103 -20.147   3.315  1.00  0.00     0.010 C 
ENDBRANCH  33  34
ENDBRANCH  30  33
ENDBRANCH   1  27
TORSDOF 6
ENDMDL
MODEL 10
REMARK VINA RESULT:      -7.7      2.328      3.376
REMARK  6 active torsions:
REMARK  status: ('A' for Active; 'I' for Inactive)
REMARK    1  A    between atoms: C_2  and  C_3 
REMARK    2  A    between atoms: C_3  and  C_4 
REMARK    3  A    between atoms: C_7  and  C_8 
REMARK    4  A    between atoms: C_14  and  C_15 
REMARK    5  A    between atoms: C_18  and  N_19 
REMARK       I    between atoms: N_19  and  C_20 
REMARK    6  A    between atoms: C_28  and  N_29 
ROOT
HETATM    1  C   UNL     1      42.091 -14.608   4.494  1.00  0.00     0.099 A 
HETATM    2  N   UNL     1      40.879 -14.105   4.195  1.00  0.00    -0.172 NA
HETATM    3  N   UNL     1      40.753 -13.026   4.993  1.00  0.00    -0.256 N 
HETATM    4  H   UNL     1      39.907 -12.471   4.936  1.00  0.00     0.191 HD
HETATM    5  C   UNL     1      41.819 -12.849   5.812  1.00  0.00     0.175 A 
HETATM    6  C   UNL     1      42.714 -13.844   5.520  1.00  0.00     0.040 A 
HETATM    7  C   UNL     1      43.999 -13.933   6.276  1.00  0.00     0.106 A 
HETATM    8  C   UNL     1      44.084 -12.820   7.321  1.00  0.00     0.081 A 
HETATM    9  C   UNL     1      45.285 -12.753   8.087  1.00  0.00     0.100 C 
HETATM   10  N   UNL     1      46.256 -12.692   8.718  1.00  0.00    -0.191 NA
HETATM   11  C   UNL     1      43.106 -11.886   7.491  1.00  0.00     0.140 A 
HETATM   12  O   UNL     1      41.926 -11.893   6.726  1.00  0.00    -0.279 OA
ENDROOT
BRANCH   7  13
HETATM   13  C   UNL     1      44.052 -15.339   6.859  1.00  0.00    -0.044 A 
HETATM   14  C   UNL     1      44.974 -16.261   6.338  1.00  0.00     0.010 A 
HETATM   15  C   UNL     1      44.971 -17.598   6.748  1.00  0.00     0.030 A 
HETATM   16  C   UNL     1      44.062 -18.041   7.705  1.00  0.00     0.034 A 
HETATM   17  C   UNL     1      43.190 -17.112   8.286  1.00  0.00     0.030 A 
HETATM   18  C   UNL     1      43.186 -15.774   7.872  1.00  0.00     0.010 A 
BRANCH  16  19
HETATM   19  N   UNL     1      43.941 -19.385   8.113  1.00  0.00    -0.328 N 
HETATM   20  C   UNL     1      43.651 -20.481   7.318  1.00  0.00     0.218 C 
HETATM   21  C   UNL     1      43.526 -21.748   8.128  1.00  0.00     0.117 C 
HETATM   22  O   UNL     1      43.510 -20.500   6.101  1.00  0.00    -0.274 OA
HETATM   23  H   UNL     1      44.021 -19.554   9.107  1.00  0.00     0.169 HD
ENDBRANCH  16  19
ENDBRANCH   7  13
BRANCH  11  24
HETATM   24  N   UNL     1      43.143 -10.848   8.395  1.00  0.00    -0.282 NA
HETATM   25  H   UNL     1      44.070 -10.518   8.653  1.00  0.00     0.126 HD
HETATM   26  H   UNL     1      42.536 -11.010   9.195  1.00  0.00     0.126 HD
ENDBRANCH  11  24
BRANCH   1  27
HETATM   27  C   UNL     1      42.587 -15.828   3.869  1.00  0.00    -0.005 A 
HETATM   28  C   UNL     1      42.154 -17.084   4.304  1.00  0.00     0.014 A 
HETATM   29  C   UNL     1      42.501 -18.239   3.595  1.00  0.00     0.008 A 
HETATM   30  C   UNL     1      43.294 -18.163   2.443  1.00  0.00    -0.058 A 
HETATM   31  C   UNL     1      43.784 -16.903   2.058  1.00  0.00     0.008 A 
HETATM   32  C   UNL     1      43.433 -15.747   2.760  1.00  0.00     0.014 A 
BRANCH  30  33
HETATM   33  C   UNL     1      43.658 -19.357   1.583  1.00  0.00     0.042 C 
BRANCH  33  34
HETATM   34  C   UNL     1      43.878 -20.715   2.287  1.00  0.00    -0.019 C 
HETATM   35  C   UNL     1      45.138 -20.701   3.159  1.00  0.00     0.010 C 
HETATM   36  C   UNL     1      44.006 -21.835   1.246  1.00  0.00     0.010 C 
ENDBRANCH  33  34
ENDBRANCH  30  33
ENDBRANCH   1  27
TORSDOF 6
ENDMDL
