MODEL 1
REMARK VINA RESULT:      -8.7      0.000      0.000
REMARK  7 active torsions:
REMARK  status: ('A' for Active; 'I' for Inactive)
REMARK    1  A    between atoms: O_2  and  C_3 
REMARK    2  A    between atoms: C_4  and  C_5 
REMARK    3  A    between atoms: C_5  and  N_6 
REMARK    4  A    between atoms: C_5  and  C_12 
REMARK    5  A    between atoms: C_12  and  N_13 
REMARK       I    between atoms: N_13  and  C_14 
REMARK       I    between atoms: C_14  and  N_15 
REMARK    6  A    between atoms: N_15  and  C_16 
REMARK    7  A    between atoms: C_17  and  O_18 
ROOT
HETATM    1  N   UNL     1      40.702 -16.086   2.022  1.00  0.00    -0.341 N 
HETATM    2  C   UNL     1      42.017 -16.297   2.348  1.00  0.00     0.316 C 
HETATM    3  N   UNL     1      42.213 -17.505   2.940  1.00  0.00    -0.332 N 
HETATM    4  O   UNL     1      42.913 -15.529   2.025  1.00  0.00    -0.247 OA
HETATM    5  H   UNL     1      40.039 -16.579   2.607  1.00  0.00     0.164 HD
HETATM    6  H   UNL     1      41.501 -17.824   3.582  1.00  0.00     0.165 HD
ENDROOT
BRANCH   1   7
HETATM    7  C   UNL     1      40.275 -14.816   1.450  1.00  0.00     0.162 C 
BRANCH   7   8
HETATM    8  C   UNL     1      39.906 -14.807  -0.074  1.00  0.00     0.241 C 
BRANCH   8   9
HETATM    9  C   UNL     1      40.917 -14.071  -0.958  1.00  0.00     0.007 A 
HETATM   10  C   UNL     1      41.134 -14.530  -2.276  1.00  0.00     0.076 A 
HETATM   11  C   UNL     1      42.024 -13.866  -3.125  1.00  0.00     0.037 A 
HETATM   12  C   UNL     1      42.719 -12.747  -2.670  1.00  0.00     0.003 A 
HETATM   13  C   UNL     1      42.518 -12.281  -1.376  1.00  0.00     0.001 A 
HETATM   14  C   UNL     1      41.621 -12.932  -0.526  1.00  0.00     0.012 A 
BRANCH  10  15
HETATM   15  O   UNL     1      40.368 -15.597  -2.677  1.00  0.00    -0.355 OA
HETATM   16  C   UNL     1      39.553 -15.354  -3.828  1.00  0.00     0.210 C 
ENDBRANCH  10  15
ENDBRANCH   8   9
BRANCH   8  17
HETATM   17  N   UNL     1      38.496 -14.267  -0.361  1.00  0.00    -0.061 N 
HETATM   18  H   UNL     1      38.076 -15.044  -0.894  1.00  0.00     0.280 HD
HETATM   19  C   UNL     1      38.385 -13.036  -1.211  1.00  0.00     0.236 C 
HETATM   20  C   UNL     1      37.968 -11.956  -0.238  1.00  0.00     0.029 C 
HETATM   21  C   UNL     1      37.035 -12.679   0.713  1.00  0.00     0.029 C 
HETATM   22  C   UNL     1      37.595 -14.087   0.837  1.00  0.00     0.236 C 
ENDBRANCH   8  17
ENDBRANCH   7   8
ENDBRANCH   1   7
BRANCH   3  23
HETATM   23  C   UNL     1      43.553 -17.923   3.318  1.00  0.00     0.149 C 
HETATM   24  C   UNL     1      43.812 -17.848   4.853  1.00  0.00     0.149 C 
HETATM   25  C   UNL     1      44.723 -19.039   5.206  1.00  0.00     0.073 C 
HETATM   26  C   UNL     1      44.431 -20.007   4.097  1.00  0.00    -0.047 A 
HETATM   27  C   UNL     1      43.779 -19.381   3.029  1.00  0.00    -0.026 A 
HETATM   28  C   UNL     1      44.779 -21.346   4.037  1.00  0.00     0.008 A 
HETATM   29  C   UNL     1      43.472 -20.088   1.874  1.00  0.00     0.010 A 
HETATM   30  C   UNL     1      43.809 -21.441   1.809  1.00  0.00     0.001 A 
HETATM   31  C   UNL     1      44.458 -22.065   2.885  1.00  0.00     0.001 A 
BRANCH  24  32
HETATM   32  O   UNL     1      42.580 -17.960   5.593  1.00  0.00    -0.393 OA
HETATM   33  H   UNL     1      42.512 -17.149   6.126  1.00  0.00     0.210 HD
ENDBRANCH  24  32
ENDBRANCH   3  23
TORSDOF 7
ENDMDL
MODEL 2
REMARK VINA RESULT:      -8.6      1.686      3.773
REMARK  7 active torsions:
REMARK  status: ('A' for Active; 'I' for Inactive)
REMARK    1  A    between atoms: O_2  and  C_3 
REMARK    2  A    between atoms: C_4  and  C_5 
REMARK    3  A    between atoms: C_5  and  N_6 
REMARK    4  A    between atoms: C_5  and  C_12 
REMARK    5  A    between atoms: C_12  and  N_13 
REMARK       I    between atoms: N_13  and  C_14 
REMARK       I    between atoms: C_14  and  N_15 
REMARK    6  A    between atoms: N_15  and  C_16 
REMARK    7  A    between atoms: C_17  and  O_18 
ROOT
HETATM    1  N   UNL     1      41.259 -16.505   1.471  1.00  0.00    -0.341 N 
HETATM    2  C   UNL     1      42.539 -16.889   1.772  1.00  0.00     0.316 C 
HETATM    3  N   UNL     1      42.603 -17.613   2.922  1.00  0.00    -0.332 N 
HETATM    4  O   UNL     1      43.485 -16.699   1.019  1.00  0.00    -0.247 OA
HETATM    5  H   UNL     1      40.649 -16.406   2.272  1.00  0.00     0.164 HD
HETATM    6  H   UNL     1      41.994 -17.330   3.677  1.00  0.00     0.165 HD
ENDROOT
BRANCH   1   7
HETATM    7  C   UNL     1      40.992 -15.654   0.318  1.00  0.00     0.162 C 
BRANCH   7   8
HETATM    8  C   UNL     1      41.444 -14.155   0.416  1.00  0.00     0.241 C 
BRANCH   8   9
HETATM    9  C   UNL     1      40.875 -13.407   1.625  1.00  0.00     0.007 A 
HETATM   10  C   UNL     1      41.746 -13.043   2.675  1.00  0.00     0.076 A 
HETATM   11  C   UNL     1      41.272 -12.331   3.780  1.00  0.00     0.037 A 
HETATM   12  C   UNL     1      39.924 -11.985   3.862  1.00  0.00     0.003 A 
HETATM   13  C   UNL     1      39.052 -12.335   2.837  1.00  0.00     0.001 A 
HETATM   14  C   UNL     1      39.522 -13.036   1.724  1.00  0.00     0.012 A 
BRANCH  10  15
HETATM   15  O   UNL     1      43.071 -13.359   2.499  1.00  0.00    -0.355 OA
HETATM   16  C   UNL     1      43.708 -13.943   3.639  1.00  0.00     0.210 C 
ENDBRANCH  10  15
ENDBRANCH   8   9
BRANCH   8  17
HETATM   17  N   UNL     1      41.163 -13.344  -0.859  1.00  0.00    -0.061 N 
HETATM   18  H   UNL     1      40.468 -12.659  -0.526  1.00  0.00     0.280 HD
HETATM   19  C   UNL     1      40.549 -14.069  -2.020  1.00  0.00     0.236 C 
HETATM   20  C   UNL     1      41.674 -14.165  -3.027  1.00  0.00     0.029 C 
HETATM   21  C   UNL     1      42.407 -12.848  -2.863  1.00  0.00     0.029 C 
HETATM   22  C   UNL     1      42.308 -12.511  -1.385  1.00  0.00     0.236 C 
ENDBRANCH   8  17
ENDBRANCH   7   8
ENDBRANCH   1   7
BRANCH   3  23
HETATM   23  C   UNL     1      43.875 -18.144   3.380  1.00  0.00     0.149 C 
HETATM   24  C   UNL     1      44.044 -18.090   4.928  1.00  0.00     0.149 C 
HETATM   25  C   UNL     1      44.825 -19.355   5.331  1.00  0.00     0.073 C 
HETATM   26  C   UNL     1      44.521 -20.294   4.202  1.00  0.00    -0.047 A 
HETATM   27  C   UNL     1      43.993 -19.616   3.098  1.00  0.00    -0.026 A 
HETATM   28  C   UNL     1      44.756 -21.659   4.158  1.00  0.00     0.008 A 
HETATM   29  C   UNL     1      43.699 -20.294   1.923  1.00  0.00     0.010 A 
HETATM   30  C   UNL     1      43.922 -21.672   1.874  1.00  0.00     0.001 A 
HETATM   31  C   UNL     1      44.447 -22.349   2.985  1.00  0.00     0.001 A 
BRANCH  24  32
HETATM   32  O   UNL     1      42.764 -18.096   5.590  1.00  0.00    -0.393 OA
HETATM   33  H   UNL     1      42.925 -18.440   6.485  1.00  0.00     0.210 HD
ENDBRANCH  24  32
ENDBRANCH   3  23
TORSDOF 7
ENDMDL
MODEL 3
REMARK VINA RESULT:      -8.4      1.607      2.842
REMARK  7 active torsions:
REMARK  status: ('A' for Active; 'I' for Inactive)
REMARK    1  A    between atoms: O_2  and  C_3 
REMARK    2  A    between atoms: C_4  and  C_5 
REMARK    3  A    between atoms: C_5  and  N_6 
REMARK    4  A    between atoms: C_5  and  C_12 
REMARK    5  A    between atoms: C_12  and  N_13 
REMARK       I    between atoms: N_13  and  C_14 
REMARK       I    between atoms: C_14  and  N_15 
REMARK    6  A    between atoms: N_15  and  C_16 
REMARK    7  A    between atoms: C_17  and  O_18 
ROOT
HETATM    1  N   UNL     1      41.511 -16.749   1.423  1.00  0.00    -0.341 N 
HETATM    2  C   UNL     1      42.766 -17.070   1.873  1.00  0.00     0.316 C 
HETATM    3  N   UNL     1      42.730 -17.904   2.947  1.00  0.00    -0.332 N 
HETATM    4  O   UNL     1      43.788 -16.735   1.289  1.00  0.00    -0.247 OA
HETATM    5  H   UNL     1      40.789 -16.778   2.131  1.00  0.00     0.164 HD
HETATM    6  H   UNL     1      41.999 -17.746   3.627  1.00  0.00     0.165 HD
ENDROOT
BRANCH   1   7
HETATM    7  C   UNL     1      41.337 -15.803   0.328  1.00  0.00     0.162 C 
BRANCH   7   8
HETATM    8  C   UNL     1      40.195 -14.739   0.479  1.00  0.00     0.241 C 
BRANCH   8   9
HETATM    9  C   UNL     1      39.653 -14.209  -0.852  1.00  0.00     0.007 A 
HETATM   10  C   UNL     1      38.360 -13.643  -0.886  1.00  0.00     0.076 A 
HETATM   11  C   UNL     1      37.842 -13.119  -2.074  1.00  0.00     0.037 A 
HETATM   12  C   UNL     1      38.597 -13.165  -3.245  1.00  0.00     0.003 A 
HETATM   13  C   UNL     1      39.872 -13.719  -3.230  1.00  0.00     0.001 A 
HETATM   14  C   UNL     1      40.400 -14.233  -2.043  1.00  0.00     0.012 A 
BRANCH  10  15
HETATM   15  O   UNL     1      37.699 -13.572   0.316  1.00  0.00    -0.355 OA
HETATM   16  C   UNL     1      36.923 -12.385   0.508  1.00  0.00     0.210 C 
ENDBRANCH  10  15
ENDBRANCH   8   9
BRANCH   8  17
HETATM   17  N   UNL     1      40.578 -13.551   1.377  1.00  0.00    -0.061 N 
HETATM   18  H   UNL     1      39.959 -12.807   1.020  1.00  0.00     0.280 HD
HETATM   19  C   UNL     1      41.985 -13.040   1.288  1.00  0.00     0.236 C 
HETATM   20  C   UNL     1      42.616 -13.478   2.590  1.00  0.00     0.029 C 
HETATM   21  C   UNL     1      41.492 -13.327   3.596  1.00  0.00     0.029 C 
HETATM   22  C   UNL     1      40.223 -13.681   2.839  1.00  0.00     0.236 C 
ENDBRANCH   8  17
ENDBRANCH   7   8
ENDBRANCH   1   7
BRANCH   3  23
HETATM   23  C   UNL     1      43.966 -18.388   3.536  1.00  0.00     0.149 C 
HETATM   24  C   UNL     1      44.004 -18.250   5.088  1.00  0.00     0.149 C 
HETATM   25  C   UNL     1      44.766 -19.478   5.622  1.00  0.00     0.073 C 
HETATM   26  C   UNL     1      44.570 -20.481   4.523  1.00  0.00    -0.047 A 
HETATM   27  C   UNL     1      44.127 -19.870   3.344  1.00  0.00    -0.026 A 
HETATM   28  C   UNL     1      44.826 -21.841   4.571  1.00  0.00     0.008 A 
HETATM   29  C   UNL     1      43.941 -20.614   2.187  1.00  0.00     0.010 A 
HETATM   30  C   UNL     1      44.186 -21.988   2.229  1.00  0.00     0.001 A 
HETATM   31  C   UNL     1      44.625 -22.597   3.414  1.00  0.00     0.001 A 
BRANCH  24  32
HETATM   32  O   UNL     1      42.674 -18.244   5.641  1.00  0.00    -0.393 OA
HETATM   33  H   UNL     1      42.744 -18.659   6.518  1.00  0.00     0.210 HD
ENDBRANCH  24  32
ENDBRANCH   3  23
TORSDOF 7
ENDMDL
MODEL 4
REMARK VINA RESULT:      -7.9      5.170      8.373
REMARK  7 active torsions:
REMARK  status: ('A' for Active; 'I' for Inactive)
REMARK    1  A    between atoms: O_2  and  C_3 
REMARK    2  A    between atoms: C_4  and  C_5 
REMARK    3  A    between atoms: C_5  and  N_6 
REMARK    4  A    between atoms: C_5  and  C_12 
REMARK    5  A    between atoms: C_12  and  N_13 
REMARK       I    between atoms: N_13  and  C_14 
REMARK       I    between atoms: C_14  and  N_15 
REMARK    6  A    between atoms: N_15  and  C_16 
REMARK    7  A    between atoms: C_17  and  O_18 
ROOT
HETATM    1  N   UNL     1      42.931 -14.413   5.247  1.00  0.00    -0.341 N 
HETATM    2  C   UNL     1      42.344 -13.176   5.309  1.00  0.00     0.316 C 
HETATM    3  N   UNL     1      42.073 -12.799   6.587  1.00  0.00    -0.332 N 
HETATM    4  O   UNL     1      42.201 -12.458   4.329  1.00  0.00    -0.247 OA
HETATM    5  H   UNL     1      42.695 -15.030   6.013  1.00  0.00     0.164 HD
HETATM    6  H   UNL     1      41.751 -13.518   7.220  1.00  0.00     0.165 HD
ENDROOT
BRANCH   1   7
HETATM    7  C   UNL     1      43.227 -15.029   3.959  1.00  0.00     0.162 C 
BRANCH   7   8
HETATM    8  C   UNL     1      42.343 -16.251   3.531  1.00  0.00     0.241 C 
BRANCH   8   9
HETATM    9  C   UNL     1      43.111 -17.570   3.417  1.00  0.00     0.007 A 
HETATM   10  C   UNL     1      43.555 -18.207   4.597  1.00  0.00     0.076 A 
HETATM   11  C   UNL     1      44.231 -19.429   4.537  1.00  0.00     0.037 A 
HETATM   12  C   UNL     1      44.488 -20.025   3.303  1.00  0.00     0.003 A 
HETATM   13  C   UNL     1      44.059 -19.412   2.131  1.00  0.00     0.001 A 
HETATM   14  C   UNL     1      43.371 -18.197   2.185  1.00  0.00     0.012 A 
BRANCH  10  15
HETATM   15  O   UNL     1      43.211 -17.597   5.778  1.00  0.00    -0.355 OA
HETATM   16  C   UNL     1      44.289 -17.427   6.704  1.00  0.00     0.210 C 
ENDBRANCH  10  15
ENDBRANCH   8   9
BRANCH   8  17
HETATM   17  N   UNL     1      41.552 -16.012   2.235  1.00  0.00    -0.061 N 
HETATM   18  H   UNL     1      42.013 -16.664   1.582  1.00  0.00     0.280 HD
HETATM   19  C   UNL     1      41.623 -14.645   1.621  1.00  0.00     0.236 C 
HETATM   20  C   UNL     1      40.253 -14.057   1.878  1.00  0.00     0.029 C 
HETATM   21  C   UNL     1      39.325 -15.246   1.722  1.00  0.00     0.029 C 
HETATM   22  C   UNL     1      40.103 -16.439   2.250  1.00  0.00     0.236 C 
ENDBRANCH   8  17
ENDBRANCH   7   8
ENDBRANCH   1   7
BRANCH   3  23
HETATM   23  C   UNL     1      41.488 -11.496   6.855  1.00  0.00     0.149 C 
HETATM   24  C   UNL     1      39.933 -11.526   6.948  1.00  0.00     0.149 C 
HETATM   25  C   UNL     1      39.535 -10.506   8.032  1.00  0.00     0.073 C 
HETATM   26  C   UNL     1      40.774 -10.434   8.875  1.00  0.00    -0.047 A 
HETATM   27  C   UNL     1      41.878 -10.983   8.212  1.00  0.00    -0.026 A 
HETATM   28  C   UNL     1      40.905  -9.863  10.130  1.00  0.00     0.008 A 
HETATM   29  C   UNL     1      43.138 -10.961   8.796  1.00  0.00     0.010 A 
HETATM   30  C   UNL     1      43.276 -10.397  10.066  1.00  0.00     0.001 A 
HETATM   31  C   UNL     1      42.166  -9.853  10.728  1.00  0.00     0.001 A 
BRANCH  24  32
HETATM   32  O   UNL     1      39.462 -12.832   7.334  1.00  0.00    -0.393 OA
HETATM   33  H   UNL     1      39.464 -13.370   6.523  1.00  0.00     0.210 HD
ENDBRANCH  24  32
ENDBRANCH   3  23
TORSDOF 7
ENDMDL
MODEL 5
REMARK VINA RESULT:      -7.8      1.297      2.751
REMARK  7 active torsions:
REMARK  status: ('A' for Active; 'I' for Inactive)
REMARK    1  A    between atoms: O_2  and  C_3 
REMARK    2  A    between atoms: C_4  and  C_5 
REMARK    3  A    between atoms: C_5  and  N_6 
REMARK    4  A    between atoms: C_5  and  C_12 
REMARK    5  A    between atoms: C_12  and  N_13 
REMARK       I    between atoms: N_13  and  C_14 
REMARK       I    between atoms: C_14  and  N_15 
REMARK    6  A    between atoms: N_15  and  C_16 
REMARK    7  A    between atoms: C_17  and  O_18 
ROOT
HETATM    1  N   UNL     1      40.316 -16.227   1.869  1.00  0.00    -0.341 N 
HETATM    2  C   UNL     1      41.620 -16.317   2.281  1.00  0.00     0.316 C 
HETATM    3  N   UNL     1      41.953 -17.580   2.661  1.00  0.00    -0.332 N 
HETATM    4  O   UNL     1      42.411 -15.388   2.196  1.00  0.00    -0.247 OA
HETATM    5  H   UNL     1      39.694 -16.908   2.284  1.00  0.00     0.164 HD
HETATM    6  H   UNL     1      41.252 -18.111   3.159  1.00  0.00     0.165 HD
ENDROOT
BRANCH   1   7
HETATM    7  C   UNL     1      39.744 -14.939   1.497  1.00  0.00     0.162 C 
BRANCH   7   8
HETATM    8  C   UNL     1      40.317 -14.248   0.211  1.00  0.00     0.241 C 
BRANCH   8   9
HETATM    9  C   UNL     1      39.979 -12.758   0.098  1.00  0.00     0.007 A 
HETATM   10  C   UNL     1      40.954 -11.875  -0.417  1.00  0.00     0.076 A 
HETATM   11  C   UNL     1      40.674 -10.513  -0.566  1.00  0.00     0.037 A 
HETATM   12  C   UNL     1      39.428 -10.012  -0.193  1.00  0.00     0.003 A 
HETATM   13  C   UNL     1      38.457 -10.867   0.315  1.00  0.00     0.001 A 
HETATM   14  C   UNL     1      38.726 -12.231   0.456  1.00  0.00     0.012 A 
BRANCH  10  15
HETATM   15  O   UNL     1      42.134 -12.447  -0.824  1.00  0.00    -0.355 OA
HETATM   16  C   UNL     1      42.906 -11.654  -1.731  1.00  0.00     0.210 C 
ENDBRANCH  10  15
ENDBRANCH   8   9
BRANCH   8  17
HETATM   17  N   UNL     1      39.920 -14.956  -1.095  1.00  0.00    -0.061 N 
HETATM   18  H   UNL     1      39.274 -15.684  -0.753  1.00  0.00     0.280 HD
HETATM   19  C   UNL     1      41.005 -15.652  -1.862  1.00  0.00     0.236 C 
HETATM   20  C   UNL     1      41.208 -14.779  -3.081  1.00  0.00     0.029 C 
HETATM   21  C   UNL     1      39.807 -14.305  -3.413  1.00  0.00     0.029 C 
HETATM   22  C   UNL     1      39.107 -14.143  -2.074  1.00  0.00     0.236 C 
ENDBRANCH   8  17
ENDBRANCH   7   8
ENDBRANCH   1   7
BRANCH   3  23
HETATM   23  C   UNL     1      43.309 -17.879   3.090  1.00  0.00     0.149 C 
HETATM   24  C   UNL     1      43.526 -17.694   4.622  1.00  0.00     0.149 C 
HETATM   25  C   UNL     1      44.509 -18.794   5.065  1.00  0.00     0.073 C 
HETATM   26  C   UNL     1      44.311 -19.845   4.012  1.00  0.00    -0.047 A 
HETATM   27  C   UNL     1      43.643 -19.331   2.895  1.00  0.00    -0.026 A 
HETATM   28  C   UNL     1      44.753 -21.157   4.041  1.00  0.00     0.008 A 
HETATM   29  C   UNL     1      43.413 -20.126   1.780  1.00  0.00     0.010 A 
HETATM   30  C   UNL     1      43.845 -21.454   1.805  1.00  0.00     0.001 A 
HETATM   31  C   UNL     1      44.509 -21.965   2.929  1.00  0.00     0.001 A 
BRANCH  24  32
HETATM   32  O   UNL     1      42.288 -17.848   5.343  1.00  0.00    -0.393 OA
HETATM   33  H   UNL     1      42.387 -17.331   6.162  1.00  0.00     0.210 HD
ENDBRANCH  24  32
ENDBRANCH   3  23
TORSDOF 7
ENDMDL
MODEL 6
REMARK VINA RESULT:      -7.8      6.407      9.031
REMARK  7 active torsions:
REMARK  status: ('A' for Active; 'I' for Inactive)
REMARK    1  A    between atoms: O_2  and  C_3 
REMARK    2  A    between atoms: C_4  and  C_5 
REMARK    3  A    between atoms: C_5  and  N_6 
REMARK    4  A    between atoms: C_5  and  C_12 
REMARK    5  A    between atoms: C_12  and  N_13 
REMARK       I    between atoms: N_13  and  C_14 
REMARK       I    between atoms: C_14  and  N_15 
REMARK    6  A    between atoms: N_15  and  C_16 
REMARK    7  A    between atoms: C_17  and  O_18 
ROOT
HETATM    1  N   UNL     1      40.027 -13.111   6.718  1.00  0.00    -0.341 N 
HETATM    2  C   UNL     1      40.503 -11.860   7.014  1.00  0.00     0.316 C 
HETATM    3  N   UNL     1      40.540 -11.627   8.353  1.00  0.00    -0.332 N 
HETATM    4  O   UNL     1      40.952 -11.102   6.166  1.00  0.00    -0.247 OA
HETATM    5  H   UNL     1      39.395 -13.496   7.408  1.00  0.00     0.164 HD
HETATM    6  H   UNL     1      39.778 -11.997   8.905  1.00  0.00     0.165 HD
ENDROOT
BRANCH   1   7
HETATM    7  C   UNL     1      39.837 -13.523   5.333  1.00  0.00     0.162 C 
BRANCH   7   8
HETATM    8  C   UNL     1      40.343 -14.953   4.937  1.00  0.00     0.241 C 
BRANCH   8   9
HETATM    9  C   UNL     1      41.499 -15.469   5.798  1.00  0.00     0.007 A 
HETATM   10  C   UNL     1      42.737 -14.791   5.756  1.00  0.00     0.076 A 
HETATM   11  C   UNL     1      43.807 -15.210   6.551  1.00  0.00     0.037 A 
HETATM   12  C   UNL     1      43.665 -16.317   7.386  1.00  0.00     0.003 A 
HETATM   13  C   UNL     1      42.453 -16.997   7.441  1.00  0.00     0.001 A 
HETATM   14  C   UNL     1      41.376 -16.575   6.657  1.00  0.00     0.012 A 
BRANCH  10  15
HETATM   15  O   UNL     1      42.787 -13.672   4.961  1.00  0.00    -0.355 OA
HETATM   16  C   UNL     1      43.770 -13.714   3.922  1.00  0.00     0.210 C 
ENDBRANCH  10  15
ENDBRANCH   8   9
BRANCH   8  17
HETATM   17  N   UNL     1      40.721 -15.082   3.452  1.00  0.00    -0.061 N 
HETATM   18  H   UNL     1      41.630 -14.594   3.423  1.00  0.00     0.280 HD
HETATM   19  C   UNL     1      39.827 -14.415   2.449  1.00  0.00     0.236 C 
HETATM   20  C   UNL     1      39.120 -15.565   1.768  1.00  0.00     0.029 C 
HETATM   21  C   UNL     1      40.187 -16.640   1.693  1.00  0.00     0.029 C 
HETATM   22  C   UNL     1      41.014 -16.478   2.958  1.00  0.00     0.236 C 
ENDBRANCH   8  17
ENDBRANCH   7   8
ENDBRANCH   1   7
BRANCH   3  23
HETATM   23  C   UNL     1      41.057 -10.368   8.861  1.00  0.00     0.149 C 
HETATM   24  C   UNL     1      40.189  -9.762  10.004  1.00  0.00     0.149 C 
HETATM   25  C   UNL     1      41.164  -9.088  10.989  1.00  0.00     0.073 C 
HETATM   26  C   UNL     1      42.442  -9.832  10.734  1.00  0.00    -0.047 A 
HETATM   27  C   UNL     1      42.389 -10.547   9.533  1.00  0.00    -0.026 A 
HETATM   28  C   UNL     1      43.591  -9.818  11.509  1.00  0.00     0.008 A 
HETATM   29  C   UNL     1      43.493 -11.257   9.081  1.00  0.00     0.010 A 
HETATM   30  C   UNL     1      44.652 -11.257   9.861  1.00  0.00     0.001 A 
HETATM   31  C   UNL     1      44.699 -10.543  11.067  1.00  0.00     0.001 A 
BRANCH  24  32
HETATM   32  O   UNL     1      39.454 -10.789  10.697  1.00  0.00    -0.393 OA
HETATM   33  H   UNL     1      38.666 -10.354  11.067  1.00  0.00     0.210 HD
ENDBRANCH  24  32
ENDBRANCH   3  23
TORSDOF 7
ENDMDL
MODEL 7
REMARK VINA RESULT:      -7.8      2.561      4.012
REMARK  7 active torsions:
REMARK  status: ('A' for Active; 'I' for Inactive)
REMARK    1  A    between atoms: O_2  and  C_3 
REMARK    2  A    between atoms: C_4  and  C_5 
REMARK    3  A    between atoms: C_5  and  N_6 
REMARK    4  A    between atoms: C_5  and  C_12 
REMARK    5  A    between atoms: C_12  and  N_13 
REMARK       I    between atoms: N_13  and  C_14 
REMARK       I    between atoms: C_14  and  N_15 
REMARK    6  A    between atoms: N_15  and  C_16 
REMARK    7  A    between atoms: C_17  and  O_18 
ROOT
HETATM    1  N   UNL     1      40.267 -16.467   2.525  1.00  0.00    -0.341 N 
HETATM    2  C   UNL     1      41.625 -16.597   2.658  1.00  0.00     0.316 C 
HETATM    3  N   UNL     1      41.971 -17.751   3.288  1.00  0.00    -0.332 N 
HETATM    4  O   UNL     1      42.421 -15.816   2.155  1.00  0.00    -0.247 OA
HETATM    5  H   UNL     1      39.725 -16.945   3.233  1.00  0.00     0.164 HD
HETATM    6  H   UNL     1      41.380 -18.055   4.050  1.00  0.00     0.165 HD
ENDROOT
BRANCH   1   7
HETATM    7  C   UNL     1      39.692 -15.259   1.945  1.00  0.00     0.162 C 
BRANCH   7   8
HETATM    8  C   UNL     1      39.689 -13.970   2.838  1.00  0.00     0.241 C 
BRANCH   8   9
HETATM    9  C   UNL     1      40.115 -12.697   2.101  1.00  0.00     0.007 A 
HETATM   10  C   UNL     1      39.450 -11.485   2.391  1.00  0.00     0.076 A 
HETATM   11  C   UNL     1      39.830 -10.295   1.763  1.00  0.00     0.037 A 
HETATM   12  C   UNL     1      40.866 -10.298   0.830  1.00  0.00     0.003 A 
HETATM   13  C   UNL     1      41.532 -11.482   0.533  1.00  0.00     0.001 A 
HETATM   14  C   UNL     1      41.164 -12.672   1.165  1.00  0.00     0.012 A 
BRANCH  10  15
HETATM   15  O   UNL     1      38.484 -11.544   3.366  1.00  0.00    -0.355 OA
HETATM   16  C   UNL     1      38.311 -10.336   4.115  1.00  0.00     0.210 C 
ENDBRANCH  10  15
ENDBRANCH   8   9
BRANCH   8  17
HETATM   17  N   UNL     1      40.520 -14.111   4.124  1.00  0.00    -0.061 N 
HETATM   18  H   UNL     1      41.058 -14.971   3.934  1.00  0.00     0.280 HD
HETATM   19  C   UNL     1      39.777 -14.328   5.408  1.00  0.00     0.236 C 
HETATM   20  C   UNL     1      39.932 -13.016   6.146  1.00  0.00     0.029 C 
HETATM   21  C   UNL     1      41.340 -12.577   5.793  1.00  0.00     0.029 C 
HETATM   22  C   UNL     1      41.562 -13.045   4.364  1.00  0.00     0.236 C 
ENDBRANCH   8  17
ENDBRANCH   7   8
ENDBRANCH   1   7
BRANCH   3  23
HETATM   23  C   UNL     1      43.372 -18.084   3.483  1.00  0.00     0.149 C 
HETATM   24  C   UNL     1      43.810 -18.054   4.978  1.00  0.00     0.149 C 
HETATM   25  C   UNL     1      44.837 -19.188   5.160  1.00  0.00     0.073 C 
HETATM   26  C   UNL     1      44.480 -20.127   4.046  1.00  0.00    -0.047 A 
HETATM   27  C   UNL     1      43.661 -19.507   3.095  1.00  0.00    -0.026 A 
HETATM   28  C   UNL     1      44.910 -21.433   3.877  1.00  0.00     0.008 A 
HETATM   29  C   UNL     1      43.265 -20.186   1.951  1.00  0.00     0.010 A 
HETATM   30  C   UNL     1      43.684 -21.506   1.778  1.00  0.00     0.001 A 
HETATM   31  C   UNL     1      44.501 -22.125   2.736  1.00  0.00     0.001 A 
BRANCH  24  32
HETATM   32  O   UNL     1      42.689 -18.289   5.852  1.00  0.00    -0.393 OA
HETATM   33  H   UNL     1      42.807 -19.188   6.207  1.00  0.00     0.210 HD
ENDBRANCH  24  32
ENDBRANCH   3  23
TORSDOF 7
ENDMDL
MODEL 8
REMARK VINA RESULT:      -7.7      1.834      8.557
REMARK  7 active torsions:
REMARK  status: ('A' for Active; 'I' for Inactive)
REMARK    1  A    between atoms: O_2  and  C_3 
REMARK    2  A    between atoms: C_4  and  C_5 
REMARK    3  A    between atoms: C_5  and  N_6 
REMARK    4  A    between atoms: C_5  and  C_12 
REMARK    5  A    between atoms: C_12  and  N_13 
REMARK       I    between atoms: N_13  and  C_14 
REMARK       I    between atoms: C_14  and  N_15 
REMARK    6  A    between atoms: N_15  and  C_16 
REMARK    7  A    between atoms: C_17  and  O_18 
ROOT
HETATM    1  N   UNL     1      41.429 -16.292   0.522  1.00  0.00    -0.341 N 
HETATM    2  C   UNL     1      41.228 -15.065  -0.054  1.00  0.00     0.316 C 
HETATM    3  N   UNL     1      39.949 -14.903  -0.487  1.00  0.00    -0.332 N 
HETATM    4  O   UNL     1      42.077 -14.185  -0.058  1.00  0.00    -0.247 OA
HETATM    5  H   UNL     1      40.818 -17.023   0.180  1.00  0.00     0.164 HD
HETATM    6  H   UNL     1      39.497 -15.708  -0.898  1.00  0.00     0.165 HD
ENDROOT
BRANCH   1   7
HETATM    7  C   UNL     1      42.755 -16.688   0.978  1.00  0.00     0.162 C 
BRANCH   7   8
HETATM    8  C   UNL     1      42.891 -17.138   2.474  1.00  0.00     0.241 C 
BRANCH   8   9
HETATM    9  C   UNL     1      43.413 -18.567   2.653  1.00  0.00     0.007 A 
HETATM   10  C   UNL     1      44.208 -18.867   3.781  1.00  0.00     0.076 A 
HETATM   11  C   UNL     1      44.677 -20.166   3.997  1.00  0.00     0.037 A 
HETATM   12  C   UNL     1      44.373 -21.178   3.089  1.00  0.00     0.003 A 
HETATM   13  C   UNL     1      43.591 -20.901   1.973  1.00  0.00     0.001 A 
HETATM   14  C   UNL     1      43.109 -19.608   1.757  1.00  0.00     0.012 A 
BRANCH  10  15
HETATM   15  O   UNL     1      44.414 -17.838   4.667  1.00  0.00    -0.355 OA
HETATM   16  C   UNL     1      44.820 -18.244   5.978  1.00  0.00     0.210 C 
ENDBRANCH  10  15
ENDBRANCH   8   9
BRANCH   8  17
HETATM   17  N   UNL     1      41.597 -16.967   3.287  1.00  0.00    -0.061 N 
HETATM   18  H   UNL     1      40.874 -17.144   2.573  1.00  0.00     0.280 HD
HETATM   19  C   UNL     1      41.321 -15.614   3.872  1.00  0.00     0.236 C 
HETATM   20  C   UNL     1      41.539 -15.807   5.356  1.00  0.00     0.029 C 
HETATM   21  C   UNL     1      41.010 -17.204   5.612  1.00  0.00     0.029 C 
HETATM   22  C   UNL     1      41.344 -17.999   4.360  1.00  0.00     0.236 C 
ENDBRANCH   8  17
ENDBRANCH   7   8
ENDBRANCH   1   7
BRANCH   3  23
HETATM   23  C   UNL     1      39.535 -13.646  -1.088  1.00  0.00     0.149 C 
HETATM   24  C   UNL     1      38.632 -13.831  -2.344  1.00  0.00     0.149 C 
HETATM   25  C   UNL     1      37.603 -12.685  -2.320  1.00  0.00     0.073 C 
HETATM   26  C   UNL     1      37.553 -12.328  -0.864  1.00  0.00    -0.047 A 
HETATM   27  C   UNL     1      38.644 -12.861  -0.168  1.00  0.00    -0.026 A 
HETATM   28  C   UNL     1      36.616 -11.532  -0.225  1.00  0.00     0.008 A 
HETATM   29  C   UNL     1      38.819 -12.597   1.184  1.00  0.00     0.010 A 
HETATM   30  C   UNL     1      37.873 -11.805   1.838  1.00  0.00     0.001 A 
HETATM   31  C   UNL     1      36.778 -11.277   1.138  1.00  0.00     0.001 A 
BRANCH  24  32
HETATM   32  O   UNL     1      37.935 -15.091  -2.301  1.00  0.00    -0.393 OA
HETATM   33  H   UNL     1      38.624 -15.779  -2.297  1.00  0.00     0.210 HD
ENDBRANCH  24  32
ENDBRANCH   3  23
TORSDOF 7
ENDMDL
MODEL 9
REMARK VINA RESULT:      -7.7      2.134      8.488
REMARK  7 active torsions:
REMARK  status: ('A' for Active; 'I' for Inactive)
REMARK    1  A    between atoms: O_2  and  C_3 
REMARK    2  A    between atoms: C_4  and  C_5 
REMARK    3  A    between atoms: C_5  and  N_6 
REMARK    4  A    between atoms: C_5  and  C_12 
REMARK    5  A    between atoms: C_12  and  N_13 
REMARK       I    between atoms: N_13  and  C_14 
REMARK       I    between atoms: C_14  and  N_15 
REMARK    6  A    between atoms: N_15  and  C_16 
REMARK    7  A    between atoms: C_17  and  O_18 
ROOT
HETATM    1  N   UNL     1      42.871 -15.642   0.960  1.00  0.00    -0.341 N 
HETATM    2  C   UNL     1      41.797 -14.947   0.465  1.00  0.00     0.316 C 
HETATM    3  N   UNL     1      42.085 -13.634   0.259  1.00  0.00    -0.332 N 
HETATM    4  O   UNL     1      40.750 -15.487   0.138  1.00  0.00    -0.247 OA
HETATM    5  H   UNL     1      43.524 -15.083   1.494  1.00  0.00     0.164 HD
HETATM    6  H   UNL     1      42.680 -13.182   0.939  1.00  0.00     0.165 HD
ENDROOT
BRANCH   1   7
HETATM    7  C   UNL     1      42.740 -17.048   1.322  1.00  0.00     0.162 C 
BRANCH   7   8
HETATM    8  C   UNL     1      43.392 -17.501   2.674  1.00  0.00     0.241 C 
BRANCH   8   9
HETATM    9  C   UNL     1      43.742 -18.991   2.731  1.00  0.00     0.007 A 
HETATM   10  C   UNL     1      44.476 -19.478   3.836  1.00  0.00     0.076 A 
HETATM   11  C   UNL     1      44.787 -20.836   3.941  1.00  0.00     0.037 A 
HETATM   12  C   UNL     1      44.386 -21.724   2.945  1.00  0.00     0.003 A 
HETATM   13  C   UNL     1      43.663 -21.262   1.851  1.00  0.00     0.001 A 
HETATM   14  C   UNL     1      43.338 -19.908   1.745  1.00  0.00     0.012 A 
BRANCH  10  15
HETATM   15  O   UNL     1      44.782 -18.559   4.810  1.00  0.00    -0.355 OA
HETATM   16  C   UNL     1      44.644 -19.037   6.152  1.00  0.00     0.210 C 
ENDBRANCH  10  15
ENDBRANCH   8   9
BRANCH   8  17
HETATM   17  N   UNL     1      42.560 -17.129   3.912  1.00  0.00    -0.061 N 
HETATM   18  H   UNL     1      42.803 -17.888   4.566  1.00  0.00     0.280 HD
HETATM   19  C   UNL     1      41.067 -17.128   3.768  1.00  0.00     0.236 C 
HETATM   20  C   UNL     1      40.698 -15.662   3.799  1.00  0.00     0.029 C 
HETATM   21  C   UNL     1      41.670 -15.074   4.803  1.00  0.00     0.029 C 
HETATM   22  C   UNL     1      42.959 -15.859   4.625  1.00  0.00     0.236 C 
ENDBRANCH   8  17
ENDBRANCH   7   8
ENDBRANCH   1   7
BRANCH   3  23
HETATM   23  C   UNL     1      41.081 -12.747  -0.304  1.00  0.00     0.149 C 
HETATM   24  C   UNL     1      40.761 -11.523   0.606  1.00  0.00     0.149 C 
HETATM   25  C   UNL     1      40.496 -10.331  -0.333  1.00  0.00     0.073 C 
HETATM   26  C   UNL     1      41.246 -10.726  -1.572  1.00  0.00    -0.047 A 
HETATM   27  C   UNL     1      41.570 -12.088  -1.563  1.00  0.00    -0.026 A 
HETATM   28  C   UNL     1      41.563  -9.922  -2.654  1.00  0.00     0.008 A 
HETATM   29  C   UNL     1      42.213 -12.670  -2.647  1.00  0.00     0.010 A 
HETATM   30  C   UNL     1      42.546 -11.864  -3.737  1.00  0.00     0.001 A 
HETATM   31  C   UNL     1      42.224 -10.499  -3.740  1.00  0.00     0.001 A 
BRANCH  24  32
HETATM   32  O   UNL     1      41.875 -11.209   1.464  1.00  0.00    -0.393 OA
HETATM   33  H   UNL     1      42.012 -10.249   1.388  1.00  0.00     0.210 HD
ENDBRANCH  24  32
ENDBRANCH   3  23
TORSDOF 7
ENDMDL
MODEL 10
REMARK VINA RESULT:      -7.6      1.929      8.617
REMARK  7 active torsions:
REMARK  status: ('A' for Active; 'I' for Inactive)
REMARK    1  A    between atoms: O_2  and  C_3 
REMARK    2  A    between atoms: C_4  and  C_5 
REMARK    3  A    between atoms: C_5  and  N_6 
REMARK    4  A    between atoms: C_5  and  C_12 
REMARK    5  A    between atoms: C_12  and  N_13 
REMARK       I    between atoms: N_13  and  C_14 
REMARK       I    between atoms: C_14  and  N_15 
REMARK    6  A    between atoms: N_15  and  C_16 
REMARK    7  A    between atoms: C_17  and  O_18 
ROOT
HETATM    1  N   UNL     1      40.580 -16.412   1.113  1.00  0.00    -0.341 N 
HETATM    2  C   UNL     1      40.689 -15.320   0.293  1.00  0.00     0.316 C 
HETATM    3  N   UNL     1      39.491 -14.711   0.085  1.00  0.00    -0.332 N 
HETATM    4  O   UNL     1      41.764 -14.886  -0.098  1.00  0.00    -0.247 OA
HETATM    5  H   UNL     1      39.676 -16.866   1.093  1.00  0.00     0.164 HD
HETATM    6  H   UNL     1      38.682 -15.309  -0.013  1.00  0.00     0.165 HD
ENDROOT
BRANCH   1   7
HETATM    7  C   UNL     1      41.741 -17.247   1.394  1.00  0.00     0.162 C 
BRANCH   7   8
HETATM    8  C   UNL     1      42.313 -17.208   2.853  1.00  0.00     0.241 C 
BRANCH   8   9
HETATM    9  C   UNL     1      42.413 -15.801   3.449  1.00  0.00     0.007 A 
HETATM   10  C   UNL     1      41.573 -15.457   4.532  1.00  0.00     0.076 A 
HETATM   11  C   UNL     1      41.655 -14.194   5.125  1.00  0.00     0.037 A 
HETATM   12  C   UNL     1      42.563 -13.254   4.641  1.00  0.00     0.003 A 
HETATM   13  C   UNL     1      43.398 -13.575   3.577  1.00  0.00     0.001 A 
HETATM   14  C   UNL     1      43.329 -14.840   2.987  1.00  0.00     0.012 A 
BRANCH  10  15
HETATM   15  O   UNL     1      40.749 -16.453   4.998  1.00  0.00    -0.355 OA
HETATM   16  C   UNL     1      40.975 -16.833   6.359  1.00  0.00     0.210 C 
ENDBRANCH  10  15
ENDBRANCH   8   9
BRANCH   8  17
HETATM   17  N   UNL     1      43.670 -17.916   3.000  1.00  0.00    -0.061 N 
HETATM   18  H   UNL     1      44.327 -17.122   2.980  1.00  0.00     0.280 HD
HETATM   19  C   UNL     1      44.081 -18.859   1.908  1.00  0.00     0.236 C 
HETATM   20  C   UNL     1      43.955 -20.227   2.540  1.00  0.00     0.029 C 
HETATM   21  C   UNL     1      44.402 -19.998   3.971  1.00  0.00     0.029 C 
HETATM   22  C   UNL     1      43.926 -18.598   4.323  1.00  0.00     0.236 C 
ENDBRANCH   8  17
ENDBRANCH   7   8
ENDBRANCH   1   7
BRANCH   3  23
HETATM   23  C   UNL     1      39.415 -13.508  -0.726  1.00  0.00     0.149 C 
HETATM   24  C   UNL     1      39.210 -13.798  -2.243  1.00  0.00     0.149 C 
HETATM   25  C   UNL     1      38.296 -12.684  -2.787  1.00  0.00     0.073 C 
HETATM   26  C   UNL     1      37.567 -12.237  -1.555  1.00  0.00    -0.047 A 
HETATM   27  C   UNL     1      38.198 -12.691  -0.391  1.00  0.00    -0.026 A 
HETATM   28  C   UNL     1      36.443 -11.429  -1.490  1.00  0.00     0.008 A 
HETATM   29  C   UNL     1      37.716 -12.336   0.861  1.00  0.00     0.010 A 
HETATM   30  C   UNL     1      36.577 -11.532   0.935  1.00  0.00     0.001 A 
HETATM   31  C   UNL     1      35.944 -11.083  -0.233  1.00  0.00     0.001 A 
BRANCH  24  32
HETATM   32  O   UNL     1      38.570 -15.074  -2.444  1.00  0.00    -0.393 OA
HETATM   33  H   UNL     1      37.864 -15.129  -1.778  1.00  0.00     0.210 HD
ENDBRANCH  24  32
ENDBRANCH   3  23
TORSDOF 7
ENDMDL
