MODEL 1
REMARK VINA RESULT:      -7.6      0.000      0.000
REMARK  4 active torsions:
REMARK  status: ('A' for Active; 'I' for Inactive)
REMARK    1  A    between atoms: C_2  and  N_3 
REMARK    2  A    between atoms: C_2  and  C_13 
REMARK       I    between atoms: N_3  and  C_4 
REMARK    3  A    between atoms: C_4  and  C_5 
REMARK    4  A    between atoms: C_6  and  C_7 
ROOT
HETATM    1  C   UNL     1      46.183 -11.633   8.764  1.00  0.00     0.040 C 
HETATM    2  C   UNL     1      44.681 -11.896   8.789  1.00  0.00     0.150 C 
ENDROOT
BRANCH   2   3
HETATM    3  N   UNL     1      44.411 -13.318   8.654  1.00  0.00    -0.346 N 
HETATM    4  C   UNL     1      44.472 -13.939   7.433  1.00  0.00     0.241 C 
HETATM    5  O   UNL     1      44.806 -13.373   6.398  1.00  0.00    -0.269 OA
HETATM    6  H   UNL     1      43.900 -13.755   9.410  1.00  0.00     0.163 HD
BRANCH   4   7
HETATM    7  C   UNL     1      44.063 -15.363   7.483  1.00  0.00     0.075 C 
HETATM    8  C   UNL     1      44.654 -16.256   6.672  1.00  0.00     0.017 C 
BRANCH   8   9
HETATM    9  C   UNL     1      44.379 -17.662   6.627  1.00  0.00    -0.029 A 
HETATM   10  C   UNL     1      44.698 -18.426   5.521  1.00  0.00     0.061 A 
HETATM   11  S   UNL     1      44.276 -20.074   5.716  1.00  0.00    -0.113 SA
HETATM   12  C   UNL     1      43.665 -19.784   7.285  1.00  0.00     0.050 A 
HETATM   13  C   UNL     1      43.778 -18.460   7.651  1.00  0.00     0.019 A 
ENDBRANCH   8   9
ENDBRANCH   4   7
ENDBRANCH   2   3
BRANCH   2  14
HETATM   14  C   UNL     1      44.047 -11.420  10.061  1.00  0.00     0.127 A 
HETATM   15  N   UNL     1      44.551 -10.601  10.964  1.00  0.00    -0.231 NA
HETATM   16  C   UNL     1      43.586 -10.488  11.936  1.00  0.00     0.085 A 
HETATM   17  C   UNL     1      42.475 -11.265  11.629  1.00  0.00     0.062 A 
HETATM   18  C   UNL     1      43.590  -9.737  13.120  1.00  0.00     0.034 A 
HETATM   19  N   UNL     1      42.798 -11.858  10.438  1.00  0.00    -0.341 N 
HETATM   20  C   UNL     1      41.345 -11.345  12.445  1.00  0.00     0.032 A 
HETATM   21  H   UNL     1      42.246 -12.537   9.927  1.00  0.00     0.167 HD
HETATM   22  C   UNL     1      41.366 -10.587  13.622  1.00  0.00     0.002 A 
HETATM   23  C   UNL     1      42.469  -9.795  13.957  1.00  0.00     0.002 A 
ENDBRANCH   2  14
TORSDOF 4
ENDMDL
MODEL 2
REMARK VINA RESULT:      -7.3      6.568     10.062
REMARK  4 active torsions:
REMARK  status: ('A' for Active; 'I' for Inactive)
REMARK    1  A    between atoms: C_2  and  N_3 
REMARK    2  A    between atoms: C_2  and  C_13 
REMARK       I    between atoms: N_3  and  C_4 
REMARK    3  A    between atoms: C_4  and  C_5 
REMARK    4  A    between atoms: C_6  and  C_7 
ROOT
HETATM    1  C   UNL     1      44.730 -16.796   6.572  1.00  0.00     0.040 C 
HETATM    2  C   UNL     1      43.468 -17.457   6.028  1.00  0.00     0.150 C 
ENDROOT
BRANCH   2   3
HETATM    3  N   UNL     1      42.761 -16.549   5.140  1.00  0.00    -0.346 N 
HETATM    4  C   UNL     1      41.408 -16.357   5.254  1.00  0.00     0.241 C 
HETATM    5  O   UNL     1      40.718 -16.876   6.124  1.00  0.00    -0.269 OA
HETATM    6  H   UNL     1      43.228 -16.306   4.276  1.00  0.00     0.163 HD
BRANCH   4   7
HETATM    7  C   UNL     1      40.854 -15.479   4.196  1.00  0.00     0.075 C 
HETATM    8  C   UNL     1      40.661 -15.964   2.959  1.00  0.00     0.017 C 
BRANCH   8   9
HETATM    9  C   UNL     1      40.114 -15.242   1.848  1.00  0.00    -0.029 A 
HETATM   10  C   UNL     1      40.862 -14.984   0.715  1.00  0.00     0.061 A 
HETATM   11  S   UNL     1      39.982 -14.115  -0.469  1.00  0.00    -0.113 SA
HETATM   12  C   UNL     1      38.589 -14.077   0.519  1.00  0.00     0.050 A 
HETATM   13  C   UNL     1      38.792 -14.712   1.727  1.00  0.00     0.019 A 
ENDBRANCH   8   9
ENDBRANCH   4   7
ENDBRANCH   2   3
BRANCH   2  14
HETATM   14  C   UNL     1      43.774 -18.710   5.264  1.00  0.00     0.127 A 
HETATM   15  N   UNL     1      44.235 -19.855   5.730  1.00  0.00    -0.231 NA
HETATM   16  C   UNL     1      44.349 -20.677   4.635  1.00  0.00     0.085 A 
HETATM   17  C   UNL     1      43.965 -20.018   3.473  1.00  0.00     0.062 A 
HETATM   18  C   UNL     1      44.783 -22.009   4.555  1.00  0.00     0.034 A 
HETATM   19  N   UNL     1      43.615 -18.765   3.898  1.00  0.00    -0.341 N 
HETATM   20  C   UNL     1      43.986 -20.613   2.211  1.00  0.00     0.032 A 
HETATM   21  H   UNL     1      43.327 -17.985   3.319  1.00  0.00     0.167 HD
HETATM   22  C   UNL     1      44.419 -21.943   2.151  1.00  0.00     0.002 A 
HETATM   23  C   UNL     1      44.811 -22.633   3.302  1.00  0.00     0.002 A 
ENDBRANCH   2  14
TORSDOF 4
ENDMDL
MODEL 3
REMARK VINA RESULT:      -7.3      7.785     10.154
REMARK  4 active torsions:
REMARK  status: ('A' for Active; 'I' for Inactive)
REMARK    1  A    between atoms: C_2  and  N_3 
REMARK    2  A    between atoms: C_2  and  C_13 
REMARK       I    between atoms: N_3  and  C_4 
REMARK    3  A    between atoms: C_4  and  C_5 
REMARK    4  A    between atoms: C_6  and  C_7 
ROOT
HETATM    1  C   UNL     1      39.703 -14.601   3.063  1.00  0.00     0.040 C 
HETATM    2  C   UNL     1      41.099 -14.952   2.561  1.00  0.00     0.150 C 
ENDROOT
BRANCH   2   3
HETATM    3  N   UNL     1      41.394 -16.351   2.816  1.00  0.00    -0.346 N 
HETATM    4  C   UNL     1      42.436 -16.720   3.628  1.00  0.00     0.241 C 
HETATM    5  O   UNL     1      43.144 -15.921   4.232  1.00  0.00    -0.269 OA
HETATM    6  H   UNL     1      41.013 -17.021   2.160  1.00  0.00     0.163 HD
BRANCH   4   7
HETATM    7  C   UNL     1      42.643 -18.187   3.681  1.00  0.00     0.075 C 
HETATM    8  C   UNL     1      43.890 -18.685   3.686  1.00  0.00     0.017 C 
BRANCH   8   9
HETATM    9  C   UNL     1      44.241 -20.074   3.757  1.00  0.00    -0.029 A 
HETATM   10  C   UNL     1      44.699 -20.644   4.928  1.00  0.00     0.061 A 
HETATM   11  S   UNL     1      45.041 -22.313   4.756  1.00  0.00    -0.113 SA
HETATM   12  C   UNL     1      44.576 -22.292   3.113  1.00  0.00     0.050 A 
HETATM   13  C   UNL     1      44.171 -21.038   2.704  1.00  0.00     0.019 A 
ENDBRANCH   8   9
ENDBRANCH   4   7
ENDBRANCH   2   3
BRANCH   2  14
HETATM   14  C   UNL     1      41.246 -14.705   1.090  1.00  0.00     0.127 A 
HETATM   15  N   UNL     1      41.759 -13.649   0.489  1.00  0.00    -0.231 NA
HETATM   16  C   UNL     1      41.658 -13.907  -0.857  1.00  0.00     0.085 A 
HETATM   17  C   UNL     1      41.057 -15.140  -1.085  1.00  0.00     0.062 A 
HETATM   18  C   UNL     1      42.056 -13.127  -1.952  1.00  0.00     0.034 A 
HETATM   19  N   UNL     1      40.793 -15.622   0.169  1.00  0.00    -0.341 N 
HETATM   20  C   UNL     1      40.822 -15.654  -2.361  1.00  0.00     0.032 A 
HETATM   21  H   UNL     1      40.311 -16.483   0.400  1.00  0.00     0.167 HD
HETATM   22  C   UNL     1      41.229 -14.863  -3.442  1.00  0.00     0.002 A 
HETATM   23  C   UNL     1      41.836 -13.619  -3.245  1.00  0.00     0.002 A 
ENDBRANCH   2  14
TORSDOF 4
ENDMDL
MODEL 4
REMARK VINA RESULT:      -7.2      9.020     11.044
REMARK  4 active torsions:
REMARK  status: ('A' for Active; 'I' for Inactive)
REMARK    1  A    between atoms: C_2  and  N_3 
REMARK    2  A    between atoms: C_2  and  C_13 
REMARK       I    between atoms: N_3  and  C_4 
REMARK    3  A    between atoms: C_4  and  C_5 
REMARK    4  A    between atoms: C_6  and  C_7 
ROOT
HETATM    1  C   UNL     1      40.546 -15.788  -2.961  1.00  0.00     0.040 C 
HETATM    2  C   UNL     1      40.821 -15.153  -1.602  1.00  0.00     0.150 C 
ENDROOT
BRANCH   2   3
HETATM    3  N   UNL     1      41.726 -15.984  -0.826  1.00  0.00    -0.346 N 
HETATM    4  C   UNL     1      41.442 -16.322   0.472  1.00  0.00     0.241 C 
HETATM    5  O   UNL     1      40.406 -16.007   1.046  1.00  0.00    -0.269 OA
HETATM    6  H   UNL     1      42.679 -16.050  -1.161  1.00  0.00     0.163 HD
BRANCH   4   7
HETATM    7  C   UNL     1      42.533 -17.083   1.127  1.00  0.00     0.075 C 
HETATM    8  C   UNL     1      42.242 -18.177   1.851  1.00  0.00     0.017 C 
BRANCH   8   9
HETATM    9  C   UNL     1      43.189 -19.021   2.518  1.00  0.00    -0.029 A 
HETATM   10  C   UNL     1      43.604 -18.761   3.810  1.00  0.00     0.061 A 
HETATM   11  S   UNL     1      44.730 -19.917   4.383  1.00  0.00    -0.113 SA
HETATM   12  C   UNL     1      44.672 -20.780   2.911  1.00  0.00     0.050 A 
HETATM   13  C   UNL     1      43.814 -20.198   2.001  1.00  0.00     0.019 A 
ENDBRANCH   8   9
ENDBRANCH   4   7
ENDBRANCH   2   3
BRANCH   2  14
HETATM   14  C   UNL     1      41.433 -13.792  -1.730  1.00  0.00     0.127 A 
HETATM   15  N   UNL     1      42.096 -13.107  -0.817  1.00  0.00    -0.231 NA
HETATM   16  C   UNL     1      42.442 -11.924  -1.424  1.00  0.00     0.085 A 
HETATM   17  C   UNL     1      41.969 -11.876  -2.731  1.00  0.00     0.062 A 
HETATM   18  C   UNL     1      43.161 -10.832  -0.917  1.00  0.00     0.034 A 
HETATM   19  N   UNL     1      41.321 -13.071  -2.898  1.00  0.00    -0.341 N 
HETATM   20  C   UNL     1      42.171 -10.787  -3.581  1.00  0.00     0.032 A 
HETATM   21  H   UNL     1      40.804 -13.373  -3.715  1.00  0.00     0.167 HD
HETATM   22  C   UNL     1      42.893  -9.708  -3.058  1.00  0.00     0.002 A 
HETATM   23  C   UNL     1      43.382  -9.727  -1.748  1.00  0.00     0.002 A 
ENDBRANCH   2  14
TORSDOF 4
ENDMDL
MODEL 5
REMARK VINA RESULT:      -7.1      7.369     10.652
REMARK  4 active torsions:
REMARK  status: ('A' for Active; 'I' for Inactive)
REMARK    1  A    between atoms: C_2  and  N_3 
REMARK    2  A    between atoms: C_2  and  C_13 
REMARK       I    between atoms: N_3  and  C_4 
REMARK    3  A    between atoms: C_4  and  C_5 
REMARK    4  A    between atoms: C_6  and  C_7 
ROOT
HETATM    1  C   UNL     1      43.231 -15.065   4.390  1.00  0.00     0.040 C 
HETATM    2  C   UNL     1      42.208 -16.098   3.931  1.00  0.00     0.150 C 
ENDROOT
BRANCH   2   3
HETATM    3  N   UNL     1      41.614 -15.699   2.666  1.00  0.00    -0.346 N 
HETATM    4  C   UNL     1      40.421 -15.024   2.625  1.00  0.00     0.241 C 
HETATM    5  O   UNL     1      39.809 -14.663   3.624  1.00  0.00    -0.269 OA
HETATM    6  H   UNL     1      41.941 -16.183   1.840  1.00  0.00     0.163 HD
BRANCH   4   7
HETATM    7  C   UNL     1      39.927 -14.799   1.245  1.00  0.00     0.075 C 
HETATM    8  C   UNL     1      40.786 -14.842   0.213  1.00  0.00     0.017 C 
BRANCH   8   9
HETATM    9  C   UNL     1      40.450 -14.667  -1.169  1.00  0.00    -0.029 A 
HETATM   10  C   UNL     1      39.655 -13.620  -1.592  1.00  0.00     0.061 A 
HETATM   11  S   UNL     1      39.406 -13.627  -3.287  1.00  0.00    -0.113 SA
HETATM   12  C   UNL     1      40.364 -15.029  -3.473  1.00  0.00     0.050 A 
HETATM   13  C   UNL     1      40.860 -15.483  -2.269  1.00  0.00     0.019 A 
ENDBRANCH   8   9
ENDBRANCH   4   7
ENDBRANCH   2   3
BRANCH   2  14
HETATM   14  C   UNL     1      42.821 -17.454   3.751  1.00  0.00     0.127 A 
HETATM   15  N   UNL     1      43.603 -18.111   4.585  1.00  0.00    -0.231 NA
HETATM   16  C   UNL     1      43.898 -19.297   3.956  1.00  0.00     0.085 A 
HETATM   17  C   UNL     1      43.297 -19.361   2.704  1.00  0.00     0.062 A 
HETATM   18  C   UNL     1      44.683 -20.373   4.393  1.00  0.00     0.034 A 
HETATM   19  N   UNL     1      42.627 -18.172   2.592  1.00  0.00    -0.341 N 
HETATM   20  C   UNL     1      43.431 -20.450   1.843  1.00  0.00     0.032 A 
HETATM   21  H   UNL     1      42.109 -17.839   1.787  1.00  0.00     0.167 HD
HETATM   22  C   UNL     1      44.216 -21.517   2.298  1.00  0.00     0.002 A 
HETATM   23  C   UNL     1      44.833 -21.483   3.551  1.00  0.00     0.002 A 
ENDBRANCH   2  14
TORSDOF 4
ENDMDL
MODEL 6
REMARK VINA RESULT:      -7.0      7.433     10.815
REMARK  4 active torsions:
REMARK  status: ('A' for Active; 'I' for Inactive)
REMARK    1  A    between atoms: C_2  and  N_3 
REMARK    2  A    between atoms: C_2  and  C_13 
REMARK       I    between atoms: N_3  and  C_4 
REMARK    3  A    between atoms: C_4  and  C_5 
REMARK    4  A    between atoms: C_6  and  C_7 
ROOT
HETATM    1  C   UNL     1      43.293 -15.522   4.588  1.00  0.00     0.040 C 
HETATM    2  C   UNL     1      42.262 -16.400   3.887  1.00  0.00     0.150 C 
ENDROOT
BRANCH   2   3
HETATM    3  N   UNL     1      41.813 -15.773   2.655  1.00  0.00    -0.346 N 
HETATM    4  C   UNL     1      40.630 -15.083   2.600  1.00  0.00     0.241 C 
HETATM    5  O   UNL     1      39.906 -14.896   3.571  1.00  0.00    -0.269 OA
HETATM    6  H   UNL     1      42.235 -16.107   1.798  1.00  0.00     0.163 HD
BRANCH   4   7
HETATM    7  C   UNL     1      40.295 -14.609   1.236  1.00  0.00     0.075 C 
HETATM    8  C   UNL     1      40.926 -15.135   0.173  1.00  0.00     0.017 C 
BRANCH   8   9
HETATM    9  C   UNL     1      40.691 -14.792  -1.199  1.00  0.00    -0.029 A 
HETATM   10  C   UNL     1      40.249 -13.536  -1.565  1.00  0.00     0.061 A 
HETATM   11  S   UNL     1      40.053 -13.375  -3.258  1.00  0.00    -0.113 SA
HETATM   12  C   UNL     1      40.561 -14.984  -3.522  1.00  0.00     0.050 A 
HETATM   13  C   UNL     1      40.871 -15.631  -2.343  1.00  0.00     0.019 A 
ENDBRANCH   8   9
ENDBRANCH   4   7
ENDBRANCH   2   3
BRANCH   2  14
HETATM   14  C   UNL     1      42.812 -17.752   3.549  1.00  0.00     0.127 A 
HETATM   15  N   UNL     1      42.619 -18.458   2.451  1.00  0.00    -0.231 NA
HETATM   16  C   UNL     1      43.330 -19.620   2.631  1.00  0.00     0.085 A 
HETATM   17  C   UNL     1      43.959 -19.633   3.871  1.00  0.00     0.062 A 
HETATM   18  C   UNL     1      43.483 -20.720   1.776  1.00  0.00     0.034 A 
HETATM   19  N   UNL     1      43.604 -18.439   4.441  1.00  0.00    -0.341 N 
HETATM   20  C   UNL     1      44.745 -20.694   4.322  1.00  0.00     0.032 A 
HETATM   21  H   UNL     1      43.838 -18.116   5.372  1.00  0.00     0.167 HD
HETATM   22  C   UNL     1      44.888 -21.782   3.453  1.00  0.00     0.002 A 
HETATM   23  C   UNL     1      44.269 -21.799   2.200  1.00  0.00     0.002 A 
ENDBRANCH   2  14
TORSDOF 4
ENDMDL
MODEL 7
REMARK VINA RESULT:      -6.9      3.204      3.523
REMARK  4 active torsions:
REMARK  status: ('A' for Active; 'I' for Inactive)
REMARK    1  A    between atoms: C_2  and  N_3 
REMARK    2  A    between atoms: C_2  and  C_13 
REMARK       I    between atoms: N_3  and  C_4 
REMARK    3  A    between atoms: C_4  and  C_5 
REMARK    4  A    between atoms: C_6  and  C_7 
ROOT
HETATM    1  C   UNL     1      41.283  -9.840   6.128  1.00  0.00     0.040 C 
HETATM    2  C   UNL     1      40.777 -10.865   7.137  1.00  0.00     0.150 C 
ENDROOT
BRANCH   2   3
HETATM    3  N   UNL     1      40.965 -12.214   6.630  1.00  0.00    -0.346 N 
HETATM    4  C   UNL     1      39.906 -12.952   6.169  1.00  0.00     0.241 C 
HETATM    5  O   UNL     1      38.759 -12.524   6.095  1.00  0.00    -0.269 OA
HETATM    6  H   UNL     1      41.819 -12.684   6.901  1.00  0.00     0.163 HD
BRANCH   4   7
HETATM    7  C   UNL     1      40.280 -14.336   5.793  1.00  0.00     0.075 C 
HETATM    8  C   UNL     1      41.564 -14.632   5.530  1.00  0.00     0.017 C 
BRANCH   8   9
HETATM    9  C   UNL     1      42.074 -15.925   5.179  1.00  0.00    -0.029 A 
HETATM   10  C   UNL     1      43.332 -16.337   5.573  1.00  0.00     0.061 A 
HETATM   11  S   UNL     1      43.704 -17.920   5.036  1.00  0.00    -0.113 SA
HETATM   12  C   UNL     1      42.183 -18.073   4.273  1.00  0.00     0.050 A 
HETATM   13  C   UNL     1      41.410 -16.941   4.423  1.00  0.00     0.019 A 
ENDBRANCH   8   9
ENDBRANCH   4   7
ENDBRANCH   2   3
BRANCH   2  14
HETATM   14  C   UNL     1      41.489 -10.758   8.452  1.00  0.00     0.127 A 
HETATM   15  N   UNL     1      42.740 -10.403   8.674  1.00  0.00    -0.231 NA
HETATM   16  C   UNL     1      42.904 -10.469  10.036  1.00  0.00     0.085 A 
HETATM   17  C   UNL     1      41.735 -10.889  10.661  1.00  0.00     0.062 A 
HETATM   18  C   UNL     1      44.034 -10.189  10.818  1.00  0.00     0.034 A 
HETATM   19  N   UNL     1      40.853 -11.078   9.631  1.00  0.00    -0.341 N 
HETATM   20  C   UNL     1      41.618 -11.051  12.042  1.00  0.00     0.032 A 
HETATM   21  H   UNL     1      39.906 -11.432   9.698  1.00  0.00     0.167 HD
HETATM   22  C   UNL     1      42.756 -10.763  12.806  1.00  0.00     0.002 A 
HETATM   23  C   UNL     1      43.946 -10.339  12.208  1.00  0.00     0.002 A 
ENDBRANCH   2  14
TORSDOF 4
ENDMDL
MODEL 8
REMARK VINA RESULT:      -6.8      6.460     10.193
REMARK  4 active torsions:
REMARK  status: ('A' for Active; 'I' for Inactive)
REMARK    1  A    between atoms: C_2  and  N_3 
REMARK    2  A    between atoms: C_2  and  C_13 
REMARK       I    between atoms: N_3  and  C_4 
REMARK    3  A    between atoms: C_4  and  C_5 
REMARK    4  A    between atoms: C_6  and  C_7 
ROOT
HETATM    1  C   UNL     1      44.536 -16.624   6.468  1.00  0.00     0.040 C 
HETATM    2  C   UNL     1      43.235 -17.143   5.865  1.00  0.00     0.150 C 
ENDROOT
BRANCH   2   3
HETATM    3  N   UNL     1      42.544 -16.079   5.155  1.00  0.00    -0.346 N 
HETATM    4  C   UNL     1      41.233 -15.783   5.426  1.00  0.00     0.241 C 
HETATM    5  O   UNL     1      40.577 -16.336   6.302  1.00  0.00    -0.269 OA
HETATM    6  H   UNL     1      42.952 -15.781   4.279  1.00  0.00     0.163 HD
BRANCH   4   7
HETATM    7  C   UNL     1      40.675 -14.743   4.529  1.00  0.00     0.075 C 
HETATM    8  C   UNL     1      39.996 -13.706   5.049  1.00  0.00     0.017 C 
BRANCH   8   9
HETATM    9  C   UNL     1      39.423 -12.620   4.310  1.00  0.00    -0.029 A 
HETATM   10  C   UNL     1      39.444 -12.595   2.930  1.00  0.00     0.061 A 
HETATM   11  S   UNL     1      38.690 -11.198   2.286  1.00  0.00    -0.113 SA
HETATM   12  C   UNL     1      38.323 -10.614   3.849  1.00  0.00     0.050 A 
HETATM   13  C   UNL     1      38.768 -11.464   4.839  1.00  0.00     0.019 A 
ENDBRANCH   8   9
ENDBRANCH   4   7
ENDBRANCH   2   3
BRANCH   2  14
HETATM   14  C   UNL     1      43.471 -18.268   4.903  1.00  0.00     0.127 A 
HETATM   15  N   UNL     1      43.089 -18.355   3.643  1.00  0.00    -0.231 NA
HETATM   16  C   UNL     1      43.543 -19.576   3.206  1.00  0.00     0.085 A 
HETATM   17  C   UNL     1      44.202 -20.258   4.223  1.00  0.00     0.062 A 
HETATM   18  C   UNL     1      43.423 -20.178   1.944  1.00  0.00     0.034 A 
HETATM   19  N   UNL     1      44.132 -19.410   5.295  1.00  0.00    -0.341 N 
HETATM   20  C   UNL     1      44.760 -21.526   4.060  1.00  0.00     0.032 A 
HETATM   21  H   UNL     1      44.465 -19.590   6.235  1.00  0.00     0.167 HD
HETATM   22  C   UNL     1      44.634 -22.110   2.793  1.00  0.00     0.002 A 
HETATM   23  C   UNL     1      43.977 -21.450   1.750  1.00  0.00     0.002 A 
ENDBRANCH   2  14
TORSDOF 4
ENDMDL
MODEL 9
REMARK VINA RESULT:      -6.8      5.595     10.144
REMARK  4 active torsions:
REMARK  status: ('A' for Active; 'I' for Inactive)
REMARK    1  A    between atoms: C_2  and  N_3 
REMARK    2  A    between atoms: C_2  and  C_13 
REMARK       I    between atoms: N_3  and  C_4 
REMARK    3  A    between atoms: C_4  and  C_5 
REMARK    4  A    between atoms: C_6  and  C_7 
ROOT
HETATM    1  C   UNL     1      41.105 -16.345   1.216  1.00  0.00     0.040 C 
HETATM    2  C   UNL     1      42.345 -16.176   2.089  1.00  0.00     0.150 C 
ENDROOT
BRANCH   2   3
HETATM    3  N   UNL     1      42.017 -15.447   3.302  1.00  0.00    -0.346 N 
HETATM    4  C   UNL     1      42.517 -14.191   3.532  1.00  0.00     0.241 C 
HETATM    5  O   UNL     1      43.212 -13.578   2.729  1.00  0.00    -0.269 OA
HETATM    6  H   UNL     1      41.669 -15.994   4.079  1.00  0.00     0.163 HD
BRANCH   4   7
HETATM    7  C   UNL     1      42.156 -13.656   4.867  1.00  0.00     0.075 C 
HETATM    8  C   UNL     1      41.266 -12.655   4.967  1.00  0.00     0.017 C 
BRANCH   8   9
HETATM    9  C   UNL     1      40.807 -12.056   6.186  1.00  0.00    -0.029 A 
HETATM   10  C   UNL     1      41.570 -11.128   6.867  1.00  0.00     0.061 A 
HETATM   11  S   UNL     1      40.800 -10.558   8.286  1.00  0.00    -0.113 SA
HETATM   12  C   UNL     1      39.434 -11.544   8.002  1.00  0.00     0.050 A 
HETATM   13  C   UNL     1      39.564 -12.293   6.852  1.00  0.00     0.019 A 
ENDBRANCH   8   9
ENDBRANCH   4   7
ENDBRANCH   2   3
BRANCH   2  14
HETATM   14  C   UNL     1      42.939 -17.494   2.483  1.00  0.00     0.127 A 
HETATM   15  N   UNL     1      43.620 -17.786   3.575  1.00  0.00    -0.231 NA
HETATM   16  C   UNL     1      43.945 -19.116   3.460  1.00  0.00     0.085 A 
HETATM   17  C   UNL     1      43.467 -19.646   2.267  1.00  0.00     0.062 A 
HETATM   18  C   UNL     1      44.658 -19.944   4.340  1.00  0.00     0.034 A 
HETATM   19  N   UNL     1      42.841 -18.592   1.658  1.00  0.00    -0.341 N 
HETATM   20  C   UNL     1      43.658 -20.975   1.887  1.00  0.00     0.032 A 
HETATM   21  H   UNL     1      42.411 -18.587   0.740  1.00  0.00     0.167 HD
HETATM   22  C   UNL     1      44.368 -21.787   2.779  1.00  0.00     0.002 A 
HETATM   23  C   UNL     1      44.862 -21.284   3.986  1.00  0.00     0.002 A 
ENDBRANCH   2  14
TORSDOF 4
ENDMDL
MODEL 10
REMARK VINA RESULT:      -6.5      6.952     10.246
REMARK  4 active torsions:
REMARK  status: ('A' for Active; 'I' for Inactive)
REMARK    1  A    between atoms: C_2  and  N_3 
REMARK    2  A    between atoms: C_2  and  C_13 
REMARK       I    between atoms: N_3  and  C_4 
REMARK    3  A    between atoms: C_4  and  C_5 
REMARK    4  A    between atoms: C_6  and  C_7 
ROOT
HETATM    1  C   UNL     1      40.726 -14.537   5.473  1.00  0.00     0.040 C 
HETATM    2  C   UNL     1      40.485 -15.306   4.178  1.00  0.00     0.150 C 
ENDROOT
BRANCH   2   3
HETATM    3  N   UNL     1      40.623 -14.425   3.030  1.00  0.00    -0.346 N 
HETATM    4  C   UNL     1      39.804 -14.550   1.938  1.00  0.00     0.241 C 
HETATM    5  O   UNL     1      38.880 -15.353   1.868  1.00  0.00    -0.269 OA
HETATM    6  H   UNL     1      41.504 -13.935   2.939  1.00  0.00     0.163 HD
BRANCH   4   7
HETATM    7  C   UNL     1      40.167 -13.634   0.830  1.00  0.00     0.075 C 
HETATM    8  C   UNL     1      41.357 -13.763   0.220  1.00  0.00     0.017 C 
BRANCH   8   9
HETATM    9  C   UNL     1      41.832 -12.968  -0.874  1.00  0.00    -0.029 A 
HETATM   10  C   UNL     1      41.617 -13.342  -2.186  1.00  0.00     0.061 A 
HETATM   11  S   UNL     1      42.274 -12.224  -3.305  1.00  0.00    -0.113 SA
HETATM   12  C   UNL     1      42.850 -11.224  -2.045  1.00  0.00     0.050 A 
HETATM   13  C   UNL     1      42.550 -11.733  -0.799  1.00  0.00     0.019 A 
ENDBRANCH   8   9
ENDBRANCH   4   7
ENDBRANCH   2   3
BRANCH   2  14
HETATM   14  C   UNL     1      41.446 -16.443   4.011  1.00  0.00     0.127 A 
HETATM   15  N   UNL     1      42.332 -16.894   4.878  1.00  0.00    -0.231 NA
HETATM   16  C   UNL     1      42.966 -17.937   4.247  1.00  0.00     0.085 A 
HETATM   17  C   UNL     1      42.469 -18.119   2.961  1.00  0.00     0.062 A 
HETATM   18  C   UNL     1      43.987 -18.779   4.712  1.00  0.00     0.034 A 
HETATM   19  N   UNL     1      41.512 -17.148   2.830  1.00  0.00    -0.341 N 
HETATM   20  C   UNL     1      42.936 -19.105   2.091  1.00  0.00     0.032 A 
HETATM   21  H   UNL     1      40.967 -16.940   2.002  1.00  0.00     0.167 HD
HETATM   22  C   UNL     1      43.952 -19.938   2.573  1.00  0.00     0.002 A 
HETATM   23  C   UNL     1      44.472 -19.781   3.861  1.00  0.00     0.002 A 
ENDBRANCH   2  14
TORSDOF 4
ENDMDL
