MODEL 1
REMARK VINA RESULT:      -8.8      0.000      0.000
REMARK  5 active torsions:
REMARK  status: ('A' for Active; 'I' for Inactive)
REMARK    1  A    between atoms: C_5  and  N_6 
REMARK       I    between atoms: N_6  and  C_7 
REMARK       I    between atoms: C_7  and  N_8 
REMARK    2  A    between atoms: N_8  and  C_9 
REMARK    3  A    between atoms: C_12  and  C_13 
REMARK    4  A    between atoms: C_13  and  C_14 
REMARK       I    between atoms: C_14  and  N_15 
REMARK    5  A    between atoms: N_15  and  C_16 
ROOT
HETATM    1  C   UNL     1      41.844 -12.977   1.663  1.00  0.00     0.174 A 
HETATM    2  S   UNL     1      41.957 -12.016   0.265  1.00  0.00    -0.062 SA
HETATM    3  C   UNL     1      41.769 -13.427  -0.695  1.00  0.00     0.081 A 
HETATM    4  C   UNL     1      41.633 -14.540   0.117  1.00  0.00     0.052 A 
HETATM    5  N   UNL     1      41.690 -14.268   1.484  1.00  0.00    -0.228 NA
ENDROOT
BRANCH   1   6
HETATM    6  N   UNL     1      41.904 -12.301   2.843  1.00  0.00    -0.287 N 
HETATM    7  C   UNL     1      42.147 -12.844   4.076  1.00  0.00     0.326 C 
HETATM    8  N   UNL     1      42.494 -14.169   4.104  1.00  0.00    -0.309 N 
HETATM    9  O   UNL     1      42.032 -12.106   5.053  1.00  0.00    -0.247 OA
HETATM   10  H   UNL     1      42.692 -14.577   3.196  1.00  0.00     0.170 HD
HETATM   11  H   UNL     1      41.673 -11.318   2.841  1.00  0.00     0.172 HD
BRANCH   8  12
HETATM   12  C   UNL     1      42.689 -15.001   5.222  1.00  0.00     0.036 A 
HETATM   13  C   UNL     1      41.738 -15.903   5.698  1.00  0.00     0.030 A 
HETATM   14  C   UNL     1      42.021 -16.714   6.804  1.00  0.00     0.009 A 
HETATM   15  C   UNL     1      43.262 -16.642   7.444  1.00  0.00    -0.062 A 
HETATM   16  C   UNL     1      43.540 -17.492   8.648  1.00  0.00     0.048 C 
HETATM   17  C   UNL     1      44.213 -15.734   6.971  1.00  0.00     0.009 A 
HETATM   18  C   UNL     1      43.930 -14.924   5.867  1.00  0.00     0.030 A 
ENDBRANCH   8  12
ENDBRANCH   1   6
BRANCH   4  19
HETATM   19  C   UNL     1      41.445 -15.959  -0.323  1.00  0.00     0.163 C 
BRANCH  19  20
HETATM   20  C   UNL     1      41.614 -16.992   0.787  1.00  0.00     0.227 C 
HETATM   21  N   UNL     1      42.925 -17.250   1.146  1.00  0.00    -0.327 N 
HETATM   22  H   UNL     1      43.624 -16.631   0.739  1.00  0.00     0.169 HD
HETATM   23  O   UNL     1      40.626 -17.570   1.235  1.00  0.00    -0.273 OA
BRANCH  21  24
HETATM   24  C   UNL     1      43.411 -18.223   2.041  1.00  0.00     0.036 A 
HETATM   25  C   UNL     1      43.645 -19.556   1.697  1.00  0.00     0.056 A 
HETATM   26  C   UNL     1      44.159 -20.445   2.647  1.00  0.00     0.074 A 
HETATM   27 CL   UNL     1      44.456 -22.082   2.202  1.00  0.00    -0.081 Cl
HETATM   28  C   UNL     1      44.434 -20.005   3.940  1.00  0.00     0.138 A 
HETATM   29  F   UNL     1      44.930 -20.843   4.861  1.00  0.00    -0.204 F 
HETATM   30  C   UNL     1      44.201 -18.683   4.296  1.00  0.00     0.046 A 
HETATM   31  C   UNL     1      43.689 -17.794   3.348  1.00  0.00     0.032 A 
ENDBRANCH  21  24
ENDBRANCH  19  20
ENDBRANCH   4  19
TORSDOF 5
ENDMDL
MODEL 2
REMARK VINA RESULT:      -8.3      5.960      9.223
REMARK  5 active torsions:
REMARK  status: ('A' for Active; 'I' for Inactive)
REMARK    1  A    between atoms: C_5  and  N_6 
REMARK       I    between atoms: N_6  and  C_7 
REMARK       I    between atoms: C_7  and  N_8 
REMARK    2  A    between atoms: N_8  and  C_9 
REMARK    3  A    between atoms: C_12  and  C_13 
REMARK    4  A    between atoms: C_13  and  C_14 
REMARK       I    between atoms: C_14  and  N_15 
REMARK    5  A    between atoms: N_15  and  C_16 
ROOT
HETATM    1  C   UNL     1      43.753 -15.797   7.224  1.00  0.00     0.174 A 
HETATM    2  S   UNL     1      42.912 -15.136   5.902  1.00  0.00    -0.062 SA
HETATM    3  C   UNL     1      43.920 -13.747   5.984  1.00  0.00     0.081 A 
HETATM    4  C   UNL     1      44.831 -13.881   7.017  1.00  0.00     0.052 A 
HETATM    5  N   UNL     1      44.718 -15.070   7.737  1.00  0.00    -0.228 NA
ENDROOT
BRANCH   1   6
HETATM    6  N   UNL     1      43.351 -17.040   7.609  1.00  0.00    -0.287 N 
HETATM    7  C   UNL     1      43.391 -18.176   6.847  1.00  0.00     0.326 C 
HETATM    8  N   UNL     1      44.017 -18.077   5.632  1.00  0.00    -0.309 N 
HETATM    9  O   UNL     1      42.864 -19.187   7.307  1.00  0.00    -0.247 OA
HETATM   10  H   UNL     1      44.528 -17.213   5.486  1.00  0.00     0.170 HD
HETATM   11  H   UNL     1      42.908 -17.140   8.511  1.00  0.00     0.172 HD
BRANCH   8  12
HETATM   12  C   UNL     1      44.107 -19.041   4.610  1.00  0.00     0.036 A 
HETATM   13  C   UNL     1      44.767 -20.262   4.747  1.00  0.00     0.030 A 
HETATM   14  C   UNL     1      44.789 -21.178   3.689  1.00  0.00     0.009 A 
HETATM   15  C   UNL     1      44.144 -20.891   2.481  1.00  0.00    -0.062 A 
HETATM   16  C   UNL     1      44.205 -21.866   1.344  1.00  0.00     0.048 C 
HETATM   17  C   UNL     1      43.489 -19.665   2.342  1.00  0.00     0.009 A 
HETATM   18  C   UNL     1      43.467 -18.750   3.399  1.00  0.00     0.030 A 
ENDBRANCH   8  12
ENDBRANCH   1   6
BRANCH   4  19
HETATM   19  C   UNL     1      45.885 -12.897   7.421  1.00  0.00     0.163 C 
BRANCH  19  20
HETATM   20  C   UNL     1      45.480 -11.973   8.566  1.00  0.00     0.227 C 
HETATM   21  N   UNL     1      44.265 -12.274   9.154  1.00  0.00    -0.327 N 
HETATM   22  H   UNL     1      43.839 -13.152   8.862  1.00  0.00     0.169 HD
HETATM   23  O   UNL     1      46.188 -11.007   8.846  1.00  0.00    -0.273 OA
BRANCH  21  24
HETATM   24  C   UNL     1      43.568 -11.550  10.141  1.00  0.00     0.036 A 
HETATM   25  C   UNL     1      42.663 -10.522   9.866  1.00  0.00     0.056 A 
HETATM   26  C   UNL     1      41.994  -9.880  10.912  1.00  0.00     0.074 A 
HETATM   27 CL   UNL     1      40.870  -8.624  10.555  1.00  0.00    -0.081 Cl
HETATM   28  C   UNL     1      42.230 -10.259  12.231  1.00  0.00     0.138 A 
HETATM   29  F   UNL     1      41.594  -9.655  13.245  1.00  0.00    -0.204 F 
HETATM   30  C   UNL     1      43.131 -11.276  12.519  1.00  0.00     0.046 A 
HETATM   31  C   UNL     1      43.799 -11.919  11.475  1.00  0.00     0.032 A 
ENDBRANCH  21  24
ENDBRANCH  19  20
ENDBRANCH   4  19
TORSDOF 5
ENDMDL
MODEL 3
REMARK VINA RESULT:      -8.3      4.216      5.320
REMARK  5 active torsions:
REMARK  status: ('A' for Active; 'I' for Inactive)
REMARK    1  A    between atoms: C_5  and  N_6 
REMARK       I    between atoms: N_6  and  C_7 
REMARK       I    between atoms: C_7  and  N_8 
REMARK    2  A    between atoms: N_8  and  C_9 
REMARK    3  A    between atoms: C_12  and  C_13 
REMARK    4  A    between atoms: C_13  and  C_14 
REMARK       I    between atoms: C_14  and  N_15 
REMARK    5  A    between atoms: N_15  and  C_16 
ROOT
HETATM    1  C   UNL     1      44.229 -14.174   6.329  1.00  0.00     0.174 A 
HETATM    2  S   UNL     1      43.676 -13.396   4.922  1.00  0.00    -0.062 SA
HETATM    3  C   UNL     1      42.338 -14.473   4.880  1.00  0.00     0.081 A 
HETATM    4  C   UNL     1      42.404 -15.355   5.944  1.00  0.00     0.052 A 
HETATM    5  N   UNL     1      43.513 -15.180   6.772  1.00  0.00    -0.228 NA
ENDROOT
BRANCH   1   6
HETATM    6  N   UNL     1      45.364 -13.654   6.876  1.00  0.00    -0.287 N 
HETATM    7  C   UNL     1      45.439 -12.886   8.007  1.00  0.00     0.326 C 
HETATM    8  N   UNL     1      44.283 -12.741   8.727  1.00  0.00    -0.309 N 
HETATM    9  O   UNL     1      46.529 -12.390   8.283  1.00  0.00    -0.247 OA
HETATM   10  H   UNL     1      43.522 -13.347   8.437  1.00  0.00     0.170 HD
HETATM   11  H   UNL     1      46.231 -13.769   6.373  1.00  0.00     0.172 HD
BRANCH   8  12
HETATM   12  C   UNL     1      44.047 -11.930   9.853  1.00  0.00     0.036 A 
HETATM   13  C   UNL     1      43.809 -10.558   9.789  1.00  0.00     0.030 A 
HETATM   14  C   UNL     1      43.558  -9.827  10.956  1.00  0.00     0.009 A 
HETATM   15  C   UNL     1      43.531 -10.459  12.204  1.00  0.00    -0.062 A 
HETATM   16  C   UNL     1      43.294  -9.658  13.450  1.00  0.00     0.048 C 
HETATM   17  C   UNL     1      43.775 -11.833  12.269  1.00  0.00     0.009 A 
HETATM   18  C   UNL     1      44.027 -12.563  11.102  1.00  0.00     0.030 A 
ENDBRANCH   8  12
ENDBRANCH   1   6
BRANCH   4  19
HETATM   19  C   UNL     1      41.433 -16.447   6.271  1.00  0.00     0.163 C 
BRANCH  19  20
HETATM   20  C   UNL     1      41.685 -17.758   5.532  1.00  0.00     0.227 C 
HETATM   21  N   UNL     1      43.018 -18.053   5.306  1.00  0.00    -0.327 N 
HETATM   22  H   UNL     1      43.689 -17.445   5.774  1.00  0.00     0.169 HD
HETATM   23  O   UNL     1      40.731 -18.421   5.127  1.00  0.00    -0.273 OA
BRANCH  21  24
HETATM   24  C   UNL     1      43.565 -19.113   4.559  1.00  0.00     0.036 A 
HETATM   25  C   UNL     1      44.195 -20.225   5.123  1.00  0.00     0.056 A 
HETATM   26  C   UNL     1      44.681 -21.246   4.299  1.00  0.00     0.074 A 
HETATM   27 CL   UNL     1      45.441 -22.618   5.011  1.00  0.00    -0.081 Cl
HETATM   28  C   UNL     1      44.544 -21.156   2.917  1.00  0.00     0.138 A 
HETATM   29  F   UNL     1      45.002 -22.128   2.115  1.00  0.00    -0.204 F 
HETATM   30  C   UNL     1      43.924 -20.053   2.343  1.00  0.00     0.046 A 
HETATM   31  C   UNL     1      43.437 -19.033   3.164  1.00  0.00     0.032 A 
ENDBRANCH  21  24
ENDBRANCH  19  20
ENDBRANCH   4  19
TORSDOF 5
ENDMDL
MODEL 4
REMARK VINA RESULT:      -8.2      4.422      5.323
REMARK  5 active torsions:
REMARK  status: ('A' for Active; 'I' for Inactive)
REMARK    1  A    between atoms: C_5  and  N_6 
REMARK       I    between atoms: N_6  and  C_7 
REMARK       I    between atoms: C_7  and  N_8 
REMARK    2  A    between atoms: N_8  and  C_9 
REMARK    3  A    between atoms: C_12  and  C_13 
REMARK    4  A    between atoms: C_13  and  C_14 
REMARK       I    between atoms: C_14  and  N_15 
REMARK    5  A    between atoms: N_15  and  C_16 
ROOT
HETATM    1  C   UNL     1      42.039 -12.856   6.030  1.00  0.00     0.174 A 
HETATM    2  S   UNL     1      40.677 -13.700   5.459  1.00  0.00    -0.062 SA
HETATM    3  C   UNL     1      41.541 -15.173   5.645  1.00  0.00     0.081 A 
HETATM    4  C   UNL     1      42.812 -14.922   6.130  1.00  0.00     0.052 A 
HETATM    5  N   UNL     1      43.094 -13.572   6.338  1.00  0.00    -0.228 NA
ENDROOT
BRANCH   1   6
HETATM    6  N   UNL     1      41.889 -11.506   6.131  1.00  0.00    -0.287 N 
HETATM    7  C   UNL     1      42.040 -10.758   7.268  1.00  0.00     0.326 C 
HETATM    8  N   UNL     1      42.517 -11.412   8.373  1.00  0.00    -0.309 N 
HETATM    9  O   UNL     1      41.736  -9.568   7.208  1.00  0.00    -0.247 OA
HETATM   10  H   UNL     1      42.862 -12.350   8.196  1.00  0.00     0.170 HD
HETATM   11  H   UNL     1      41.559 -11.001   5.322  1.00  0.00     0.172 HD
BRANCH   8  12
HETATM   12  C   UNL     1      42.664 -10.925   9.685  1.00  0.00     0.036 A 
HETATM   13  C   UNL     1      41.597 -10.656  10.541  1.00  0.00     0.030 A 
HETATM   14  C   UNL     1      41.831 -10.197  11.842  1.00  0.00     0.009 A 
HETATM   15  C   UNL     1      43.135 -10.008  12.311  1.00  0.00    -0.062 A 
HETATM   16  C   UNL     1      43.370  -9.483  13.696  1.00  0.00     0.048 C 
HETATM   17  C   UNL     1      44.205 -10.272  11.451  1.00  0.00     0.009 A 
HETATM   18  C   UNL     1      43.971 -10.730  10.151  1.00  0.00     0.030 A 
ENDBRANCH   8  12
ENDBRANCH   1   6
BRANCH   4  19
HETATM   19  C   UNL     1      43.877 -15.930   6.432  1.00  0.00     0.163 C 
BRANCH  19  20
HETATM   20  C   UNL     1      43.599 -17.326   5.883  1.00  0.00     0.227 C 
HETATM   21  N   UNL     1      44.286 -17.643   4.725  1.00  0.00    -0.327 N 
HETATM   22  H   UNL     1      45.003 -16.977   4.441  1.00  0.00     0.169 HD
HETATM   23  O   UNL     1      42.760 -18.039   6.431  1.00  0.00    -0.273 OA
BRANCH  21  24
HETATM   24  C   UNL     1      44.160 -18.791   3.919  1.00  0.00     0.036 A 
HETATM   25  C   UNL     1      44.540 -20.074   4.319  1.00  0.00     0.056 A 
HETATM   26  C   UNL     1      44.347 -21.162   3.461  1.00  0.00     0.074 A 
HETATM   27 CL   UNL     1      44.808 -22.739   3.976  1.00  0.00    -0.081 Cl
HETATM   28  C   UNL     1      43.780 -20.969   2.204  1.00  0.00     0.138 A 
HETATM   29  F   UNL     1      43.585 -22.001   1.371  1.00  0.00    -0.204 F 
HETATM   30  C   UNL     1      43.401 -19.697   1.792  1.00  0.00     0.046 A 
HETATM   31  C   UNL     1      43.592 -18.611   2.648  1.00  0.00     0.032 A 
ENDBRANCH  21  24
ENDBRANCH  19  20
ENDBRANCH   4  19
TORSDOF 5
ENDMDL
MODEL 5
REMARK VINA RESULT:      -8.2      4.069      7.403
REMARK  5 active torsions:
REMARK  status: ('A' for Active; 'I' for Inactive)
REMARK    1  A    between atoms: C_5  and  N_6 
REMARK       I    between atoms: N_6  and  C_7 
REMARK       I    between atoms: C_7  and  N_8 
REMARK    2  A    between atoms: N_8  and  C_9 
REMARK    3  A    between atoms: C_12  and  C_13 
REMARK    4  A    between atoms: C_13  and  C_14 
REMARK       I    between atoms: C_14  and  N_15 
REMARK    5  A    between atoms: N_15  and  C_16 
ROOT
HETATM    1  C   UNL     1      44.306 -20.091   5.405  1.00  0.00     0.174 A 
HETATM    2  S   UNL     1      43.977 -21.527   6.255  1.00  0.00    -0.062 SA
HETATM    3  C   UNL     1      43.772 -20.604   7.689  1.00  0.00     0.081 A 
HETATM    4  C   UNL     1      43.969 -19.261   7.423  1.00  0.00     0.052 A 
HETATM    5  N   UNL     1      44.290 -18.976   6.096  1.00  0.00    -0.228 NA
ENDROOT
BRANCH   1   6
HETATM    6  N   UNL     1      44.533 -20.241   4.070  1.00  0.00    -0.287 N 
HETATM    7  C   UNL     1      43.977 -19.496   3.065  1.00  0.00     0.326 C 
HETATM    8  N   UNL     1      43.228 -18.415   3.447  1.00  0.00    -0.309 N 
HETATM    9  O   UNL     1      44.191 -19.856   1.909  1.00  0.00    -0.247 OA
HETATM   10  H   UNL     1      43.290 -18.180   4.432  1.00  0.00     0.170 HD
HETATM   11  H   UNL     1      45.101 -21.019   3.769  1.00  0.00     0.172 HD
BRANCH   8  12
HETATM   12  C   UNL     1      42.460 -17.552   2.642  1.00  0.00     0.036 A 
HETATM   13  C   UNL     1      41.071 -17.457   2.707  1.00  0.00     0.030 A 
HETATM   14  C   UNL     1      40.384 -16.553   1.887  1.00  0.00     0.009 A 
HETATM   15  C   UNL     1      41.076 -15.724   0.999  1.00  0.00    -0.062 A 
HETATM   16  C   UNL     1      40.326 -14.784   0.103  1.00  0.00     0.048 C 
HETATM   17  C   UNL     1      42.469 -15.824   0.929  1.00  0.00     0.009 A 
HETATM   18  C   UNL     1      43.154 -16.727   1.748  1.00  0.00     0.030 A 
ENDBRANCH   8  12
ENDBRANCH   1   6
BRANCH   4  19
HETATM   19  C   UNL     1      43.881 -18.127   8.397  1.00  0.00     0.163 C 
BRANCH  19  20
HETATM   20  C   UNL     1      43.416 -16.807   7.789  1.00  0.00     0.227 C 
HETATM   21  N   UNL     1      42.423 -16.924   6.833  1.00  0.00    -0.327 N 
HETATM   22  H   UNL     1      42.011 -17.851   6.737  1.00  0.00     0.169 HD
HETATM   23  O   UNL     1      43.974 -15.759   8.112  1.00  0.00    -0.273 OA
BRANCH  21  24
HETATM   24  C   UNL     1      41.874 -15.918   6.016  1.00  0.00     0.036 A 
HETATM   25  C   UNL     1      42.619 -15.134   5.132  1.00  0.00     0.056 A 
HETATM   26  C   UNL     1      41.979 -14.178   4.335  1.00  0.00     0.074 A 
HETATM   27 CL   UNL     1      42.910 -13.230   3.239  1.00  0.00    -0.081 Cl
HETATM   28  C   UNL     1      40.601 -14.002   4.423  1.00  0.00     0.138 A 
HETATM   29  F   UNL     1      39.973 -13.092   3.664  1.00  0.00    -0.204 F 
HETATM   30  C   UNL     1      39.849 -14.772   5.302  1.00  0.00     0.046 A 
HETATM   31  C   UNL     1      40.486 -15.727   6.097  1.00  0.00     0.032 A 
ENDBRANCH  21  24
ENDBRANCH  19  20
ENDBRANCH   4  19
TORSDOF 5
ENDMDL
MODEL 6
REMARK VINA RESULT:      -8.1      3.664      6.216
REMARK  5 active torsions:
REMARK  status: ('A' for Active; 'I' for Inactive)
REMARK    1  A    between atoms: C_5  and  N_6 
REMARK       I    between atoms: N_6  and  C_7 
REMARK       I    between atoms: C_7  and  N_8 
REMARK    2  A    between atoms: N_8  and  C_9 
REMARK    3  A    between atoms: C_12  and  C_13 
REMARK    4  A    between atoms: C_13  and  C_14 
REMARK       I    between atoms: C_14  and  N_15 
REMARK    5  A    between atoms: N_15  and  C_16 
ROOT
HETATM    1  C   UNL     1      43.339 -15.506   6.598  1.00  0.00     0.174 A 
HETATM    2  S   UNL     1      44.242 -14.070   6.473  1.00  0.00    -0.062 SA
HETATM    3  C   UNL     1      42.835 -13.262   5.909  1.00  0.00     0.081 A 
HETATM    4  C   UNL     1      41.770 -14.143   5.853  1.00  0.00     0.052 A 
HETATM    5  N   UNL     1      42.077 -15.446   6.244  1.00  0.00    -0.228 NA
ENDROOT
BRANCH   1   6
HETATM    6  N   UNL     1      44.019 -16.584   7.079  1.00  0.00    -0.287 N 
HETATM    7  C   UNL     1      44.290 -17.741   6.399  1.00  0.00     0.326 C 
HETATM    8  N   UNL     1      43.962 -17.760   5.069  1.00  0.00    -0.309 N 
HETATM    9  O   UNL     1      44.800 -18.664   7.031  1.00  0.00    -0.247 OA
HETATM   10  H   UNL     1      43.697 -16.860   4.683  1.00  0.00     0.170 HD
HETATM   11  H   UNL     1      44.291 -16.580   8.051  1.00  0.00     0.172 HD
BRANCH   8  12
HETATM   12  C   UNL     1      44.025 -18.838   4.166  1.00  0.00     0.036 A 
HETATM   13  C   UNL     1      44.774 -19.993   4.382  1.00  0.00     0.030 A 
HETATM   14  C   UNL     1      44.763 -21.031   3.443  1.00  0.00     0.009 A 
HETATM   15  C   UNL     1      43.995 -20.934   2.278  1.00  0.00    -0.062 A 
HETATM   16  C   UNL     1      44.019 -22.039   1.264  1.00  0.00     0.048 C 
HETATM   17  C   UNL     1      43.249 -19.773   2.058  1.00  0.00     0.009 A 
HETATM   18  C   UNL     1      43.261 -18.736   2.996  1.00  0.00     0.030 A 
ENDBRANCH   8  12
ENDBRANCH   1   6
BRANCH   4  19
HETATM   19  C   UNL     1      40.370 -13.838   5.419  1.00  0.00     0.163 C 
BRANCH  19  20
HETATM   20  C   UNL     1      40.138 -13.945   3.915  1.00  0.00     0.227 C 
HETATM   21  N   UNL     1      40.993 -14.808   3.254  1.00  0.00    -0.327 N 
HETATM   22  H   UNL     1      41.587 -15.382   3.850  1.00  0.00     0.169 HD
HETATM   23  O   UNL     1      39.289 -13.234   3.379  1.00  0.00    -0.273 OA
BRANCH  21  24
HETATM   24  C   UNL     1      41.110 -15.033   1.869  1.00  0.00     0.036 A 
HETATM   25  C   UNL     1      41.425 -14.040   0.938  1.00  0.00     0.056 A 
HETATM   26  C   UNL     1      41.551 -14.365  -0.417  1.00  0.00     0.074 A 
HETATM   27 CL   UNL     1      41.954 -13.131  -1.549  1.00  0.00    -0.081 Cl
HETATM   28  C   UNL     1      41.359 -15.676  -0.843  1.00  0.00     0.138 A 
HETATM   29  F   UNL     1      41.479 -16.004  -2.137  1.00  0.00    -0.204 F 
HETATM   30  C   UNL     1      41.041 -16.672   0.071  1.00  0.00     0.046 A 
HETATM   31  C   UNL     1      40.916 -16.350   1.425  1.00  0.00     0.032 A 
ENDBRANCH  21  24
ENDBRANCH  19  20
ENDBRANCH   4  19
TORSDOF 5
ENDMDL
MODEL 7
REMARK VINA RESULT:      -8.0      4.145      6.102
REMARK  5 active torsions:
REMARK  status: ('A' for Active; 'I' for Inactive)
REMARK    1  A    between atoms: C_5  and  N_6 
REMARK       I    between atoms: N_6  and  C_7 
REMARK       I    between atoms: C_7  and  N_8 
REMARK    2  A    between atoms: N_8  and  C_9 
REMARK    3  A    between atoms: C_12  and  C_13 
REMARK    4  A    between atoms: C_13  and  C_14 
REMARK       I    between atoms: C_14  and  N_15 
REMARK    5  A    between atoms: N_15  and  C_16 
ROOT
HETATM    1  C   UNL     1      44.022 -19.680   5.511  1.00  0.00     0.174 A 
HETATM    2  S   UNL     1      44.659 -21.256   5.521  1.00  0.00    -0.062 SA
HETATM    3  C   UNL     1      44.621 -21.258   3.804  1.00  0.00     0.081 A 
HETATM    4  C   UNL     1      44.123 -20.054   3.337  1.00  0.00     0.052 A 
HETATM    5  N   UNL     1      43.767 -19.150   4.338  1.00  0.00    -0.228 NA
ENDROOT
BRANCH   1   6
HETATM    6  N   UNL     1      43.857 -19.109   6.737  1.00  0.00    -0.287 N 
HETATM    7  C   UNL     1      43.285 -17.892   6.993  1.00  0.00     0.326 C 
HETATM    8  N   UNL     1      42.705 -17.252   5.930  1.00  0.00    -0.309 N 
HETATM    9  O   UNL     1      43.339 -17.472   8.147  1.00  0.00    -0.247 OA
HETATM   10  H   UNL     1      42.617 -17.815   5.090  1.00  0.00     0.170 HD
HETATM   11  H   UNL     1      44.257 -19.576   7.537  1.00  0.00     0.172 HD
BRANCH   8  12
HETATM   12  C   UNL     1      42.150 -15.959   5.881  1.00  0.00     0.036 A 
HETATM   13  C   UNL     1      42.904 -14.787   5.879  1.00  0.00     0.030 A 
HETATM   14  C   UNL     1      42.273 -13.539   5.803  1.00  0.00     0.009 A 
HETATM   15  C   UNL     1      40.880 -13.446   5.717  1.00  0.00    -0.062 A 
HETATM   16  C   UNL     1      40.216 -12.102   5.671  1.00  0.00     0.048 C 
HETATM   17  C   UNL     1      40.124 -14.621   5.726  1.00  0.00     0.009 A 
HETATM   18  C   UNL     1      40.755 -15.867   5.802  1.00  0.00     0.030 A 
ENDBRANCH   8  12
ENDBRANCH   1   6
BRANCH   4  19
HETATM   19  C   UNL     1      43.931 -19.652   1.908  1.00  0.00     0.163 C 
BRANCH  19  20
HETATM   20  C   UNL     1      43.511 -18.198   1.712  1.00  0.00     0.227 C 
HETATM   21  N   UNL     1      42.325 -17.846   2.332  1.00  0.00    -0.327 N 
HETATM   22  H   UNL     1      41.933 -18.544   2.962  1.00  0.00     0.169 HD
HETATM   23  O   UNL     1      44.180 -17.465   0.986  1.00  0.00    -0.273 OA
BRANCH  21  24
HETATM   24  C   UNL     1      41.620 -16.631   2.244  1.00  0.00     0.036 A 
HETATM   25  C   UNL     1      42.223 -15.371   2.284  1.00  0.00     0.056 A 
HETATM   26  C   UNL     1      41.443 -14.217   2.157  1.00  0.00     0.074 A 
HETATM   27 CL   UNL     1      42.204 -12.672   2.193  1.00  0.00    -0.081 Cl
HETATM   28  C   UNL     1      40.063 -14.319   1.997  1.00  0.00     0.138 A 
HETATM   29  F   UNL     1      39.302 -13.222   1.872  1.00  0.00    -0.204 F 
HETATM   30  C   UNL     1      39.451 -15.565   1.961  1.00  0.00     0.046 A 
HETATM   31  C   UNL     1      40.229 -16.718   2.086  1.00  0.00     0.032 A 
ENDBRANCH  21  24
ENDBRANCH  19  20
ENDBRANCH   4  19
TORSDOF 5
ENDMDL
MODEL 8
REMARK VINA RESULT:      -8.0      4.138      7.479
REMARK  5 active torsions:
REMARK  status: ('A' for Active; 'I' for Inactive)
REMARK    1  A    between atoms: C_5  and  N_6 
REMARK       I    between atoms: N_6  and  C_7 
REMARK       I    between atoms: C_7  and  N_8 
REMARK    2  A    between atoms: N_8  and  C_9 
REMARK    3  A    between atoms: C_12  and  C_13 
REMARK    4  A    between atoms: C_13  and  C_14 
REMARK       I    between atoms: C_14  and  N_15 
REMARK    5  A    between atoms: N_15  and  C_16 
ROOT
HETATM    1  C   UNL     1      44.083 -19.644   5.396  1.00  0.00     0.174 A 
HETATM    2  S   UNL     1      43.968 -21.037   6.364  1.00  0.00    -0.062 SA
HETATM    3  C   UNL     1      43.743 -20.035   7.741  1.00  0.00     0.081 A 
HETATM    4  C   UNL     1      43.772 -18.702   7.369  1.00  0.00     0.052 A 
HETATM    5  N   UNL     1      43.982 -18.487   6.007  1.00  0.00    -0.228 NA
ENDROOT
BRANCH   1   6
HETATM    6  N   UNL     1      44.250 -19.871   4.064  1.00  0.00    -0.287 N 
HETATM    7  C   UNL     1      43.709 -19.135   3.043  1.00  0.00     0.326 C 
HETATM    8  N   UNL     1      43.050 -17.988   3.398  1.00  0.00    -0.309 N 
HETATM    9  O   UNL     1      43.853 -19.561   1.899  1.00  0.00    -0.247 OA
HETATM   10  H   UNL     1      43.165 -17.713   4.368  1.00  0.00     0.170 HD
HETATM   11  H   UNL     1      44.752 -20.699   3.780  1.00  0.00     0.172 HD
BRANCH   8  12
HETATM   12  C   UNL     1      42.314 -17.110   2.580  1.00  0.00     0.036 A 
HETATM   13  C   UNL     1      42.848 -16.436   1.483  1.00  0.00     0.030 A 
HETATM   14  C   UNL     1      42.040 -15.598   0.704  1.00  0.00     0.009 A 
HETATM   15  C   UNL     1      40.684 -15.431   1.005  1.00  0.00    -0.062 A 
HETATM   16  C   UNL     1      39.838 -14.505   0.183  1.00  0.00     0.048 C 
HETATM   17  C   UNL     1      40.151 -16.102   2.108  1.00  0.00     0.009 A 
HETATM   18  C   UNL     1      40.959 -16.938   2.886  1.00  0.00     0.030 A 
ENDBRANCH   8  12
ENDBRANCH   1   6
BRANCH   4  19
HETATM   19  C   UNL     1      43.612 -17.514   8.265  1.00  0.00     0.163 C 
BRANCH  19  20
HETATM   20  C   UNL     1      43.515 -16.179   7.532  1.00  0.00     0.227 C 
HETATM   21  N   UNL     1      42.479 -16.091   6.619  1.00  0.00    -0.327 N 
HETATM   22  H   UNL     1      41.813 -16.861   6.633  1.00  0.00     0.169 HD
HETATM   23  O   UNL     1      44.368 -15.315   7.727  1.00  0.00    -0.273 OA
BRANCH  21  24
HETATM   24  C   UNL     1      42.198 -15.050   5.713  1.00  0.00     0.036 A 
HETATM   25  C   UNL     1      40.972 -14.385   5.640  1.00  0.00     0.056 A 
HETATM   26  C   UNL     1      40.795 -13.340   4.727  1.00  0.00     0.074 A 
HETATM   27 CL   UNL     1      39.282 -12.521   4.660  1.00  0.00    -0.081 Cl
HETATM   28  C   UNL     1      41.838 -12.963   3.885  1.00  0.00     0.138 A 
HETATM   29  F   UNL     1      41.686 -11.961   3.007  1.00  0.00    -0.204 F 
HETATM   30  C   UNL     1      43.061 -13.619   3.944  1.00  0.00     0.046 A 
HETATM   31  C   UNL     1      43.239 -14.661   4.857  1.00  0.00     0.032 A 
ENDBRANCH  21  24
ENDBRANCH  19  20
ENDBRANCH   4  19
TORSDOF 5
ENDMDL
MODEL 9
REMARK VINA RESULT:      -7.9      4.186      6.574
REMARK  5 active torsions:
REMARK  status: ('A' for Active; 'I' for Inactive)
REMARK    1  A    between atoms: C_5  and  N_6 
REMARK       I    between atoms: N_6  and  C_7 
REMARK       I    between atoms: C_7  and  N_8 
REMARK    2  A    between atoms: N_8  and  C_9 
REMARK    3  A    between atoms: C_12  and  C_13 
REMARK    4  A    between atoms: C_13  and  C_14 
REMARK       I    between atoms: C_14  and  N_15 
REMARK    5  A    between atoms: N_15  and  C_16 
ROOT
HETATM    1  C   UNL     1      41.946 -14.607   5.042  1.00  0.00     0.174 A 
HETATM    2  S   UNL     1      40.458 -14.473   5.855  1.00  0.00    -0.062 SA
HETATM    3  C   UNL     1      39.786 -13.737   4.456  1.00  0.00     0.081 A 
HETATM    4  C   UNL     1      40.743 -13.642   3.461  1.00  0.00     0.052 A 
HETATM    5  N   UNL     1      41.997 -14.140   3.817  1.00  0.00    -0.228 NA
ENDROOT
BRANCH   1   6
HETATM    6  N   UNL     1      42.942 -15.213   5.745  1.00  0.00    -0.287 N 
HETATM    7  C   UNL     1      43.543 -16.404   5.435  1.00  0.00     0.326 C 
HETATM    8  N   UNL     1      43.201 -16.968   4.235  1.00  0.00    -0.309 N 
HETATM    9  O   UNL     1      44.333 -16.870   6.253  1.00  0.00    -0.247 OA
HETATM   10  H   UNL     1      42.656 -16.370   3.622  1.00  0.00     0.170 HD
HETATM   11  H   UNL     1      43.226 -14.801   6.622  1.00  0.00     0.172 HD
BRANCH   8  12
HETATM   12  C   UNL     1      43.573 -18.223   3.718  1.00  0.00     0.036 A 
HETATM   13  C   UNL     1      44.290 -19.180   4.435  1.00  0.00     0.030 A 
HETATM   14  C   UNL     1      44.599 -20.416   3.855  1.00  0.00     0.009 A 
HETATM   15  C   UNL     1      44.188 -20.718   2.552  1.00  0.00    -0.062 A 
HETATM   16  C   UNL     1      44.556 -22.032   1.931  1.00  0.00     0.048 C 
HETATM   17  C   UNL     1      43.475 -19.756   1.831  1.00  0.00     0.009 A 
HETATM   18  C   UNL     1      43.167 -18.522   2.411  1.00  0.00     0.030 A 
ENDBRANCH   8  12
ENDBRANCH   1   6
BRANCH   4  19
HETATM   19  C   UNL     1      40.564 -13.067   2.090  1.00  0.00     0.163 C 
BRANCH  19  20
HETATM   20  C   UNL     1      40.086 -14.068   1.043  1.00  0.00     0.227 C 
HETATM   21  N   UNL     1      40.337 -13.704  -0.268  1.00  0.00    -0.327 N 
HETATM   22  H   UNL     1      40.932 -12.886  -0.391  1.00  0.00     0.169 HD
HETATM   23  O   UNL     1      39.463 -15.068   1.397  1.00  0.00    -0.273 OA
BRANCH  21  24
HETATM   24  C   UNL     1      39.921 -14.347  -1.449  1.00  0.00     0.036 A 
HETATM   25  C   UNL     1      38.714 -14.081  -2.102  1.00  0.00     0.056 A 
HETATM   26  C   UNL     1      38.400 -14.748  -3.290  1.00  0.00     0.074 A 
HETATM   27 CL   UNL     1      36.915 -14.397  -4.090  1.00  0.00    -0.081 Cl
HETATM   28  C   UNL     1      39.283 -15.682  -3.824  1.00  0.00     0.138 A 
HETATM   29  F   UNL     1      38.998 -16.328  -4.964  1.00  0.00    -0.204 F 
HETATM   30  C   UNL     1      40.484 -15.960  -3.182  1.00  0.00     0.046 A 
HETATM   31  C   UNL     1      40.800 -15.293  -1.997  1.00  0.00     0.032 A 
ENDBRANCH  21  24
ENDBRANCH  19  20
ENDBRANCH   4  19
TORSDOF 5
ENDMDL
MODEL 10
REMARK VINA RESULT:      -7.9      2.407      5.756
REMARK  5 active torsions:
REMARK  status: ('A' for Active; 'I' for Inactive)
REMARK    1  A    between atoms: C_5  and  N_6 
REMARK       I    between atoms: N_6  and  C_7 
REMARK       I    between atoms: C_7  and  N_8 
REMARK    2  A    between atoms: N_8  and  C_9 
REMARK    3  A    between atoms: C_12  and  C_13 
REMARK    4  A    between atoms: C_13  and  C_14 
REMARK       I    between atoms: C_14  and  N_15 
REMARK    5  A    between atoms: N_15  and  C_16 
ROOT
HETATM    1  C   UNL     1      41.058 -15.004   4.783  1.00  0.00     0.174 A 
HETATM    2  S   UNL     1      41.439 -13.420   5.269  1.00  0.00    -0.062 SA
HETATM    3  C   UNL     1      42.824 -14.027   6.083  1.00  0.00     0.081 A 
HETATM    4  C   UNL     1      42.903 -15.400   5.929  1.00  0.00     0.052 A 
HETATM    5  N   UNL     1      41.865 -15.958   5.183  1.00  0.00    -0.228 NA
ENDROOT
BRANCH   1   6
HETATM    6  N   UNL     1      39.950 -15.124   3.999  1.00  0.00    -0.287 N 
HETATM    7  C   UNL     1      39.880 -14.878   2.654  1.00  0.00     0.326 C 
HETATM    8  N   UNL     1      41.064 -14.617   2.016  1.00  0.00    -0.309 N 
HETATM    9  O   UNL     1      38.768 -14.907   2.130  1.00  0.00    -0.247 OA
HETATM   10  H   UNL     1      41.895 -14.788   2.574  1.00  0.00     0.170 HD
HETATM   11  H   UNL     1      39.071 -15.338   4.446  1.00  0.00     0.172 HD
BRANCH   8  12
HETATM   12  C   UNL     1      41.273 -14.226   0.680  1.00  0.00     0.036 A 
HETATM   13  C   UNL     1      41.765 -12.978   0.301  1.00  0.00     0.030 A 
HETATM   14  C   UNL     1      41.968 -12.678  -1.051  1.00  0.00     0.009 A 
HETATM   15  C   UNL     1      41.692 -13.624  -2.044  1.00  0.00    -0.062 A 
HETATM   16  C   UNL     1      41.882 -13.277  -3.490  1.00  0.00     0.048 C 
HETATM   17  C   UNL     1      41.193 -14.873  -1.664  1.00  0.00     0.009 A 
HETATM   18  C   UNL     1      40.990 -15.172  -0.313  1.00  0.00     0.030 A 
ENDBRANCH   8  12
ENDBRANCH   1   6
BRANCH   4  19
HETATM   19  C   UNL     1      43.958 -16.309   6.479  1.00  0.00     0.163 C 
BRANCH  19  20
HETATM   20  C   UNL     1      43.902 -17.737   5.945  1.00  0.00     0.227 C 
HETATM   21  N   UNL     1      44.218 -17.870   4.605  1.00  0.00    -0.327 N 
HETATM   22  H   UNL     1      44.588 -17.035   4.154  1.00  0.00     0.169 HD
HETATM   23  O   UNL     1      43.523 -18.647   6.681  1.00  0.00    -0.273 OA
BRANCH  21  24
HETATM   24  C   UNL     1      44.145 -19.023   3.800  1.00  0.00     0.036 A 
HETATM   25  C   UNL     1      44.575 -20.290   4.204  1.00  0.00     0.056 A 
HETATM   26  C   UNL     1      44.432 -21.384   3.345  1.00  0.00     0.074 A 
HETATM   27 CL   UNL     1      44.953 -22.942   3.865  1.00  0.00    -0.081 Cl
HETATM   28  C   UNL     1      43.868 -21.215   2.083  1.00  0.00     0.138 A 
HETATM   29  F   UNL     1      43.722 -22.255   1.250  1.00  0.00    -0.204 F 
HETATM   30  C   UNL     1      43.442 -19.961   1.667  1.00  0.00     0.046 A 
HETATM   31  C   UNL     1      43.581 -18.867   2.524  1.00  0.00     0.032 A 
ENDBRANCH  21  24
ENDBRANCH  19  20
ENDBRANCH   4  19
TORSDOF 5
ENDMDL
