MODEL 1
REMARK VINA RESULT:      -9.1      0.000      0.000
REMARK  5 active torsions:
REMARK  status: ('A' for Active; 'I' for Inactive)
REMARK    1  A    between atoms: C_4  and  C_5 
REMARK       I    between atoms: C_5  and  N_6 
REMARK    2  A    between atoms: N_6  and  C_7 
REMARK    3  A    between atoms: C_10  and  C_11 
REMARK    4  A    between atoms: C_11  and  N_12 
REMARK       I    between atoms: N_12  and  C_13 
REMARK       I    between atoms: C_13  and  N_14 
REMARK    5  A    between atoms: N_14  and  C_15 
ROOT
HETATM    1  C   UNL     1      43.442 -17.235   5.001  1.00  0.00     0.035 A 
HETATM    2  C   UNL     1      42.733 -16.152   4.485  1.00  0.00     0.030 A 
HETATM    3  C   UNL     1      42.771 -14.908   5.122  1.00  0.00     0.011 A 
HETATM    4  C   UNL     1      43.531 -14.723   6.284  1.00  0.00    -0.040 A 
HETATM    5  C   UNL     1      44.189 -15.825   6.839  1.00  0.00     0.011 A 
HETATM    6  C   UNL     1      44.143 -17.070   6.202  1.00  0.00     0.030 A 
ENDROOT
BRANCH   4   7
HETATM    7  C   UNL     1      43.668 -13.355   6.889  1.00  0.00     0.162 C 
BRANCH   7   8
HETATM    8  N   UNL     1      44.770 -13.250   7.813  1.00  0.00    -0.339 N 
HETATM    9  C   UNL     1      44.820 -12.571   9.000  1.00  0.00     0.321 C 
HETATM   10  N   UNL     1      43.672 -11.900   9.330  1.00  0.00    -0.306 N 
HETATM   11  O   UNL     1      45.864 -12.613   9.638  1.00  0.00    -0.247 OA
HETATM   12  H   UNL     1      43.008 -11.792   8.583  1.00  0.00     0.171 HD
HETATM   13  H   UNL     1      45.626 -13.750   7.607  1.00  0.00     0.164 HD
BRANCH  10  14
HETATM   14  C   UNL     1      43.346 -11.213  10.522  1.00  0.00     0.075 A 
HETATM   15  C   UNL     1      43.469 -11.708  11.827  1.00  0.00     0.144 A 
HETATM   16  F   UNL     1      43.890 -12.950  12.086  1.00  0.00    -0.204 F 
HETATM   17  C   UNL     1      43.107 -10.931  12.930  1.00  0.00     0.063 A 
HETATM   18  C   UNL     1      42.600  -9.650  12.739  1.00  0.00     0.014 A 
HETATM   19 BR   UNL     1      42.100  -8.600  14.228  1.00  0.00    -0.051 Br
HETATM   20  C   UNL     1      42.449  -9.142  11.454  1.00  0.00     0.021 A 
HETATM   21  C   UNL     1      42.820  -9.921  10.354  1.00  0.00     0.034 A 
ENDBRANCH  10  14
ENDBRANCH   7   8
ENDBRANCH   4   7
BRANCH   1  22
HETATM   22  N   UNL     1      43.540 -18.487   4.365  1.00  0.00    -0.321 N 
HETATM   23  C   UNL     1      43.947 -18.757   3.068  1.00  0.00     0.279 C 
HETATM   24  O   UNL     1      44.193 -17.918   2.209  1.00  0.00    -0.265 OA
HETATM   25  H   UNL     1      43.387 -19.310   4.938  1.00  0.00     0.169 HD
BRANCH  23  26
HETATM   26  C   UNL     1      44.098 -20.180   2.817  1.00  0.00     0.142 A 
HETATM   27  O   UNL     1      44.585 -20.996   3.808  1.00  0.00    -0.317 OA
HETATM   28  C   UNL     1      44.645 -22.253   3.295  1.00  0.00     0.143 A 
HETATM   29  C   UNL     1      44.209 -22.265   1.992  1.00  0.00     0.027 A 
HETATM   30  C   UNL     1      43.852 -20.931   1.684  1.00  0.00     0.045 A 
ENDBRANCH  23  26
ENDBRANCH   1  22
TORSDOF 5
ENDMDL
MODEL 2
REMARK VINA RESULT:      -8.6      4.962     10.017
REMARK  5 active torsions:
REMARK  status: ('A' for Active; 'I' for Inactive)
REMARK    1  A    between atoms: C_4  and  C_5 
REMARK       I    between atoms: C_5  and  N_6 
REMARK    2  A    between atoms: N_6  and  C_7 
REMARK    3  A    between atoms: C_10  and  C_11 
REMARK    4  A    between atoms: C_11  and  N_12 
REMARK       I    between atoms: N_12  and  C_13 
REMARK       I    between atoms: C_13  and  N_14 
REMARK    5  A    between atoms: N_14  and  C_15 
ROOT
HETATM    1  C   UNL     1      43.762 -15.171   6.690  1.00  0.00     0.035 A 
HETATM    2  C   UNL     1      42.759 -14.849   5.776  1.00  0.00     0.030 A 
HETATM    3  C   UNL     1      42.326 -15.790   4.836  1.00  0.00     0.011 A 
HETATM    4  C   UNL     1      42.883 -17.074   4.801  1.00  0.00    -0.040 A 
HETATM    5  C   UNL     1      43.935 -17.375   5.673  1.00  0.00     0.011 A 
HETATM    6  C   UNL     1      44.369 -16.429   6.608  1.00  0.00     0.030 A 
ENDROOT
BRANCH   4   7
HETATM    7  C   UNL     1      42.325 -18.116   3.873  1.00  0.00     0.162 C 
BRANCH   7   8
HETATM    8  N   UNL     1      43.105 -18.282   2.671  1.00  0.00    -0.339 N 
HETATM    9  C   UNL     1      43.025 -17.573   1.503  1.00  0.00     0.321 C 
HETATM   10  N   UNL     1      42.067 -16.594   1.487  1.00  0.00    -0.306 N 
HETATM   11  O   UNL     1      43.788 -17.879   0.597  1.00  0.00    -0.247 OA
HETATM   12  H   UNL     1      41.390 -16.643   2.229  1.00  0.00     0.171 HD
HETATM   13  H   UNL     1      43.834 -18.985   2.658  1.00  0.00     0.164 HD
BRANCH  10  14
HETATM   14  C   UNL     1      41.804 -15.613   0.504  1.00  0.00     0.075 A 
HETATM   15  C   UNL     1      42.008 -14.233   0.630  1.00  0.00     0.144 A 
HETATM   16  F   UNL     1      42.457 -13.675   1.760  1.00  0.00    -0.204 F 
HETATM   17  C   UNL     1      41.704 -13.359  -0.417  1.00  0.00     0.063 A 
HETATM   18  C   UNL     1      41.174 -13.856  -1.602  1.00  0.00     0.014 A 
HETATM   19 BR   UNL     1      40.752 -12.677  -3.016  1.00  0.00    -0.051 Br
HETATM   20  C   UNL     1      40.943 -15.219  -1.748  1.00  0.00     0.021 A 
HETATM   21  C   UNL     1      41.256 -16.090  -0.699  1.00  0.00     0.034 A 
ENDBRANCH  10  14
ENDBRANCH   7   8
ENDBRANCH   4   7
BRANCH   1  22
HETATM   22  N   UNL     1      44.179 -14.320   7.731  1.00  0.00    -0.321 N 
HETATM   23  C   UNL     1      45.194 -13.377   7.710  1.00  0.00     0.279 C 
HETATM   24  O   UNL     1      45.984 -13.201   6.789  1.00  0.00    -0.265 OA
HETATM   25  H   UNL     1      43.620 -14.317   8.577  1.00  0.00     0.169 HD
BRANCH  23  26
HETATM   26  C   UNL     1      45.218 -12.558   8.909  1.00  0.00     0.142 A 
HETATM   27  O   UNL     1      44.513 -12.957  10.018  1.00  0.00    -0.317 OA
HETATM   28  C   UNL     1      44.690 -12.002  10.967  1.00  0.00     0.143 A 
HETATM   29  C   UNL     1      45.493 -10.992  10.495  1.00  0.00     0.027 A 
HETATM   30  C   UNL     1      45.838 -11.351   9.170  1.00  0.00     0.045 A 
ENDBRANCH  23  26
ENDBRANCH   1  22
TORSDOF 5
ENDMDL
MODEL 3
REMARK VINA RESULT:      -8.4      4.245      9.565
REMARK  5 active torsions:
REMARK  status: ('A' for Active; 'I' for Inactive)
REMARK    1  A    between atoms: C_4  and  C_5 
REMARK       I    between atoms: C_5  and  N_6 
REMARK    2  A    between atoms: N_6  and  C_7 
REMARK    3  A    between atoms: C_10  and  C_11 
REMARK    4  A    between atoms: C_11  and  N_12 
REMARK       I    between atoms: N_12  and  C_13 
REMARK       I    between atoms: C_13  and  N_14 
REMARK    5  A    between atoms: N_14  and  C_15 
ROOT
HETATM    1  C   UNL     1      42.621 -13.715   5.711  1.00  0.00     0.035 A 
HETATM    2  C   UNL     1      41.540 -14.595   5.687  1.00  0.00     0.030 A 
HETATM    3  C   UNL     1      41.051 -15.086   4.472  1.00  0.00     0.011 A 
HETATM    4  C   UNL     1      41.642 -14.712   3.259  1.00  0.00    -0.040 A 
HETATM    5  C   UNL     1      42.683 -13.777   3.279  1.00  0.00     0.011 A 
HETATM    6  C   UNL     1      43.166 -13.284   4.496  1.00  0.00     0.030 A 
ENDROOT
BRANCH   4   7
HETATM    7  C   UNL     1      41.192 -15.342   1.972  1.00  0.00     0.162 C 
BRANCH   7   8
HETATM    8  N   UNL     1      42.276 -15.908   1.206  1.00  0.00    -0.339 N 
HETATM    9  C   UNL     1      43.113 -16.933   1.553  1.00  0.00     0.321 C 
HETATM   10  N   UNL     1      42.888 -17.469   2.793  1.00  0.00    -0.306 N 
HETATM   11  O   UNL     1      43.974 -17.262   0.748  1.00  0.00    -0.247 OA
HETATM   12  H   UNL     1      42.296 -16.923   3.395  1.00  0.00     0.171 HD
HETATM   13  H   UNL     1      42.455 -15.546   0.278  1.00  0.00     0.164 HD
BRANCH  10  14
HETATM   14  C   UNL     1      43.478 -18.600   3.402  1.00  0.00     0.075 A 
HETATM   15  C   UNL     1      43.973 -18.678   4.710  1.00  0.00     0.144 A 
HETATM   16  F   UNL     1      43.972 -17.630   5.541  1.00  0.00    -0.204 F 
HETATM   17  C   UNL     1      44.541 -19.858   5.198  1.00  0.00     0.063 A 
HETATM   18  C   UNL     1      44.636 -20.974   4.373  1.00  0.00     0.014 A 
HETATM   19 BR   UNL     1      45.412 -22.566   5.026  1.00  0.00    -0.051 Br
HETATM   20  C   UNL     1      44.171 -20.917   3.064  1.00  0.00     0.021 A 
HETATM   21  C   UNL     1      43.596 -19.737   2.583  1.00  0.00     0.034 A 
ENDBRANCH  10  14
ENDBRANCH   7   8
ENDBRANCH   4   7
BRANCH   1  22
HETATM   22  N   UNL     1      43.238 -13.259   6.892  1.00  0.00    -0.321 N 
HETATM   23  C   UNL     1      44.443 -13.669   7.439  1.00  0.00     0.279 C 
HETATM   24  O   UNL     1      45.134 -14.595   7.029  1.00  0.00    -0.265 OA
HETATM   25  H   UNL     1      42.809 -12.470   7.363  1.00  0.00     0.169 HD
BRANCH  23  26
HETATM   26  C   UNL     1      44.850 -12.848   8.566  1.00  0.00     0.142 A 
HETATM   27  O   UNL     1      44.338 -13.107   9.813  1.00  0.00    -0.317 OA
HETATM   28  C   UNL     1      44.863 -12.182  10.659  1.00  0.00     0.143 A 
HETATM   29  C   UNL     1      45.701 -11.329   9.984  1.00  0.00     0.027 A 
HETATM   30  C   UNL     1      45.699 -11.760   8.636  1.00  0.00     0.045 A 
ENDBRANCH  23  26
ENDBRANCH   1  22
TORSDOF 5
ENDMDL
MODEL 4
REMARK VINA RESULT:      -8.3      2.607      2.924
REMARK  5 active torsions:
REMARK  status: ('A' for Active; 'I' for Inactive)
REMARK    1  A    between atoms: C_4  and  C_5 
REMARK       I    between atoms: C_5  and  N_6 
REMARK    2  A    between atoms: N_6  and  C_7 
REMARK    3  A    between atoms: C_10  and  C_11 
REMARK    4  A    between atoms: C_11  and  N_12 
REMARK       I    between atoms: N_12  and  C_13 
REMARK       I    between atoms: C_13  and  N_14 
REMARK    5  A    between atoms: N_14  and  C_15 
ROOT
HETATM    1  C   UNL     1      42.204 -16.874   4.471  1.00  0.00     0.035 A 
HETATM    2  C   UNL     1      41.188 -16.913   5.425  1.00  0.00     0.030 A 
HETATM    3  C   UNL     1      40.679 -15.730   5.971  1.00  0.00     0.011 A 
HETATM    4  C   UNL     1      41.171 -14.485   5.562  1.00  0.00    -0.040 A 
HETATM    5  C   UNL     1      42.235 -14.447   4.654  1.00  0.00     0.011 A 
HETATM    6  C   UNL     1      42.746 -15.633   4.116  1.00  0.00     0.030 A 
ENDROOT
BRANCH   4   7
HETATM    7  C   UNL     1      40.533 -13.218   6.058  1.00  0.00     0.162 C 
BRANCH   7   8
HETATM    8  N   UNL     1      41.492 -12.202   6.417  1.00  0.00    -0.339 N 
HETATM    9  C   UNL     1      41.419 -11.290   7.436  1.00  0.00     0.321 C 
HETATM   10  N   UNL     1      40.278 -11.357   8.190  1.00  0.00    -0.306 N 
HETATM   11  O   UNL     1      42.352 -10.509   7.568  1.00  0.00    -0.247 OA
HETATM   12  H   UNL     1      39.532 -11.902   7.793  1.00  0.00     0.171 HD
HETATM   13  H   UNL     1      42.354 -12.139   5.891  1.00  0.00     0.164 HD
BRANCH  10  14
HETATM   14  C   UNL     1      39.943 -10.658   9.372  1.00  0.00     0.075 A 
HETATM   15  C   UNL     1      40.641 -10.694  10.586  1.00  0.00     0.144 A 
HETATM   16  F   UNL     1      41.723 -11.459  10.769  1.00  0.00    -0.204 F 
HETATM   17  C   UNL     1      40.205  -9.959  11.692  1.00  0.00     0.063 A 
HETATM   18  C   UNL     1      39.051  -9.188  11.600  1.00  0.00     0.014 A 
HETATM   19 BR   UNL     1      38.453  -8.201  13.095  1.00  0.00    -0.051 Br
HETATM   20  C   UNL     1      38.328  -9.150  10.413  1.00  0.00     0.021 A 
HETATM   21  C   UNL     1      38.773  -9.882   9.308  1.00  0.00     0.034 A 
ENDBRANCH  10  14
ENDBRANCH   7   8
ENDBRANCH   4   7
BRANCH   1  22
HETATM   22  N   UNL     1      42.696 -18.009   3.799  1.00  0.00    -0.321 N 
HETATM   23  C   UNL     1      43.823 -18.756   4.099  1.00  0.00     0.279 C 
HETATM   24  O   UNL     1      44.656 -18.480   4.955  1.00  0.00    -0.265 OA
HETATM   25  H   UNL     1      42.118 -18.396   3.062  1.00  0.00     0.169 HD
BRANCH  23  26
HETATM   26  C   UNL     1      43.918 -19.966   3.299  1.00  0.00     0.142 A 
HETATM   27  O   UNL     1      44.562 -21.066   3.808  1.00  0.00    -0.317 OA
HETATM   28  C   UNL     1      44.524 -22.029   2.850  1.00  0.00     0.143 A 
HETATM   29  C   UNL     1      43.870 -21.572   1.731  1.00  0.00     0.027 A 
HETATM   30  C   UNL     1      43.474 -20.245   2.021  1.00  0.00     0.045 A 
ENDBRANCH  23  26
ENDBRANCH   1  22
TORSDOF 5
ENDMDL
MODEL 5
REMARK VINA RESULT:      -8.2      2.367      2.821
REMARK  5 active torsions:
REMARK  status: ('A' for Active; 'I' for Inactive)
REMARK    1  A    between atoms: C_4  and  C_5 
REMARK       I    between atoms: C_5  and  N_6 
REMARK    2  A    between atoms: N_6  and  C_7 
REMARK    3  A    between atoms: C_10  and  C_11 
REMARK    4  A    between atoms: C_11  and  N_12 
REMARK       I    between atoms: N_12  and  C_13 
REMARK       I    between atoms: C_13  and  N_14 
REMARK    5  A    between atoms: N_14  and  C_15 
ROOT
HETATM    1  C   UNL     1      42.156 -15.615   4.568  1.00  0.00     0.035 A 
HETATM    2  C   UNL     1      42.668 -14.323   4.456  1.00  0.00     0.030 A 
HETATM    3  C   UNL     1      41.984 -13.236   5.008  1.00  0.00     0.011 A 
HETATM    4  C   UNL     1      40.777 -13.425   5.693  1.00  0.00    -0.040 A 
HETATM    5  C   UNL     1      40.229 -14.710   5.748  1.00  0.00     0.011 A 
HETATM    6  C   UNL     1      40.914 -15.795   5.189  1.00  0.00     0.030 A 
ENDROOT
BRANCH   4   7
HETATM    7  C   UNL     1      40.114 -12.271   6.391  1.00  0.00     0.162 C 
BRANCH   7   8
HETATM    8  N   UNL     1      40.910 -11.067   6.381  1.00  0.00    -0.339 N 
HETATM    9  C   UNL     1      41.449 -10.398   7.446  1.00  0.00     0.321 C 
HETATM   10  N   UNL     1      41.175 -10.947   8.671  1.00  0.00    -0.306 N 
HETATM   11  O   UNL     1      42.099  -9.388   7.214  1.00  0.00    -0.247 OA
HETATM   12  H   UNL     1      40.442 -11.635   8.679  1.00  0.00     0.171 HD
HETATM   13  H   UNL     1      41.145 -10.648   5.490  1.00  0.00     0.164 HD
BRANCH  10  14
HETATM   14  C   UNL     1      41.670 -10.587   9.945  1.00  0.00     0.075 A 
HETATM   15  C   UNL     1      43.016 -10.517  10.326  1.00  0.00     0.144 A 
HETATM   16  F   UNL     1      44.014 -10.837   9.494  1.00  0.00    -0.204 F 
HETATM   17  C   UNL     1      43.381 -10.152  11.624  1.00  0.00     0.063 A 
HETATM   18  C   UNL     1      42.399  -9.865  12.565  1.00  0.00     0.014 A 
HETATM   19 BR   UNL     1      42.888  -9.380  14.324  1.00  0.00    -0.051 Br
HETATM   20  C   UNL     1      41.054  -9.946  12.220  1.00  0.00     0.021 A 
HETATM   21  C   UNL     1      40.695 -10.305  10.917  1.00  0.00     0.034 A 
ENDBRANCH  10  14
ENDBRANCH   7   8
ENDBRANCH   4   7
BRANCH   1  22
HETATM   22  N   UNL     1      42.833 -16.770   4.133  1.00  0.00    -0.321 N 
HETATM   23  C   UNL     1      43.534 -17.688   4.898  1.00  0.00     0.279 C 
HETATM   24  O   UNL     1      43.775 -17.582   6.096  1.00  0.00    -0.265 OA
HETATM   25  H   UNL     1      42.727 -17.028   3.158  1.00  0.00     0.169 HD
BRANCH  23  26
HETATM   26  C   UNL     1      43.945 -18.852   4.133  1.00  0.00     0.142 A 
HETATM   27  O   UNL     1      44.790 -19.774   4.701  1.00  0.00    -0.317 OA
HETATM   28  C   UNL     1      45.026 -20.729   3.765  1.00  0.00     0.143 A 
HETATM   29  C   UNL     1      44.354 -20.442   2.601  1.00  0.00     0.027 A 
HETATM   30  C   UNL     1      43.653 -19.236   2.838  1.00  0.00     0.045 A 
ENDBRANCH  23  26
ENDBRANCH   1  22
TORSDOF 5
ENDMDL
MODEL 6
REMARK VINA RESULT:      -8.2      6.208      9.124
REMARK  5 active torsions:
REMARK  status: ('A' for Active; 'I' for Inactive)
REMARK    1  A    between atoms: C_4  and  C_5 
REMARK       I    between atoms: C_5  and  N_6 
REMARK    2  A    between atoms: N_6  and  C_7 
REMARK    3  A    between atoms: C_10  and  C_11 
REMARK    4  A    between atoms: C_11  and  N_12 
REMARK       I    between atoms: N_12  and  C_13 
REMARK       I    between atoms: C_13  and  N_14 
REMARK    5  A    between atoms: N_14  and  C_15 
ROOT
HETATM    1  C   UNL     1      40.522 -14.282   1.283  1.00  0.00     0.035 A 
HETATM    2  C   UNL     1      41.871 -13.943   1.380  1.00  0.00     0.030 A 
HETATM    3  C   UNL     1      42.472 -13.770   2.631  1.00  0.00     0.011 A 
HETATM    4  C   UNL     1      41.736 -13.945   3.809  1.00  0.00    -0.040 A 
HETATM    5  C   UNL     1      40.367 -14.220   3.711  1.00  0.00     0.011 A 
HETATM    6  C   UNL     1      39.768 -14.386   2.458  1.00  0.00     0.030 A 
ENDROOT
BRANCH   4   7
HETATM    7  C   UNL     1      42.419 -13.882   5.145  1.00  0.00     0.162 C 
BRANCH   7   8
HETATM    8  N   UNL     1      42.098 -14.998   6.001  1.00  0.00    -0.339 N 
HETATM    9  C   UNL     1      42.288 -16.332   5.761  1.00  0.00     0.321 C 
HETATM   10  N   UNL     1      42.841 -16.627   4.542  1.00  0.00    -0.306 N 
HETATM   11  O   UNL     1      41.943 -17.122   6.630  1.00  0.00    -0.247 OA
HETATM   12  H   UNL     1      42.843 -15.872   3.878  1.00  0.00     0.171 HD
HETATM   13  H   UNL     1      41.706 -14.812   6.916  1.00  0.00     0.164 HD
BRANCH  10  14
HETATM   14  C   UNL     1      43.277 -17.871   4.034  1.00  0.00     0.075 A 
HETATM   15  C   UNL     1      44.250 -18.706   4.599  1.00  0.00     0.144 A 
HETATM   16  F   UNL     1      44.921 -18.377   5.708  1.00  0.00    -0.204 F 
HETATM   17  C   UNL     1      44.601 -19.917   3.995  1.00  0.00     0.063 A 
HETATM   18  C   UNL     1      43.992 -20.300   2.805  1.00  0.00     0.014 A 
HETATM   19 BR   UNL     1      44.472 -21.930   1.981  1.00  0.00    -0.051 Br
HETATM   20  C   UNL     1      43.038 -19.480   2.212  1.00  0.00     0.021 A 
HETATM   21  C   UNL     1      42.686 -18.273   2.824  1.00  0.00     0.034 A 
ENDBRANCH  10  14
ENDBRANCH   7   8
ENDBRANCH   4   7
BRANCH   1  22
HETATM   22  N   UNL     1      39.870 -14.576   0.071  1.00  0.00    -0.321 N 
HETATM   23  C   UNL     1      39.728 -13.762  -1.041  1.00  0.00     0.279 C 
HETATM   24  O   UNL     1      40.063 -12.584  -1.111  1.00  0.00    -0.265 OA
HETATM   25  H   UNL     1      39.540 -15.526  -0.059  1.00  0.00     0.169 HD
BRANCH  23  26
HETATM   26  C   UNL     1      39.155 -14.465  -2.177  1.00  0.00     0.142 A 
HETATM   27  O   UNL     1      39.932 -15.341  -2.893  1.00  0.00    -0.317 OA
HETATM   28  C   UNL     1      39.160 -15.827  -3.900  1.00  0.00     0.143 A 
HETATM   29  C   UNL     1      37.900 -15.280  -3.850  1.00  0.00     0.027 A 
HETATM   30  C   UNL     1      37.894 -14.406  -2.737  1.00  0.00     0.045 A 
ENDBRANCH  23  26
ENDBRANCH   1  22
TORSDOF 5
ENDMDL
MODEL 7
REMARK VINA RESULT:      -8.1      4.443     10.304
REMARK  5 active torsions:
REMARK  status: ('A' for Active; 'I' for Inactive)
REMARK    1  A    between atoms: C_4  and  C_5 
REMARK       I    between atoms: C_5  and  N_6 
REMARK    2  A    between atoms: N_6  and  C_7 
REMARK    3  A    between atoms: C_10  and  C_11 
REMARK    4  A    between atoms: C_11  and  N_12 
REMARK       I    between atoms: N_12  and  C_13 
REMARK       I    between atoms: C_13  and  N_14 
REMARK    5  A    between atoms: N_14  and  C_15 
ROOT
HETATM    1  C   UNL     1      43.116 -12.811   6.964  1.00  0.00     0.035 A 
HETATM    2  C   UNL     1      44.031 -13.755   6.502  1.00  0.00     0.030 A 
HETATM    3  C   UNL     1      44.010 -14.171   5.167  1.00  0.00     0.011 A 
HETATM    4  C   UNL     1      43.077 -13.641   4.267  1.00  0.00    -0.040 A 
HETATM    5  C   UNL     1      42.116 -12.744   4.746  1.00  0.00     0.011 A 
HETATM    6  C   UNL     1      42.137 -12.335   6.084  1.00  0.00     0.030 A 
ENDROOT
BRANCH   4   7
HETATM    7  C   UNL     1      43.142 -13.999   2.810  1.00  0.00     0.162 C 
BRANCH   7   8
HETATM    8  N   UNL     1      42.182 -15.007   2.428  1.00  0.00    -0.339 N 
HETATM    9  C   UNL     1      42.293 -16.366   2.534  1.00  0.00     0.321 C 
HETATM   10  N   UNL     1      43.479 -16.810   3.057  1.00  0.00    -0.306 N 
HETATM   11  O   UNL     1      41.351 -17.046   2.149  1.00  0.00    -0.247 OA
HETATM   12  H   UNL     1      44.213 -16.124   3.099  1.00  0.00     0.171 HD
HETATM   13  H   UNL     1      41.288 -14.710   2.056  1.00  0.00     0.164 HD
BRANCH  10  14
HETATM   14  C   UNL     1      43.867 -18.122   3.411  1.00  0.00     0.075 A 
HETATM   15  C   UNL     1      44.015 -19.211   2.541  1.00  0.00     0.144 A 
HETATM   16  F   UNL     1      43.754 -19.122   1.233  1.00  0.00    -0.204 F 
HETATM   17  C   UNL     1      44.401 -20.467   3.016  1.00  0.00     0.063 A 
HETATM   18  C   UNL     1      44.629 -20.654   4.375  1.00  0.00     0.014 A 
HETATM   19 BR   UNL     1      45.141 -22.353   5.020  1.00  0.00    -0.051 Br
HETATM   20  C   UNL     1      44.470 -19.596   5.263  1.00  0.00     0.021 A 
HETATM   21  C   UNL     1      44.091 -18.340   4.782  1.00  0.00     0.034 A 
ENDBRANCH  10  14
ENDBRANCH   7   8
ENDBRANCH   4   7
BRANCH   1  22
HETATM   22  N   UNL     1      43.138 -12.263   8.261  1.00  0.00    -0.321 N 
HETATM   23  C   UNL     1      44.199 -11.658   8.914  1.00  0.00     0.279 C 
HETATM   24  O   UNL     1      45.351 -11.595   8.499  1.00  0.00    -0.265 OA
HETATM   25  H   UNL     1      42.255 -12.213   8.757  1.00  0.00     0.169 HD
BRANCH  23  26
HETATM   26  C   UNL     1      43.803 -11.048  10.172  1.00  0.00     0.142 A 
HETATM   27  O   UNL     1      42.470 -10.883  10.456  1.00  0.00    -0.317 OA
HETATM   28  C   UNL     1      42.393 -10.272  11.667  1.00  0.00     0.143 A 
HETATM   29  C   UNL     1      43.649 -10.036  12.171  1.00  0.00     0.027 A 
HETATM   30  C   UNL     1      44.560 -10.540  11.211  1.00  0.00     0.045 A 
ENDBRANCH  23  26
ENDBRANCH   1  22
TORSDOF 5
ENDMDL
MODEL 8
REMARK VINA RESULT:      -8.1      2.632      3.065
REMARK  5 active torsions:
REMARK  status: ('A' for Active; 'I' for Inactive)
REMARK    1  A    between atoms: C_4  and  C_5 
REMARK       I    between atoms: C_5  and  N_6 
REMARK    2  A    between atoms: N_6  and  C_7 
REMARK    3  A    between atoms: C_10  and  C_11 
REMARK    4  A    between atoms: C_11  and  N_12 
REMARK       I    between atoms: N_12  and  C_13 
REMARK       I    between atoms: C_13  and  N_14 
REMARK    5  A    between atoms: N_14  and  C_15 
ROOT
HETATM    1  C   UNL     1      42.289 -15.848   4.966  1.00  0.00     0.035 A 
HETATM    2  C   UNL     1      40.972 -15.564   5.326  1.00  0.00     0.030 A 
HETATM    3  C   UNL     1      40.585 -14.256   5.632  1.00  0.00     0.011 A 
HETATM    4  C   UNL     1      41.508 -13.205   5.573  1.00  0.00    -0.040 A 
HETATM    5  C   UNL     1      42.843 -13.499   5.277  1.00  0.00     0.011 A 
HETATM    6  C   UNL     1      43.228 -14.810   4.977  1.00  0.00     0.030 A 
ENDROOT
BRANCH   4   7
HETATM    7  C   UNL     1      41.056 -11.787   5.780  1.00  0.00     0.162 C 
BRANCH   7   8
HETATM    8  N   UNL     1      39.964 -11.670   6.715  1.00  0.00    -0.339 N 
HETATM    9  C   UNL     1      40.011 -11.292   8.030  1.00  0.00     0.321 C 
HETATM   10  N   UNL     1      41.264 -11.007   8.505  1.00  0.00    -0.306 N 
HETATM   11  O   UNL     1      38.956 -11.257   8.650  1.00  0.00    -0.247 OA
HETATM   12  H   UNL     1      42.023 -11.311   7.920  1.00  0.00     0.171 HD
HETATM   13  H   UNL     1      39.023 -11.856   6.390  1.00  0.00     0.164 HD
BRANCH  10  14
HETATM   14  C   UNL     1      41.649 -10.477   9.757  1.00  0.00     0.075 A 
HETATM   15  C   UNL     1      41.298  -9.223  10.274  1.00  0.00     0.144 A 
HETATM   16  F   UNL     1      40.561  -8.345   9.585  1.00  0.00    -0.204 F 
HETATM   17  C   UNL     1      41.748  -8.808  11.530  1.00  0.00     0.063 A 
HETATM   18  C   UNL     1      42.571  -9.641  12.281  1.00  0.00     0.014 A 
HETATM   19 BR   UNL     1      43.189  -9.079  13.975  1.00  0.00    -0.051 Br
HETATM   20  C   UNL     1      42.951 -10.882  11.784  1.00  0.00     0.021 A 
HETATM   21  C   UNL     1      42.492 -11.295  10.529  1.00  0.00     0.034 A 
ENDBRANCH  10  14
ENDBRANCH   7   8
ENDBRANCH   4   7
BRANCH   1  22
HETATM   22  N   UNL     1      42.733 -17.115   4.543  1.00  0.00    -0.321 N 
HETATM   23  C   UNL     1      42.477 -17.752   3.340  1.00  0.00     0.279 C 
HETATM   24  O   UNL     1      41.714 -17.350   2.468  1.00  0.00    -0.265 OA
HETATM   25  H   UNL     1      43.398 -17.595   5.140  1.00  0.00     0.169 HD
BRANCH  23  26
HETATM   26  C   UNL     1      43.251 -18.971   3.179  1.00  0.00     0.142 A 
HETATM   27  O   UNL     1      44.053 -19.405   4.205  1.00  0.00    -0.317 OA
HETATM   28  C   UNL     1      44.671 -20.536   3.777  1.00  0.00     0.143 A 
HETATM   29  C   UNL     1      44.288 -20.841   2.493  1.00  0.00     0.027 A 
HETATM   30  C   UNL     1      43.369 -19.836   2.108  1.00  0.00     0.045 A 
ENDBRANCH  23  26
ENDBRANCH   1  22
TORSDOF 5
ENDMDL
MODEL 9
REMARK VINA RESULT:      -7.8      8.188     11.047
REMARK  5 active torsions:
REMARK  status: ('A' for Active; 'I' for Inactive)
REMARK    1  A    between atoms: C_4  and  C_5 
REMARK       I    between atoms: C_5  and  N_6 
REMARK    2  A    between atoms: N_6  and  C_7 
REMARK    3  A    between atoms: C_10  and  C_11 
REMARK    4  A    between atoms: C_11  and  N_12 
REMARK       I    between atoms: N_12  and  C_13 
REMARK       I    between atoms: C_13  and  N_14 
REMARK    5  A    between atoms: N_14  and  C_15 
ROOT
HETATM    1  C   UNL     1      42.776 -17.518   2.722  1.00  0.00     0.035 A 
HETATM    2  C   UNL     1      43.111 -16.178   2.915  1.00  0.00     0.030 A 
HETATM    3  C   UNL     1      42.729 -15.208   1.983  1.00  0.00     0.011 A 
HETATM    4  C   UNL     1      41.996 -15.561   0.844  1.00  0.00    -0.040 A 
HETATM    5  C   UNL     1      41.718 -16.913   0.615  1.00  0.00     0.011 A 
HETATM    6  C   UNL     1      42.107 -17.881   1.548  1.00  0.00     0.030 A 
ENDROOT
BRANCH   4   7
HETATM    7  C   UNL     1      41.483 -14.498  -0.086  1.00  0.00     0.162 C 
BRANCH   7   8
HETATM    8  N   UNL     1      41.658 -14.828  -1.479  1.00  0.00    -0.339 N 
HETATM    9  C   UNL     1      40.733 -14.774  -2.486  1.00  0.00     0.321 C 
HETATM   10  N   UNL     1      39.483 -14.366  -2.101  1.00  0.00    -0.306 N 
HETATM   11  O   UNL     1      41.094 -15.100  -3.609  1.00  0.00    -0.247 OA
HETATM   12  H   UNL     1      39.319 -14.365  -1.109  1.00  0.00     0.171 HD
HETATM   13  H   UNL     1      42.575 -15.115  -1.799  1.00  0.00     0.164 HD
BRANCH  10  14
HETATM   14  C   UNL     1      38.348 -14.086  -2.895  1.00  0.00     0.075 A 
HETATM   15  C   UNL     1      37.622 -15.005  -3.663  1.00  0.00     0.144 A 
HETATM   16  F   UNL     1      37.969 -16.293  -3.757  1.00  0.00    -0.204 F 
HETATM   17  C   UNL     1      36.514 -14.603  -4.414  1.00  0.00     0.063 A 
HETATM   18  C   UNL     1      36.128 -13.267  -4.417  1.00  0.00     0.014 A 
HETATM   19 BR   UNL     1      34.637 -12.718  -5.439  1.00  0.00    -0.051 Br
HETATM   20  C   UNL     1      36.843 -12.330  -3.680  1.00  0.00     0.021 A 
HETATM   21  C   UNL     1      37.946 -12.739  -2.925  1.00  0.00     0.034 A 
ENDBRANCH  10  14
ENDBRANCH   7   8
ENDBRANCH   4   7
BRANCH   1  22
HETATM   22  N   UNL     1      43.030 -18.536   3.661  1.00  0.00    -0.321 N 
HETATM   23  C   UNL     1      44.003 -19.521   3.610  1.00  0.00     0.279 C 
HETATM   24  O   UNL     1      44.751 -19.737   2.663  1.00  0.00    -0.265 OA
HETATM   25  H   UNL     1      42.509 -18.503   4.530  1.00  0.00     0.169 HD
BRANCH  23  26
HETATM   26  C   UNL     1      44.086 -20.285   4.843  1.00  0.00     0.142 A 
HETATM   27  O   UNL     1      44.649 -21.537   4.828  1.00  0.00    -0.317 OA
HETATM   28  C   UNL     1      44.571 -22.024   6.094  1.00  0.00     0.143 A 
HETATM   29  C   UNL     1      43.967 -21.114   6.926  1.00  0.00     0.027 A 
HETATM   30  C   UNL     1      43.658 -19.990   6.123  1.00  0.00     0.045 A 
ENDBRANCH  23  26
ENDBRANCH   1  22
TORSDOF 5
ENDMDL
MODEL 10
REMARK VINA RESULT:      -7.7      3.859      4.119
REMARK  5 active torsions:
REMARK  status: ('A' for Active; 'I' for Inactive)
REMARK    1  A    between atoms: C_4  and  C_5 
REMARK       I    between atoms: C_5  and  N_6 
REMARK    2  A    between atoms: N_6  and  C_7 
REMARK    3  A    between atoms: C_10  and  C_11 
REMARK    4  A    between atoms: C_11  and  N_12 
REMARK       I    between atoms: N_12  and  C_13 
REMARK       I    between atoms: C_13  and  N_14 
REMARK    5  A    between atoms: N_14  and  C_15 
ROOT
HETATM    1  C   UNL     1      42.869 -16.346   3.462  1.00  0.00     0.035 A 
HETATM    2  C   UNL     1      41.740 -16.040   4.221  1.00  0.00     0.030 A 
HETATM    3  C   UNL     1      41.400 -14.710   4.485  1.00  0.00     0.011 A 
HETATM    4  C   UNL     1      42.179 -13.660   3.985  1.00  0.00    -0.040 A 
HETATM    5  C   UNL     1      43.347 -13.967   3.280  1.00  0.00     0.011 A 
HETATM    6  C   UNL     1      43.688 -15.299   3.023  1.00  0.00     0.030 A 
ENDROOT
BRANCH   4   7
HETATM    7  C   UNL     1      41.736 -12.235   4.166  1.00  0.00     0.162 C 
BRANCH   7   8
HETATM    8  N   UNL     1      40.302 -12.086   4.199  1.00  0.00    -0.339 N 
HETATM    9  C   UNL     1      39.529 -11.545   5.190  1.00  0.00     0.321 C 
HETATM   10  N   UNL     1      40.220 -11.108   6.289  1.00  0.00    -0.306 N 
HETATM   11  O   UNL     1      38.318 -11.513   5.015  1.00  0.00    -0.247 OA
HETATM   12  H   UNL     1      41.173 -11.425   6.350  1.00  0.00     0.171 HD
HETATM   13  H   UNL     1      39.764 -12.381   3.394  1.00  0.00     0.164 HD
BRANCH  10  14
HETATM   14  C   UNL     1      39.753 -10.399   7.419  1.00  0.00     0.075 A 
HETATM   15  C   UNL     1      39.164 -10.952   8.564  1.00  0.00     0.144 A 
HETATM   16  F   UNL     1      38.939 -12.264   8.692  1.00  0.00    -0.204 F 
HETATM   17  C   UNL     1      38.735 -10.142   9.618  1.00  0.00     0.063 A 
HETATM   18  C   UNL     1      38.877  -8.761   9.533  1.00  0.00     0.014 A 
HETATM   19 BR   UNL     1      38.289  -7.662  10.952  1.00  0.00    -0.051 Br
HETATM   20  C   UNL     1      39.440  -8.184   8.400  1.00  0.00     0.021 A 
HETATM   21  C   UNL     1      39.873  -9.000   7.350  1.00  0.00     0.034 A 
ENDBRANCH  10  14
ENDBRANCH   7   8
ENDBRANCH   4   7
BRANCH   1  22
HETATM   22  N   UNL     1      43.220 -17.650   3.065  1.00  0.00    -0.321 N 
HETATM   23  C   UNL     1      43.964 -18.585   3.766  1.00  0.00     0.279 C 
HETATM   24  O   UNL     1      44.543 -18.385   4.828  1.00  0.00    -0.265 OA
HETATM   25  H   UNL     1      42.809 -17.997   2.205  1.00  0.00     0.169 HD
BRANCH  23  26
HETATM   26  C   UNL     1      43.970 -19.888   3.122  1.00  0.00     0.142 A 
HETATM   27  O   UNL     1      44.626 -20.936   3.719  1.00  0.00    -0.317 OA
HETATM   28  C   UNL     1      44.492 -22.009   2.897  1.00  0.00     0.143 A 
HETATM   29  C   UNL     1      43.766 -21.676   1.779  1.00  0.00     0.027 A 
HETATM   30  C   UNL     1      43.424 -20.310   1.925  1.00  0.00     0.045 A 
ENDBRANCH  23  26
ENDBRANCH   1  22
TORSDOF 5
ENDMDL
