MODEL 1
REMARK VINA RESULT:      -8.1      0.000      0.000
REMARK  3 active torsions:
REMARK  status: ('A' for Active; 'I' for Inactive)
REMARK    1  A    between atoms: C_6  and  N_7 
REMARK       I    between atoms: N_7  and  C_8 
REMARK    2  A    between atoms: C_8  and  C_9 
REMARK    3  A    between atoms: C_9  and  C_10 
ROOT
HETATM    1  C   UNL     1      40.741 -14.836   4.702  1.00  0.00     0.286 C 
HETATM    2  N   UNL     1      40.459 -15.729   3.483  1.00  0.00    -0.056 N 
HETATM    3  H   UNL     1      40.775 -16.694   3.703  1.00  0.00     0.278 HD
HETATM    4  H   UNL     1      39.445 -15.783   3.320  1.00  0.00     0.278 HD
HETATM    5  C   UNL     1      41.186 -15.342   2.220  1.00  0.00     0.209 C 
HETATM    6  C   UNL     1      41.040 -13.826   1.987  1.00  0.00     0.115 C 
HETATM    7  N   UNL     1      41.576 -13.090   3.120  1.00  0.00    -0.353 N 
HETATM    8  C   UNL     1      41.463 -13.501   4.420  1.00  0.00     0.249 C 
HETATM    9  O   UNL     1      41.919 -12.809   5.327  1.00  0.00    -0.271 OA
HETATM   10  C   UNL     1      40.638 -16.155   1.053  1.00  0.00     0.035 C 
HETATM   11  C   UNL     1      41.335 -15.753  -0.246  1.00  0.00     0.002 C 
HETATM   12  C   UNL     1      41.239 -14.249  -0.500  1.00  0.00     0.002 C 
HETATM   13  C   UNL     1      41.742 -13.427   0.687  1.00  0.00     0.027 C 
HETATM   14  H   UNL     1      41.982 -12.165   2.990  1.00  0.00     0.163 HD
ENDROOT
BRANCH   1  15
HETATM   15  C   UNL     1      41.463 -15.609   5.811  1.00  0.00     0.146 C 
BRANCH  15  16
HETATM   16  C   UNL     1      41.667 -17.025   5.338  1.00  0.00     0.224 C 
HETATM   17  N   UNL     1      42.879 -17.257   4.736  1.00  0.00    -0.327 N 
HETATM   18  H   UNL     1      43.600 -16.549   4.842  1.00  0.00     0.169 HD
HETATM   19  O   UNL     1      40.707 -17.790   5.429  1.00  0.00    -0.273 OA
BRANCH  17  20
HETATM   20  C   UNL     1      43.271 -18.405   4.000  1.00  0.00     0.040 A 
HETATM   21  C   UNL     1      44.168 -19.320   4.592  1.00  0.00    -0.035 A 
HETATM   22  C   UNL     1      44.592 -20.446   3.859  1.00  0.00     0.015 A 
HETATM   23  C   UNL     1      44.688 -19.156   5.997  1.00  0.00     0.050 C 
HETATM   24  C   UNL     1      44.153 -20.671   2.551  1.00  0.00    -0.061 A 
HETATM   25  C   UNL     1      44.583 -21.891   1.792  1.00  0.00     0.048 C 
HETATM   26  C   UNL     1      43.260 -19.766   1.979  1.00  0.00     0.009 A 
HETATM   27  C   UNL     1      42.825 -18.646   2.695  1.00  0.00     0.030 A 
ENDBRANCH  17  20
ENDBRANCH  15  16
ENDBRANCH   1  15
TORSDOF 3
ENDMDL
MODEL 2
REMARK VINA RESULT:      -8.1      1.451      2.168
REMARK  3 active torsions:
REMARK  status: ('A' for Active; 'I' for Inactive)
REMARK    1  A    between atoms: C_6  and  N_7 
REMARK       I    between atoms: N_7  and  C_8 
REMARK    2  A    between atoms: C_8  and  C_9 
REMARK    3  A    between atoms: C_9  and  C_10 
ROOT
HETATM    1  C   UNL     1      41.133 -14.714   5.518  1.00  0.00     0.286 C 
HETATM    2  N   UNL     1      40.513 -15.427   4.306  1.00  0.00    -0.056 N 
HETATM    3  H   UNL     1      41.197 -16.123   3.949  1.00  0.00     0.278 HD
HETATM    4  H   UNL     1      39.684 -15.957   4.602  1.00  0.00     0.278 HD
HETATM    5  C   UNL     1      40.191 -14.537   3.132  1.00  0.00     0.209 C 
HETATM    6  C   UNL     1      39.442 -13.285   3.627  1.00  0.00     0.115 C 
HETATM    7  N   UNL     1      40.252 -12.564   4.594  1.00  0.00    -0.353 N 
HETATM    8  C   UNL     1      41.061 -13.171   5.516  1.00  0.00     0.249 C 
HETATM    9  O   UNL     1      41.696 -12.494   6.320  1.00  0.00    -0.271 OA
HETATM   10  C   UNL     1      39.376 -15.323   2.111  1.00  0.00     0.035 C 
HETATM   11  C   UNL     1      39.005 -14.430   0.928  1.00  0.00     0.002 C 
HETATM   12  C   UNL     1      38.285 -13.159   1.380  1.00  0.00     0.002 C 
HETATM   13  C   UNL     1      39.075 -12.391   2.439  1.00  0.00     0.027 C 
HETATM   14  H   UNL     1      40.170 -11.553   4.687  1.00  0.00     0.163 HD
ENDROOT
BRANCH   1  15
HETATM   15  C   UNL     1      42.571 -15.180   5.770  1.00  0.00     0.146 C 
BRANCH  15  16
HETATM   16  C   UNL     1      42.657 -16.643   5.421  1.00  0.00     0.224 C 
HETATM   17  N   UNL     1      43.621 -16.954   4.494  1.00  0.00    -0.327 N 
HETATM   18  H   UNL     1      44.316 -16.243   4.283  1.00  0.00     0.169 HD
HETATM   19  O   UNL     1      41.799 -17.385   5.900  1.00  0.00    -0.273 OA
BRANCH  17  20
HETATM   20  C   UNL     1      43.793 -18.183   3.807  1.00  0.00     0.040 A 
HETATM   21  C   UNL     1      43.319 -18.295   2.483  1.00  0.00    -0.035 A 
HETATM   22  C   UNL     1      43.453 -19.522   1.801  1.00  0.00     0.015 A 
HETATM   23  C   UNL     1      42.681 -17.145   1.747  1.00  0.00     0.050 C 
HETATM   24  C   UNL     1      44.035 -20.634   2.413  1.00  0.00    -0.061 A 
HETATM   25  C   UNL     1      44.205 -21.925   1.667  1.00  0.00     0.048 C 
HETATM   26  C   UNL     1      44.510 -20.510   3.719  1.00  0.00     0.009 A 
HETATM   27  C   UNL     1      44.388 -19.299   4.407  1.00  0.00     0.030 A 
ENDBRANCH  17  20
ENDBRANCH  15  16
ENDBRANCH   1  15
TORSDOF 3
ENDMDL
MODEL 3
REMARK VINA RESULT:      -8.0      1.830      6.441
REMARK  3 active torsions:
REMARK  status: ('A' for Active; 'I' for Inactive)
REMARK    1  A    between atoms: C_6  and  N_7 
REMARK       I    between atoms: N_7  and  C_8 
REMARK    2  A    between atoms: C_8  and  C_9 
REMARK    3  A    between atoms: C_9  and  C_10 
ROOT
HETATM    1  C   UNL     1      43.760 -17.492   5.421  1.00  0.00     0.286 C 
HETATM    2  N   UNL     1      43.573 -17.817   3.930  1.00  0.00    -0.056 N 
HETATM    3  H   UNL     1      42.666 -17.418   3.618  1.00  0.00     0.278 HD
HETATM    4  H   UNL     1      44.304 -17.349   3.379  1.00  0.00     0.278 HD
HETATM    5  C   UNL     1      43.507 -19.286   3.596  1.00  0.00     0.209 C 
HETATM    6  C   UNL     1      44.658 -20.026   4.304  1.00  0.00     0.115 C 
HETATM    7  N   UNL     1      44.570 -19.835   5.741  1.00  0.00    -0.353 N 
HETATM    8  C   UNL     1      44.166 -18.669   6.333  1.00  0.00     0.249 C 
HETATM    9  O   UNL     1      44.143 -18.575   7.558  1.00  0.00    -0.271 OA
HETATM   10  C   UNL     1      43.560 -19.462   2.083  1.00  0.00     0.035 C 
HETATM   11  C   UNL     1      43.532 -20.946   1.721  1.00  0.00     0.002 C 
HETATM   12  C   UNL     1      44.642 -21.724   2.427  1.00  0.00     0.002 C 
HETATM   13  C   UNL     1      44.625 -21.513   3.941  1.00  0.00     0.027 C 
HETATM   14  H   UNL     1      44.909 -20.552   6.380  1.00  0.00     0.163 HD
ENDROOT
BRANCH   1  15
HETATM   15  C   UNL     1      42.537 -16.768   5.996  1.00  0.00     0.146 C 
BRANCH  15  16
HETATM   16  C   UNL     1      42.148 -15.673   5.037  1.00  0.00     0.224 C 
HETATM   17  N   UNL     1      40.834 -15.703   4.639  1.00  0.00    -0.327 N 
HETATM   18  H   UNL     1      40.199 -16.299   5.161  1.00  0.00     0.169 HD
HETATM   19  O   UNL     1      43.050 -14.944   4.621  1.00  0.00    -0.273 OA
BRANCH  17  20
HETATM   20  C   UNL     1      40.233 -14.959   3.591  1.00  0.00     0.040 A 
HETATM   21  C   UNL     1      40.064 -15.572   2.331  1.00  0.00    -0.035 A 
HETATM   22  C   UNL     1      39.499 -14.834   1.272  1.00  0.00     0.015 A 
HETATM   23  C   UNL     1      40.448 -17.005   2.066  1.00  0.00     0.050 C 
HETATM   24  C   UNL     1      39.114 -13.501   1.439  1.00  0.00    -0.061 A 
HETATM   25  C   UNL     1      38.482 -12.734   0.315  1.00  0.00     0.048 C 
HETATM   26  C   UNL     1      39.276 -12.907   2.690  1.00  0.00     0.009 A 
HETATM   27  C   UNL     1      39.831 -13.628   3.753  1.00  0.00     0.030 A 
ENDBRANCH  17  20
ENDBRANCH  15  16
ENDBRANCH   1  15
TORSDOF 3
ENDMDL
MODEL 4
REMARK VINA RESULT:      -7.9      2.070      6.695
REMARK  3 active torsions:
REMARK  status: ('A' for Active; 'I' for Inactive)
REMARK    1  A    between atoms: C_6  and  N_7 
REMARK       I    between atoms: N_7  and  C_8 
REMARK    2  A    between atoms: C_8  and  C_9 
REMARK    3  A    between atoms: C_9  and  C_10 
ROOT
HETATM    1  C   UNL     1      43.667 -17.614   6.242  1.00  0.00     0.286 C 
HETATM    2  N   UNL     1      43.516 -17.602   4.713  1.00  0.00    -0.056 N 
HETATM    3  H   UNL     1      42.616 -17.141   4.476  1.00  0.00     0.278 HD
HETATM    4  H   UNL     1      44.258 -17.026   4.296  1.00  0.00     0.278 HD
HETATM    5  C   UNL     1      43.459 -18.960   4.061  1.00  0.00     0.209 C 
HETATM    6  C   UNL     1      44.594 -19.843   4.615  1.00  0.00     0.115 C 
HETATM    7  N   UNL     1      44.472 -19.973   6.057  1.00  0.00    -0.353 N 
HETATM    8  C   UNL     1      44.052 -18.966   6.882  1.00  0.00     0.249 C 
HETATM    9  O   UNL     1      44.000 -19.144   8.096  1.00  0.00    -0.271 OA
HETATM   10  C   UNL     1      43.548 -18.798   2.549  1.00  0.00     0.035 C 
HETATM   11  C   UNL     1      43.531 -20.166   1.867  1.00  0.00     0.002 C 
HETATM   12  C   UNL     1      44.625 -21.085   2.410  1.00  0.00     0.002 C 
HETATM   13  C   UNL     1      44.572 -21.213   3.933  1.00  0.00     0.027 C 
HETATM   14  H   UNL     1      44.797 -20.815   6.530  1.00  0.00     0.163 HD
ENDROOT
BRANCH   1  15
HETATM   15  C   UNL     1      42.430 -17.031   6.935  1.00  0.00     0.146 C 
BRANCH  15  16
HETATM   16  C   UNL     1      42.119 -15.702   6.296  1.00  0.00     0.224 C 
HETATM   17  N   UNL     1      40.797 -15.517   5.976  1.00  0.00    -0.327 N 
HETATM   18  H   UNL     1      40.123 -16.167   6.369  1.00  0.00     0.169 HD
HETATM   19  O   UNL     1      43.075 -14.974   6.023  1.00  0.00    -0.273 OA
BRANCH  17  20
HETATM   20  C   UNL     1      40.239 -14.487   5.176  1.00  0.00     0.040 A 
HETATM   21  C   UNL     1      40.191 -14.661   3.776  1.00  0.00    -0.035 A 
HETATM   22  C   UNL     1      39.670 -13.631   2.968  1.00  0.00     0.015 A 
HETATM   23  C   UNL     1      40.661 -15.921   3.097  1.00  0.00     0.050 C 
HETATM   24  C   UNL     1      39.211 -12.433   3.521  1.00  0.00    -0.061 A 
HETATM   25  C   UNL     1      38.627 -11.356   2.655  1.00  0.00     0.048 C 
HETATM   26  C   UNL     1      39.254 -12.274   4.906  1.00  0.00     0.009 A 
HETATM   27  C   UNL     1      39.763 -13.289   5.723  1.00  0.00     0.030 A 
ENDBRANCH  17  20
ENDBRANCH  15  16
ENDBRANCH   1  15
TORSDOF 3
ENDMDL
MODEL 5
REMARK VINA RESULT:      -7.9      2.546      4.354
REMARK  3 active torsions:
REMARK  status: ('A' for Active; 'I' for Inactive)
REMARK    1  A    between atoms: C_6  and  N_7 
REMARK       I    between atoms: N_7  and  C_8 
REMARK    2  A    between atoms: C_8  and  C_9 
REMARK    3  A    between atoms: C_9  and  C_10 
ROOT
HETATM    1  C   UNL     1      41.848 -13.977   5.052  1.00  0.00     0.286 C 
HETATM    2  N   UNL     1      42.033 -12.454   5.138  1.00  0.00    -0.056 N 
HETATM    3  H   UNL     1      43.049 -12.251   5.208  1.00  0.00     0.278 HD
HETATM    4  H   UNL     1      41.705 -12.015   4.268  1.00  0.00     0.278 HD
HETATM    5  C   UNL     1      41.405 -11.797   6.341  1.00  0.00     0.209 C 
HETATM    6  C   UNL     1      39.960 -12.306   6.509  1.00  0.00     0.115 C 
HETATM    7  N   UNL     1      39.952 -13.751   6.665  1.00  0.00    -0.353 N 
HETATM    8  C   UNL     1      40.802 -14.595   6.005  1.00  0.00     0.249 C 
HETATM    9  O   UNL     1      40.716 -15.809   6.170  1.00  0.00    -0.271 OA
HETATM   10  C   UNL     1      41.461 -10.283   6.176  1.00  0.00     0.035 C 
HETATM   11  C   UNL     1      40.796  -9.595   7.367  1.00  0.00     0.002 C 
HETATM   12  C   UNL     1      39.368 -10.095   7.587  1.00  0.00     0.002 C 
HETATM   13  C   UNL     1      39.298 -11.617   7.705  1.00  0.00     0.027 C 
HETATM   14  H   UNL     1      39.225 -14.207   7.214  1.00  0.00     0.163 HD
ENDROOT
BRANCH   1  15
HETATM   15  C   UNL     1      43.186 -14.715   5.177  1.00  0.00     0.146 C 
BRANCH  15  16
HETATM   16  C   UNL     1      43.253 -15.751   4.086  1.00  0.00     0.224 C 
HETATM   17  N   UNL     1      43.092 -17.045   4.516  1.00  0.00    -0.327 N 
HETATM   18  H   UNL     1      42.742 -17.187   5.459  1.00  0.00     0.169 HD
HETATM   19  O   UNL     1      43.553 -15.359   2.958  1.00  0.00    -0.273 OA
BRANCH  17  20
HETATM   20  C   UNL     1      43.325 -18.235   3.779  1.00  0.00     0.040 A 
HETATM   21  C   UNL     1      44.240 -19.182   4.286  1.00  0.00    -0.035 A 
HETATM   22  C   UNL     1      44.505 -20.353   3.547  1.00  0.00     0.015 A 
HETATM   23  C   UNL     1      44.944 -19.007   5.607  1.00  0.00     0.050 C 
HETATM   24  C   UNL     1      43.891 -20.590   2.314  1.00  0.00    -0.061 A 
HETATM   25  C   UNL     1      44.154 -21.855   1.551  1.00  0.00     0.048 C 
HETATM   26  C   UNL     1      42.981 -19.652   1.827  1.00  0.00     0.009 A 
HETATM   27  C   UNL     1      42.703 -18.488   2.551  1.00  0.00     0.030 A 
ENDBRANCH  17  20
ENDBRANCH  15  16
ENDBRANCH   1  15
TORSDOF 3
ENDMDL
MODEL 6
REMARK VINA RESULT:      -7.8      2.328      3.891
REMARK  3 active torsions:
REMARK  status: ('A' for Active; 'I' for Inactive)
REMARK    1  A    between atoms: C_6  and  N_7 
REMARK       I    between atoms: N_7  and  C_8 
REMARK    2  A    between atoms: C_8  and  C_9 
REMARK    3  A    between atoms: C_9  and  C_10 
ROOT
HETATM    1  C   UNL     1      42.237 -15.356   5.604  1.00  0.00     0.286 C 
HETATM    2  N   UNL     1      42.479 -13.862   5.336  1.00  0.00    -0.056 N 
HETATM    3  H   UNL     1      43.328 -13.568   5.857  1.00  0.00     0.278 HD
HETATM    4  H   UNL     1      42.683 -13.717   4.339  1.00  0.00     0.278 HD
HETATM    5  C   UNL     1      41.380 -12.939   5.799  1.00  0.00     0.209 C 
HETATM    6  C   UNL     1      40.018 -13.490   5.336  1.00  0.00     0.115 C 
HETATM    7  N   UNL     1      39.809 -14.826   5.869  1.00  0.00    -0.353 N 
HETATM    8  C   UNL     1      40.803 -15.755   6.013  1.00  0.00     0.249 C 
HETATM    9  O   UNL     1      40.542 -16.874   6.447  1.00  0.00    -0.271 OA
HETATM   10  C   UNL     1      41.640 -11.536   5.263  1.00  0.00     0.035 C 
HETATM   11  C   UNL     1      40.518 -10.590   5.689  1.00  0.00     0.002 C 
HETATM   12  C   UNL     1      39.144 -11.116   5.274  1.00  0.00     0.002 C 
HETATM   13  C   UNL     1      38.896 -12.542   5.767  1.00  0.00     0.027 C 
HETATM   14  H   UNL     1      38.868 -15.161   6.069  1.00  0.00     0.163 HD
ENDROOT
BRANCH   1  15
HETATM   15  C   UNL     1      43.253 -15.920   6.604  1.00  0.00     0.146 C 
BRANCH  15  16
HETATM   16  C   UNL     1      43.993 -17.047   5.933  1.00  0.00     0.224 C 
HETATM   17  N   UNL     1      43.415 -17.500   4.773  1.00  0.00    -0.327 N 
HETATM   18  H   UNL     1      42.686 -16.928   4.357  1.00  0.00     0.169 HD
HETATM   19  O   UNL     1      44.958 -17.521   6.534  1.00  0.00    -0.273 OA
BRANCH  17  20
HETATM   20  C   UNL     1      43.741 -18.674   4.047  1.00  0.00     0.040 A 
HETATM   21  C   UNL     1      43.295 -18.797   2.713  1.00  0.00    -0.035 A 
HETATM   22  C   UNL     1      43.584 -19.973   1.992  1.00  0.00     0.015 A 
HETATM   23  C   UNL     1      42.529 -17.707   2.009  1.00  0.00     0.050 C 
HETATM   24  C   UNL     1      44.292 -21.028   2.574  1.00  0.00    -0.061 A 
HETATM   25  C   UNL     1      44.624 -22.262   1.787  1.00  0.00     0.048 C 
HETATM   26  C   UNL     1      44.736 -20.893   3.888  1.00  0.00     0.009 A 
HETATM   27  C   UNL     1      44.463 -19.730   4.616  1.00  0.00     0.030 A 
ENDBRANCH  17  20
ENDBRANCH  15  16
ENDBRANCH   1  15
TORSDOF 3
ENDMDL
MODEL 7
REMARK VINA RESULT:      -7.7      2.374      7.125
REMARK  3 active torsions:
REMARK  status: ('A' for Active; 'I' for Inactive)
REMARK    1  A    between atoms: C_6  and  N_7 
REMARK       I    between atoms: N_7  and  C_8 
REMARK    2  A    between atoms: C_8  and  C_9 
REMARK    3  A    between atoms: C_9  and  C_10 
ROOT
HETATM    1  C   UNL     1      42.074 -16.972   2.178  1.00  0.00     0.286 C 
HETATM    2  N   UNL     1      42.747 -18.235   1.618  1.00  0.00    -0.056 N 
HETATM    3  H   UNL     1      42.078 -18.709   0.980  1.00  0.00     0.278 HD
HETATM    4  H   UNL     1      43.559 -17.971   1.047  1.00  0.00     0.278 HD
HETATM    5  C   UNL     1      43.128 -19.270   2.646  1.00  0.00     0.209 C 
HETATM    6  C   UNL     1      43.858 -18.586   3.818  1.00  0.00     0.115 C 
HETATM    7  N   UNL     1      43.005 -17.573   4.418  1.00  0.00    -0.353 N 
HETATM    8  C   UNL     1      42.152 -16.775   3.707  1.00  0.00     0.249 C 
HETATM    9  O   UNL     1      41.482 -15.921   4.283  1.00  0.00    -0.271 OA
HETATM   10  C   UNL     1      43.987 -20.344   1.988  1.00  0.00     0.035 C 
HETATM   11  C   UNL     1      44.417 -21.385   3.020  1.00  0.00     0.002 C 
HETATM   12  C   UNL     1      45.120 -20.743   4.216  1.00  0.00     0.002 C 
HETATM   13  C   UNL     1      44.284 -19.632   4.851  1.00  0.00     0.027 C 
HETATM   14  H   UNL     1      43.087 -17.349   5.408  1.00  0.00     0.163 HD
ENDROOT
BRANCH   1  15
HETATM   15  C   UNL     1      40.623 -16.849   1.697  1.00  0.00     0.146 C 
BRANCH  15  16
HETATM   16  C   UNL     1      40.513 -15.604   0.855  1.00  0.00     0.224 C 
HETATM   17  N   UNL     1      41.079 -15.707  -0.392  1.00  0.00    -0.327 N 
HETATM   18  H   UNL     1      41.326 -16.636  -0.720  1.00  0.00     0.169 HD
HETATM   19  O   UNL     1      40.043 -14.602   1.394  1.00  0.00    -0.273 OA
BRANCH  17  20
HETATM   20  C   UNL     1      41.333 -14.658  -1.313  1.00  0.00     0.040 A 
HETATM   21  C   UNL     1      40.932 -14.820  -2.656  1.00  0.00    -0.035 A 
HETATM   22  C   UNL     1      41.209 -13.800  -3.589  1.00  0.00     0.015 A 
HETATM   23  C   UNL     1      40.198 -16.042  -3.144  1.00  0.00     0.050 C 
HETATM   24  C   UNL     1      41.883 -12.635  -3.215  1.00  0.00    -0.061 A 
HETATM   25  C   UNL     1      42.142 -11.540  -4.208  1.00  0.00     0.048 C 
HETATM   26  C   UNL     1      42.266 -12.481  -1.883  1.00  0.00     0.009 A 
HETATM   27  C   UNL     1      41.995 -13.481  -0.944  1.00  0.00     0.030 A 
ENDBRANCH  17  20
ENDBRANCH  15  16
ENDBRANCH   1  15
TORSDOF 3
ENDMDL
MODEL 8
REMARK VINA RESULT:      -7.6      5.359      7.463
REMARK  3 active torsions:
REMARK  status: ('A' for Active; 'I' for Inactive)
REMARK    1  A    between atoms: C_6  and  N_7 
REMARK       I    between atoms: N_7  and  C_8 
REMARK    2  A    between atoms: C_8  and  C_9 
REMARK    3  A    between atoms: C_9  and  C_10 
ROOT
HETATM    1  C   UNL     1      44.145 -12.516   9.258  1.00  0.00     0.286 C 
HETATM    2  N   UNL     1      43.156 -11.533   8.612  1.00  0.00    -0.056 N 
HETATM    3  H   UNL     1      43.608 -11.117   7.774  1.00  0.00     0.278 HD
HETATM    4  H   UNL     1      42.330 -12.043   8.277  1.00  0.00     0.278 HD
HETATM    5  C   UNL     1      42.753 -10.366   9.477  1.00  0.00     0.209 C 
HETATM    6  C   UNL     1      42.371 -10.874  10.880  1.00  0.00     0.115 C 
HETATM    7  N   UNL     1      43.490 -11.579  11.481  1.00  0.00    -0.353 N 
HETATM    8  C   UNL     1      44.356 -12.374  10.781  1.00  0.00     0.249 C 
HETATM    9  O   UNL     1      45.264 -12.960  11.365  1.00  0.00    -0.271 OA
HETATM   10  C   UNL     1      41.606  -9.616   8.809  1.00  0.00     0.035 C 
HETATM   11  C   UNL     1      41.154  -8.449   9.687  1.00  0.00     0.002 C 
HETATM   12  C   UNL     1      40.793  -8.907  11.100  1.00  0.00     0.002 C 
HETATM   13  C   UNL     1      41.922  -9.702  11.757  1.00  0.00     0.027 C 
HETATM   14  H   UNL     1      43.615 -11.585  12.492  1.00  0.00     0.163 HD
ENDROOT
BRANCH   1  15
HETATM   15  C   UNL     1      45.495 -12.517   8.531  1.00  0.00     0.146 C 
BRANCH  15  16
HETATM   16  C   UNL     1      45.377 -13.414   7.327  1.00  0.00     0.224 C 
HETATM   17  N   UNL     1      44.374 -14.349   7.407  1.00  0.00    -0.327 N 
HETATM   18  H   UNL     1      43.681 -14.232   8.140  1.00  0.00     0.169 HD
HETATM   19  O   UNL     1      46.243 -13.305   6.458  1.00  0.00    -0.273 OA
BRANCH  17  20
HETATM   20  C   UNL     1      44.160 -15.460   6.552  1.00  0.00     0.040 A 
HETATM   21  C   UNL     1      43.400 -15.279   5.376  1.00  0.00    -0.035 A 
HETATM   22  C   UNL     1      43.150 -16.382   4.535  1.00  0.00     0.015 A 
HETATM   23  C   UNL     1      42.848 -13.938   4.964  1.00  0.00     0.050 C 
HETATM   24  C   UNL     1      43.630 -17.657   4.847  1.00  0.00    -0.061 A 
HETATM   25  C   UNL     1      43.389 -18.818   3.928  1.00  0.00     0.048 C 
HETATM   26  C   UNL     1      44.388 -17.824   6.005  1.00  0.00     0.009 A 
HETATM   27  C   UNL     1      44.648 -16.738   6.848  1.00  0.00     0.030 A 
ENDBRANCH  17  20
ENDBRANCH  15  16
ENDBRANCH   1  15
TORSDOF 3
ENDMDL
MODEL 9
REMARK VINA RESULT:      -7.6      1.280      1.848
REMARK  3 active torsions:
REMARK  status: ('A' for Active; 'I' for Inactive)
REMARK    1  A    between atoms: C_6  and  N_7 
REMARK       I    between atoms: N_7  and  C_8 
REMARK    2  A    between atoms: C_8  and  C_9 
REMARK    3  A    between atoms: C_9  and  C_10 
ROOT
HETATM    1  C   UNL     1      42.336 -14.795   5.328  1.00  0.00     0.286 C 
HETATM    2  N   UNL     1      41.218 -15.513   4.555  1.00  0.00    -0.056 N 
HETATM    3  H   UNL     1      41.169 -16.496   4.887  1.00  0.00     0.278 HD
HETATM    4  H   UNL     1      40.311 -15.083   4.778  1.00  0.00     0.278 HD
HETATM    5  C   UNL     1      41.419 -15.598   3.063  1.00  0.00     0.209 C 
HETATM    6  C   UNL     1      41.827 -14.215   2.520  1.00  0.00     0.115 C 
HETATM    7  N   UNL     1      43.047 -13.761   3.166  1.00  0.00    -0.353 N 
HETATM    8  C   UNL     1      43.345 -13.990   4.482  1.00  0.00     0.249 C 
HETATM    9  O   UNL     1      44.386 -13.551   4.963  1.00  0.00    -0.271 OA
HETATM   10  C   UNL     1      40.143 -16.115   2.410  1.00  0.00     0.035 C 
HETATM   11  C   UNL     1      40.310 -16.174   0.892  1.00  0.00     0.002 C 
HETATM   12  C   UNL     1      40.744 -14.826   0.316  1.00  0.00     0.002 C 
HETATM   13  C   UNL     1      41.997 -14.279   1.000  1.00  0.00     0.027 C 
HETATM   14  H   UNL     1      43.698 -13.154   2.672  1.00  0.00     0.163 HD
ENDROOT
BRANCH   1  15
HETATM   15  C   UNL     1      43.074 -15.754   6.269  1.00  0.00     0.146 C 
BRANCH  15  16
HETATM   16  C   UNL     1      42.965 -17.145   5.700  1.00  0.00     0.224 C 
HETATM   17  N   UNL     1      44.043 -17.539   4.947  1.00  0.00    -0.327 N 
HETATM   18  H   UNL     1      44.887 -16.977   5.004  1.00  0.00     0.169 HD
HETATM   19  O   UNL     1      41.897 -17.736   5.863  1.00  0.00    -0.273 OA
BRANCH  17  20
HETATM   20  C   UNL     1      44.139 -18.680   4.109  1.00  0.00     0.040 A 
HETATM   21  C   UNL     1      44.002 -18.515   2.714  1.00  0.00    -0.035 A 
HETATM   22  C   UNL     1      44.061 -19.645   1.874  1.00  0.00     0.015 A 
HETATM   23  C   UNL     1      43.809 -17.166   2.071  1.00  0.00     0.050 C 
HETATM   24  C   UNL     1      44.240 -20.929   2.393  1.00  0.00    -0.061 A 
HETATM   25  C   UNL     1      44.336 -22.122   1.488  1.00  0.00     0.048 C 
HETATM   26  C   UNL     1      44.384 -21.081   3.772  1.00  0.00     0.009 A 
HETATM   27  C   UNL     1      44.333 -19.969   4.619  1.00  0.00     0.030 A 
ENDBRANCH  17  20
ENDBRANCH  15  16
ENDBRANCH   1  15
TORSDOF 3
ENDMDL
MODEL 10
REMARK VINA RESULT:      -7.5      2.192      3.144
REMARK  3 active torsions:
REMARK  status: ('A' for Active; 'I' for Inactive)
REMARK    1  A    between atoms: C_6  and  N_7 
REMARK       I    between atoms: N_7  and  C_8 
REMARK    2  A    between atoms: C_8  and  C_9 
REMARK    3  A    between atoms: C_9  and  C_10 
ROOT
HETATM    1  C   UNL     1      39.772 -14.777   1.583  1.00  0.00     0.286 C 
HETATM    2  N   UNL     1      40.386 -15.533   0.394  1.00  0.00    -0.056 N 
HETATM    3  H   UNL     1      41.318 -15.891   0.679  1.00  0.00     0.278 HD
HETATM    4  H   UNL     1      39.810 -16.355   0.173  1.00  0.00     0.278 HD
HETATM    5  C   UNL     1      40.631 -14.701  -0.839  1.00  0.00     0.209 C 
HETATM    6  C   UNL     1      39.375 -13.865  -1.153  1.00  0.00     0.115 C 
HETATM    7  N   UNL     1      39.048 -13.007  -0.027  1.00  0.00    -0.353 N 
HETATM    8  C   UNL     1      39.200 -13.374   1.283  1.00  0.00     0.249 C 
HETATM    9  O   UNL     1      38.875 -12.603   2.181  1.00  0.00    -0.271 OA
HETATM   10  C   UNL     1      41.012 -15.615  -1.997  1.00  0.00     0.035 C 
HETATM   11  C   UNL     1      41.229 -14.797  -3.270  1.00  0.00     0.002 C 
HETATM   12  C   UNL     1      40.015 -13.929  -3.600  1.00  0.00     0.002 C 
HETATM   13  C   UNL     1      39.597 -13.044  -2.426  1.00  0.00     0.027 C 
HETATM   14  H   UNL     1      38.588 -12.110  -0.176  1.00  0.00     0.163 HD
ENDROOT
BRANCH   1  15
HETATM   15  C   UNL     1      40.740 -14.714   2.770  1.00  0.00     0.146 C 
BRANCH  15  16
HETATM   16  C   UNL     1      41.096 -16.125   3.159  1.00  0.00     0.224 C 
HETATM   17  N   UNL     1      42.361 -16.276   3.671  1.00  0.00    -0.327 N 
HETATM   18  H   UNL     1      42.862 -15.434   3.940  1.00  0.00     0.169 HD
HETATM   19  O   UNL     1      40.282 -17.006   2.879  1.00  0.00    -0.273 OA
BRANCH  17  20
HETATM   20  C   UNL     1      43.056 -17.488   3.912  1.00  0.00     0.040 A 
HETATM   21  C   UNL     1      43.705 -18.128   2.834  1.00  0.00    -0.035 A 
HETATM   22  C   UNL     1      44.370 -19.351   3.053  1.00  0.00     0.015 A 
HETATM   23  C   UNL     1      43.734 -17.548   1.444  1.00  0.00     0.050 C 
HETATM   24  C   UNL     1      44.390 -19.952   4.314  1.00  0.00    -0.061 A 
HETATM   25  C   UNL     1      45.130 -21.237   4.545  1.00  0.00     0.048 C 
HETATM   26  C   UNL     1      43.755 -19.308   5.375  1.00  0.00     0.009 A 
HETATM   27  C   UNL     1      43.094 -18.091   5.175  1.00  0.00     0.030 A 
ENDBRANCH  17  20
ENDBRANCH  15  16
ENDBRANCH   1  15
TORSDOF 3
ENDMDL
