MODEL 1
REMARK VINA RESULT:      -8.4      0.000      0.000
REMARK  5 active torsions:
REMARK  status: ('A' for Active; 'I' for Inactive)
REMARK    1  A    between atoms: C_8  and  N_9 
REMARK    2  A    between atoms: N_9  and  C_10 
REMARK    3  A    between atoms: C_10  and  C_11 
REMARK       I    between atoms: C_11  and  N_12 
REMARK    4  A    between atoms: N_12  and  N_13 
REMARK    5  A    between atoms: C_14  and  C_15 
ROOT
HETATM    1  C   UNL     1      44.979 -13.566   7.537  1.00  0.00     0.250 C 
HETATM    2  N   UNL     1      43.913 -14.438   7.311  1.00  0.00    -0.246 N 
HETATM    3  O   UNL     1      45.872 -13.317   6.729  1.00  0.00    -0.270 OA
HETATM    4  H   UNL     1      43.096 -14.366   7.910  1.00  0.00     0.192 HD
ENDROOT
BRANCH   2   5
HETATM    5  N   UNL     1      43.639 -15.068   6.120  1.00  0.00    -0.184 NA
HETATM    6  C   UNL     1      43.721 -16.360   6.066  1.00  0.00     0.152 C 
BRANCH   6   7
HETATM    7  C   UNL     1      43.476 -17.033   4.805  1.00  0.00     0.011 A 
HETATM    8  C   UNL     1      43.955 -18.325   4.409  1.00  0.00     0.004 A 
HETATM    9  C   UNL     1      43.476 -18.571   3.121  1.00  0.00     0.043 A 
HETATM   10  C   UNL     1      44.755 -19.311   5.026  1.00  0.00     0.014 A 
HETATM   11  C   UNL     1      43.753 -19.752   2.421  1.00  0.00     0.030 A 
HETATM   12  N   UNL     1      42.739 -17.473   2.745  1.00  0.00    -0.364 N 
HETATM   13  C   UNL     1      44.547 -20.712   3.056  1.00  0.00     0.002 A 
HETATM   14  C   UNL     1      45.042 -20.497   4.339  1.00  0.00     0.001 A 
HETATM   15  H   UNL     1      42.276 -17.372   1.853  1.00  0.00     0.165 HD
HETATM   16  C   UNL     1      42.731 -16.543   3.748  1.00  0.00     0.102 A 
ENDBRANCH   6   7
ENDBRANCH   2   5
BRANCH   1  17
HETATM   17  C   UNL     1      44.933 -12.920   8.932  1.00  0.00     0.197 C 
BRANCH  17  18
HETATM   18  N   UNL     1      44.812 -11.454   8.821  1.00  0.00    -0.284 NA
HETATM   19  H   UNL     1      44.512 -11.180   7.887  1.00  0.00     0.128 HD
BRANCH  18  20
HETATM   20  C   UNL     1      43.985 -10.893   9.816  1.00  0.00     0.016 A 
HETATM   21  C   UNL     1      42.690 -10.412   9.519  1.00  0.00    -0.019 A 
HETATM   22  C   UNL     1      42.086 -10.601   8.151  1.00  0.00     0.052 C 
HETATM   23  C   UNL     1      41.966  -9.755  10.534  1.00  0.00     0.041 A 
HETATM   24 CL   UNL     1      40.392  -9.094  10.247  1.00  0.00    -0.084 Cl
HETATM   25  C   UNL     1      42.498  -9.604  11.816  1.00  0.00     0.024 A 
HETATM   26  C   UNL     1      43.765 -10.094  12.108  1.00  0.00     0.003 A 
HETATM   27  C   UNL     1      44.506 -10.726  11.110  1.00  0.00     0.024 A 
ENDBRANCH  18  20
ENDBRANCH  17  18
ENDBRANCH   1  17
TORSDOF 5
ENDMDL
MODEL 2
REMARK VINA RESULT:      -8.4      5.981      7.945
REMARK  5 active torsions:
REMARK  status: ('A' for Active; 'I' for Inactive)
REMARK    1  A    between atoms: C_8  and  N_9 
REMARK    2  A    between atoms: N_9  and  C_10 
REMARK    3  A    between atoms: C_10  and  C_11 
REMARK       I    between atoms: C_11  and  N_12 
REMARK    4  A    between atoms: N_12  and  N_13 
REMARK    5  A    between atoms: C_14  and  C_15 
ROOT
HETATM    1  C   UNL     1      42.768 -13.769   3.079  1.00  0.00     0.250 C 
HETATM    2  N   UNL     1      42.138 -14.945   3.487  1.00  0.00    -0.246 N 
HETATM    3  O   UNL     1      43.957 -13.507   3.254  1.00  0.00    -0.270 OA
HETATM    4  H   UNL     1      41.249 -15.190   3.061  1.00  0.00     0.192 HD
ENDROOT
BRANCH   2   5
HETATM    5  N   UNL     1      42.767 -16.031   4.051  1.00  0.00    -0.184 NA
HETATM    6  C   UNL     1      43.141 -17.003   3.279  1.00  0.00     0.152 C 
BRANCH   6   7
HETATM    7  C   UNL     1      43.766 -18.173   3.867  1.00  0.00     0.011 A 
HETATM    8  C   UNL     1      43.880 -19.476   3.280  1.00  0.00     0.004 A 
HETATM    9  C   UNL     1      44.554 -20.288   4.196  1.00  0.00     0.043 A 
HETATM   10  C   UNL     1      43.473 -20.044   2.055  1.00  0.00     0.014 A 
HETATM   11  C   UNL     1      44.842 -21.635   3.946  1.00  0.00     0.030 A 
HETATM   12  N   UNL     1      44.834 -19.512   5.296  1.00  0.00    -0.364 N 
HETATM   13  C   UNL     1      44.428 -22.172   2.724  1.00  0.00     0.002 A 
HETATM   14  C   UNL     1      43.753 -21.390   1.790  1.00  0.00     0.001 A 
HETATM   15  H   UNL     1      45.313 -19.842   6.122  1.00  0.00     0.165 HD
HETATM   16  C   UNL     1      44.366 -18.240   5.111  1.00  0.00     0.102 A 
ENDBRANCH   6   7
ENDBRANCH   2   5
BRANCH   1  17
HETATM   17  C   UNL     1      41.813 -12.802   2.361  1.00  0.00     0.197 C 
BRANCH  17  18
HETATM   18  N   UNL     1      42.513 -12.090   1.274  1.00  0.00    -0.284 NA
HETATM   19  H   UNL     1      43.516 -12.055   1.447  1.00  0.00     0.128 HD
BRANCH  18  20
HETATM   20  C   UNL     1      42.225 -12.614  -0.003  1.00  0.00     0.016 A 
HETATM   21  C   UNL     1      42.545 -11.906  -1.183  1.00  0.00    -0.019 A 
HETATM   22  C   UNL     1      43.331 -10.620  -1.129  1.00  0.00     0.052 C 
HETATM   23  C   UNL     1      42.121 -12.431  -2.420  1.00  0.00     0.041 A 
HETATM   24 CL   UNL     1      42.429 -11.609  -3.912  1.00  0.00    -0.084 Cl
HETATM   25  C   UNL     1      41.424 -13.639  -2.489  1.00  0.00     0.024 A 
HETATM   26  C   UNL     1      41.127 -14.340  -1.326  1.00  0.00     0.003 A 
HETATM   27  C   UNL     1      41.517 -13.825  -0.091  1.00  0.00     0.024 A 
ENDBRANCH  18  20
ENDBRANCH  17  18
ENDBRANCH   1  17
TORSDOF 5
ENDMDL
MODEL 3
REMARK VINA RESULT:      -8.3      1.606      2.311
REMARK  5 active torsions:
REMARK  status: ('A' for Active; 'I' for Inactive)
REMARK    1  A    between atoms: C_8  and  N_9 
REMARK    2  A    between atoms: N_9  and  C_10 
REMARK    3  A    between atoms: C_10  and  C_11 
REMARK       I    between atoms: C_11  and  N_12 
REMARK    4  A    between atoms: N_12  and  N_13 
REMARK    5  A    between atoms: C_14  and  C_15 
ROOT
HETATM    1  C   UNL     1      45.006 -12.668   8.474  1.00  0.00     0.250 C 
HETATM    2  N   UNL     1      44.073 -13.418   7.758  1.00  0.00    -0.246 N 
HETATM    3  O   UNL     1      46.205 -12.928   8.561  1.00  0.00    -0.270 OA
HETATM    4  H   UNL     1      43.188 -12.984   7.515  1.00  0.00     0.192 HD
ENDROOT
BRANCH   2   5
HETATM    5  N   UNL     1      44.365 -14.498   6.958  1.00  0.00    -0.184 NA
HETATM    6  C   UNL     1      43.855 -15.651   7.258  1.00  0.00     0.152 C 
BRANCH   6   7
HETATM    7  C   UNL     1      44.189 -16.807   6.448  1.00  0.00     0.011 A 
HETATM    8  C   UNL     1      43.578 -17.200   5.212  1.00  0.00     0.004 A 
HETATM    9  C   UNL     1      44.214 -18.367   4.785  1.00  0.00     0.043 A 
HETATM   10  C   UNL     1      42.540 -16.673   4.415  1.00  0.00     0.014 A 
HETATM   11  C   UNL     1      43.867 -19.031   3.601  1.00  0.00     0.030 A 
HETATM   12  N   UNL     1      45.171 -18.675   5.724  1.00  0.00    -0.364 N 
HETATM   13  C   UNL     1      42.836 -18.486   2.830  1.00  0.00     0.002 A 
HETATM   14  C   UNL     1      42.181 -17.325   3.229  1.00  0.00     0.001 A 
HETATM   15  H   UNL     1      45.783 -19.476   5.676  1.00  0.00     0.165 HD
HETATM   16  C   UNL     1      45.166 -17.745   6.727  1.00  0.00     0.102 A 
ENDBRANCH   6   7
ENDBRANCH   2   5
BRANCH   1  17
HETATM   17  C   UNL     1      44.382 -11.442   9.161  1.00  0.00     0.197 C 
BRANCH  17  18
HETATM   18  N   UNL     1      43.060 -11.778   9.722  1.00  0.00    -0.284 NA
HETATM   19  H   UNL     1      42.970 -12.781   9.873  1.00  0.00     0.128 HD
BRANCH  18  20
HETATM   20  C   UNL     1      42.754 -11.048  10.889  1.00  0.00     0.016 A 
HETATM   21  C   UNL     1      41.435 -10.636  11.181  1.00  0.00    -0.019 A 
HETATM   22  C   UNL     1      40.275 -11.076  10.323  1.00  0.00     0.052 C 
HETATM   23  C   UNL     1      41.219  -9.808  12.300  1.00  0.00     0.041 A 
HETATM   24 CL   UNL     1      39.643  -9.218  12.706  1.00  0.00    -0.084 Cl
HETATM   25  C   UNL     1      42.278  -9.421  13.125  1.00  0.00     0.024 A 
HETATM   26  C   UNL     1      43.571  -9.844  12.843  1.00  0.00     0.003 A 
HETATM   27  C   UNL     1      43.808 -10.645  11.727  1.00  0.00     0.024 A 
ENDBRANCH  18  20
ENDBRANCH  17  18
ENDBRANCH   1  17
TORSDOF 5
ENDMDL
MODEL 4
REMARK VINA RESULT:      -8.2      6.861      9.189
REMARK  5 active torsions:
REMARK  status: ('A' for Active; 'I' for Inactive)
REMARK    1  A    between atoms: C_8  and  N_9 
REMARK    2  A    between atoms: N_9  and  C_10 
REMARK    3  A    between atoms: C_10  and  C_11 
REMARK       I    between atoms: C_11  and  N_12 
REMARK    4  A    between atoms: N_12  and  N_13 
REMARK    5  A    between atoms: C_14  and  C_15 
ROOT
HETATM    1  C   UNL     1      42.275 -14.259   1.558  1.00  0.00     0.250 C 
HETATM    2  N   UNL     1      41.938 -15.612   1.609  1.00  0.00    -0.246 N 
HETATM    3  O   UNL     1      42.943 -13.664   2.402  1.00  0.00    -0.270 OA
HETATM    4  H   UNL     1      41.634 -16.067   0.753  1.00  0.00     0.192 HD
ENDROOT
BRANCH   2   5
HETATM    5  N   UNL     1      42.385 -16.508   2.550  1.00  0.00    -0.184 NA
HETATM    6  C   UNL     1      43.393 -17.269   2.256  1.00  0.00     0.152 C 
BRANCH   6   7
HETATM    7  C   UNL     1      43.847 -18.249   3.224  1.00  0.00     0.011 A 
HETATM    8  C   UNL     1      44.019 -19.656   3.011  1.00  0.00     0.004 A 
HETATM    9  C   UNL     1      44.473 -20.207   4.211  1.00  0.00     0.043 A 
HETATM   10  C   UNL     1      43.829 -20.517   1.908  1.00  0.00     0.014 A 
HETATM   11  C   UNL     1      44.750 -21.572   4.362  1.00  0.00     0.030 A 
HETATM   12  N   UNL     1      44.570 -19.179   5.119  1.00  0.00    -0.364 N 
HETATM   13  C   UNL     1      44.554 -22.401   3.254  1.00  0.00     0.002 A 
HETATM   14  C   UNL     1      44.101 -21.883   2.044  1.00  0.00     0.001 A 
HETATM   15  H   UNL     1      44.870 -19.288   6.077  1.00  0.00     0.165 HD
HETATM   16  C   UNL     1      44.197 -17.998   4.537  1.00  0.00     0.102 A 
ENDBRANCH   6   7
ENDBRANCH   2   5
BRANCH   1  17
HETATM   17  C   UNL     1      41.723 -13.556   0.307  1.00  0.00     0.197 C 
BRANCH  17  18
HETATM   18  N   UNL     1      40.302 -13.896   0.103  1.00  0.00    -0.284 NA
HETATM   19  H   UNL     1      39.698 -13.119   0.365  1.00  0.00     0.128 HD
BRANCH  18  20
HETATM   20  C   UNL     1      40.026 -14.351  -1.203  1.00  0.00     0.016 A 
HETATM   21  C   UNL     1      38.833 -13.998  -1.873  1.00  0.00    -0.019 A 
HETATM   22  C   UNL     1      37.865 -13.012  -1.270  1.00  0.00     0.052 C 
HETATM   23  C   UNL     1      38.566 -14.584  -3.126  1.00  0.00     0.041 A 
HETATM   24 CL   UNL     1      37.108 -14.246  -3.997  1.00  0.00    -0.084 Cl
HETATM   25  C   UNL     1      39.469 -15.472  -3.715  1.00  0.00     0.024 A 
HETATM   26  C   UNL     1      40.650 -15.801  -3.059  1.00  0.00     0.003 A 
HETATM   27  C   UNL     1      40.920 -15.250  -1.807  1.00  0.00     0.024 A 
ENDBRANCH  18  20
ENDBRANCH  17  18
ENDBRANCH   1  17
TORSDOF 5
ENDMDL
MODEL 5
REMARK VINA RESULT:      -8.1      5.368      7.225
REMARK  5 active torsions:
REMARK  status: ('A' for Active; 'I' for Inactive)
REMARK    1  A    between atoms: C_8  and  N_9 
REMARK    2  A    between atoms: N_9  and  C_10 
REMARK    3  A    between atoms: C_10  and  C_11 
REMARK       I    between atoms: C_11  and  N_12 
REMARK    4  A    between atoms: N_12  and  N_13 
REMARK    5  A    between atoms: C_14  and  C_15 
ROOT
HETATM    1  C   UNL     1      43.131 -13.743   3.929  1.00  0.00     0.250 C 
HETATM    2  N   UNL     1      42.545 -14.836   4.569  1.00  0.00    -0.246 N 
HETATM    3  O   UNL     1      44.321 -13.653   3.632  1.00  0.00    -0.270 OA
HETATM    4  H   UNL     1      41.535 -14.940   4.520  1.00  0.00     0.192 HD
ENDROOT
BRANCH   2   5
HETATM    5  N   UNL     1      43.180 -16.018   4.868  1.00  0.00    -0.184 NA
HETATM    6  C   UNL     1      43.185 -16.964   3.982  1.00  0.00     0.152 C 
BRANCH   6   7
HETATM    7  C   UNL     1      43.815 -18.231   4.302  1.00  0.00     0.011 A 
HETATM    8  C   UNL     1      43.851 -19.407   3.484  1.00  0.00     0.004 A 
HETATM    9  C   UNL     1      44.562 -20.383   4.186  1.00  0.00     0.043 A 
HETATM   10  C   UNL     1      43.345 -19.736   2.208  1.00  0.00     0.014 A 
HETATM   11  C   UNL     1      44.794 -21.667   3.677  1.00  0.00     0.030 A 
HETATM   12  N   UNL     1      44.938 -19.825   5.386  1.00  0.00    -0.364 N 
HETATM   13  C   UNL     1      44.282 -21.965   2.411  1.00  0.00     0.002 A 
HETATM   14  C   UNL     1      43.568 -21.016   1.685  1.00  0.00     0.001 A 
HETATM   15  H   UNL     1      45.463 -20.307   6.102  1.00  0.00     0.165 HD
HETATM   16  C   UNL     1      44.496 -18.533   5.467  1.00  0.00     0.102 A 
ENDBRANCH   6   7
ENDBRANCH   2   5
BRANCH   1  17
HETATM   17  C   UNL     1      42.122 -12.627   3.614  1.00  0.00     0.197 C 
BRANCH  17  18
HETATM   18  N   UNL     1      40.978 -13.161   2.850  1.00  0.00    -0.284 NA
HETATM   19  H   UNL     1      40.124 -12.649   3.063  1.00  0.00     0.128 HD
BRANCH  18  20
HETATM   20  C   UNL     1      41.219 -13.212   1.462  1.00  0.00     0.016 A 
HETATM   21  C   UNL     1      40.959 -14.379   0.707  1.00  0.00    -0.019 A 
HETATM   22  C   UNL     1      40.287 -15.575   1.333  1.00  0.00     0.052 C 
HETATM   23  C   UNL     1      41.335 -14.401  -0.650  1.00  0.00     0.041 A 
HETATM   24 CL   UNL     1      41.097 -15.802  -1.638  1.00  0.00    -0.084 Cl
HETATM   25  C   UNL     1      41.926 -13.288  -1.253  1.00  0.00     0.024 A 
HETATM   26  C   UNL     1      42.163 -12.137  -0.510  1.00  0.00     0.003 A 
HETATM   27  C   UNL     1      41.820 -12.105   0.840  1.00  0.00     0.024 A 
ENDBRANCH  18  20
ENDBRANCH  17  18
ENDBRANCH   1  17
TORSDOF 5
ENDMDL
MODEL 6
REMARK VINA RESULT:      -8.0      7.245      9.772
REMARK  5 active torsions:
REMARK  status: ('A' for Active; 'I' for Inactive)
REMARK    1  A    between atoms: C_8  and  N_9 
REMARK    2  A    between atoms: N_9  and  C_10 
REMARK    3  A    between atoms: C_10  and  C_11 
REMARK       I    between atoms: C_11  and  N_12 
REMARK    4  A    between atoms: N_12  and  N_13 
REMARK    5  A    between atoms: C_14  and  C_15 
ROOT
HETATM    1  C   UNL     1      41.364 -15.553   0.412  1.00  0.00     0.250 C 
HETATM    2  N   UNL     1      42.395 -16.493   0.429  1.00  0.00    -0.246 N 
HETATM    3  O   UNL     1      40.465 -15.475   1.248  1.00  0.00    -0.270 OA
HETATM    4  H   UNL     1      43.225 -16.309  -0.126  1.00  0.00     0.192 HD
ENDROOT
BRANCH   2   5
HETATM    5  N   UNL     1      42.625 -17.405   1.433  1.00  0.00    -0.184 NA
HETATM    6  C   UNL     1      43.761 -17.369   2.056  1.00  0.00     0.152 C 
BRANCH   6   7
HETATM    7  C   UNL     1      44.033 -18.353   3.088  1.00  0.00     0.011 A 
HETATM    8  C   UNL     1      44.189 -19.766   2.912  1.00  0.00     0.004 A 
HETATM    9  C   UNL     1      44.440 -20.318   4.170  1.00  0.00     0.043 A 
HETATM   10  C   UNL     1      44.138 -20.633   1.799  1.00  0.00     0.014 A 
HETATM   11  C   UNL     1      44.646 -21.689   4.370  1.00  0.00     0.030 A 
HETATM   12  N   UNL     1      44.434 -19.283   5.075  1.00  0.00    -0.364 N 
HETATM   13  C   UNL     1      44.592 -22.524   3.250  1.00  0.00     0.002 A 
HETATM   14  C   UNL     1      44.342 -22.006   1.982  1.00  0.00     0.001 A 
HETATM   15  H   UNL     1      44.583 -19.390   6.068  1.00  0.00     0.165 HD
HETATM   16  C   UNL     1      44.191 -18.098   4.437  1.00  0.00     0.102 A 
ENDBRANCH   6   7
ENDBRANCH   2   5
BRANCH   1  17
HETATM   17  C   UNL     1      41.458 -14.589  -0.781  1.00  0.00     0.197 C 
BRANCH  17  18
HETATM   18  N   UNL     1      40.711 -15.118  -1.938  1.00  0.00    -0.284 NA
HETATM   19  H   UNL     1      40.515 -16.111  -1.824  1.00  0.00     0.128 HD
BRANCH  18  20
HETATM   20  C   UNL     1      39.539 -14.386  -2.219  1.00  0.00     0.016 A 
HETATM   21  C   UNL     1      38.647 -14.780  -3.241  1.00  0.00    -0.019 A 
HETATM   22  C   UNL     1      38.842 -16.075  -3.987  1.00  0.00     0.052 C 
HETATM   23  C   UNL     1      37.560 -13.938  -3.548  1.00  0.00     0.041 A 
HETATM   24 CL   UNL     1      36.443 -14.317  -4.815  1.00  0.00    -0.084 Cl
HETATM   25  C   UNL     1      37.344 -12.752  -2.842  1.00  0.00     0.024 A 
HETATM   26  C   UNL     1      38.216 -12.379  -1.825  1.00  0.00     0.003 A 
HETATM   27  C   UNL     1      39.310 -13.187  -1.523  1.00  0.00     0.024 A 
ENDBRANCH  18  20
ENDBRANCH  17  18
ENDBRANCH   1  17
TORSDOF 5
ENDMDL
MODEL 7
REMARK VINA RESULT:      -8.0      7.056      8.660
REMARK  5 active torsions:
REMARK  status: ('A' for Active; 'I' for Inactive)
REMARK    1  A    between atoms: C_8  and  N_9 
REMARK    2  A    between atoms: N_9  and  C_10 
REMARK    3  A    between atoms: C_10  and  C_11 
REMARK       I    between atoms: C_11  and  N_12 
REMARK    4  A    between atoms: N_12  and  N_13 
REMARK    5  A    between atoms: C_14  and  C_15 
ROOT
HETATM    1  C   UNL     1      40.689 -15.538   1.426  1.00  0.00     0.250 C 
HETATM    2  N   UNL     1      41.995 -15.968   1.661  1.00  0.00    -0.246 N 
HETATM    3  O   UNL     1      39.679 -16.051   1.904  1.00  0.00    -0.270 OA
HETATM    4  H   UNL     1      42.758 -15.329   1.458  1.00  0.00     0.192 HD
ENDROOT
BRANCH   2   5
HETATM    5  N   UNL     1      42.360 -16.959   2.542  1.00  0.00    -0.184 NA
HETATM    6  C   UNL     1      43.616 -17.261   2.653  1.00  0.00     0.152 C 
BRANCH   6   7
HETATM    7  C   UNL     1      44.010 -18.334   3.546  1.00  0.00     0.011 A 
HETATM    8  C   UNL     1      44.138 -19.724   3.220  1.00  0.00     0.004 A 
HETATM    9  C   UNL     1      44.541 -20.389   4.381  1.00  0.00     0.043 A 
HETATM   10  C   UNL     1      43.949 -20.483   2.046  1.00  0.00     0.014 A 
HETATM   11  C   UNL     1      44.765 -21.771   4.425  1.00  0.00     0.030 A 
HETATM   12  N   UNL     1      44.649 -19.443   5.374  1.00  0.00    -0.364 N 
HETATM   13  C   UNL     1      44.571 -22.497   3.246  1.00  0.00     0.002 A 
HETATM   14  C   UNL     1      44.169 -21.865   2.073  1.00  0.00     0.001 A 
HETATM   15  H   UNL     1      44.919 -19.642   6.326  1.00  0.00     0.165 HD
HETATM   16  C   UNL     1      44.333 -18.205   4.884  1.00  0.00     0.102 A 
ENDBRANCH   6   7
ENDBRANCH   2   5
BRANCH   1  17
HETATM   17  C   UNL     1      40.624 -14.321   0.489  1.00  0.00     0.197 C 
BRANCH  17  18
HETATM   18  N   UNL     1      41.714 -14.371  -0.505  1.00  0.00    -0.284 NA
HETATM   19  H   UNL     1      41.528 -15.074  -1.217  1.00  0.00     0.128 HD
BRANCH  18  20
HETATM   20  C   UNL     1      41.995 -13.113  -1.078  1.00  0.00     0.016 A 
HETATM   21  C   UNL     1      41.985 -12.918  -2.477  1.00  0.00    -0.019 A 
HETATM   22  C   UNL     1      41.542 -14.015  -3.412  1.00  0.00     0.052 C 
HETATM   23  C   UNL     1      42.392 -11.669  -2.986  1.00  0.00     0.041 A 
HETATM   24 CL   UNL     1      42.455 -11.356  -4.688  1.00  0.00    -0.084 Cl
HETATM   25  C   UNL     1      42.771 -10.631  -2.132  1.00  0.00     0.024 A 
HETATM   26  C   UNL     1      42.762 -10.823  -0.755  1.00  0.00     0.003 A 
HETATM   27  C   UNL     1      42.385 -12.060  -0.234  1.00  0.00     0.024 A 
ENDBRANCH  18  20
ENDBRANCH  17  18
ENDBRANCH   1  17
TORSDOF 5
ENDMDL
MODEL 8
REMARK VINA RESULT:      -8.0      6.677      8.855
REMARK  5 active torsions:
REMARK  status: ('A' for Active; 'I' for Inactive)
REMARK    1  A    between atoms: C_8  and  N_9 
REMARK    2  A    between atoms: N_9  and  C_10 
REMARK    3  A    between atoms: C_10  and  C_11 
REMARK       I    between atoms: C_11  and  N_12 
REMARK    4  A    between atoms: N_12  and  N_13 
REMARK    5  A    between atoms: C_14  and  C_15 
ROOT
HETATM    1  C   UNL     1      39.430 -15.019   2.209  1.00  0.00     0.250 C 
HETATM    2  N   UNL     1      39.690 -16.383   2.070  1.00  0.00    -0.246 N 
HETATM    3  O   UNL     1      39.932 -14.287   3.060  1.00  0.00    -0.270 OA
HETATM    4  H   UNL     1      39.455 -16.832   1.189  1.00  0.00     0.192 HD
ENDROOT
BRANCH   2   5
HETATM    5  N   UNL     1      40.623 -17.093   2.789  1.00  0.00    -0.184 NA
HETATM    6  C   UNL     1      41.864 -17.042   2.419  1.00  0.00     0.152 C 
BRANCH   6   7
HETATM    7  C   UNL     1      42.851 -17.821   3.143  1.00  0.00     0.011 A 
HETATM    8  C   UNL     1      43.303 -19.145   2.831  1.00  0.00     0.004 A 
HETATM    9  C   UNL     1      44.255 -19.498   3.790  1.00  0.00     0.043 A 
HETATM   10  C   UNL     1      42.992 -20.080   1.821  1.00  0.00     0.014 A 
HETATM   11  C   UNL     1      44.911 -20.735   3.789  1.00  0.00     0.030 A 
HETATM   12  N   UNL     1      44.374 -18.434   4.654  1.00  0.00    -0.364 N 
HETATM   13  C   UNL     1      44.584 -21.642   2.776  1.00  0.00     0.002 A 
HETATM   14  C   UNL     1      43.639 -21.322   1.806  1.00  0.00     0.001 A 
HETATM   15  H   UNL     1      44.991 -18.412   5.453  1.00  0.00     0.165 HD
HETATM   16  C   UNL     1      43.536 -17.421   4.275  1.00  0.00     0.102 A 
ENDBRANCH   6   7
ENDBRANCH   2   5
BRANCH   1  17
HETATM   17  C   UNL     1      38.429 -14.496   1.166  1.00  0.00     0.197 C 
BRANCH  17  18
HETATM   18  N   UNL     1      38.931 -13.257   0.540  1.00  0.00    -0.284 NA
HETATM   19  H   UNL     1      39.567 -12.764   1.164  1.00  0.00     0.128 HD
BRANCH  18  20
HETATM   20  C   UNL     1      39.510 -13.475  -0.727  1.00  0.00     0.016 A 
HETATM   21  C   UNL     1      40.874 -13.198  -0.975  1.00  0.00    -0.019 A 
HETATM   22  C   UNL     1      41.799 -12.784   0.142  1.00  0.00     0.052 C 
HETATM   23  C   UNL     1      41.358 -13.324  -2.292  1.00  0.00     0.041 A 
HETATM   24 CL   UNL     1      43.002 -12.962  -2.696  1.00  0.00    -0.084 Cl
HETATM   25  C   UNL     1      40.523 -13.742  -3.330  1.00  0.00     0.024 A 
HETATM   26  C   UNL     1      39.187 -14.030  -3.077  1.00  0.00     0.003 A 
HETATM   27  C   UNL     1      38.683 -13.888  -1.785  1.00  0.00     0.024 A 
ENDBRANCH  18  20
ENDBRANCH  17  18
ENDBRANCH   1  17
TORSDOF 5
ENDMDL
MODEL 9
REMARK VINA RESULT:      -8.0      6.580      9.446
REMARK  5 active torsions:
REMARK  status: ('A' for Active; 'I' for Inactive)
REMARK    1  A    between atoms: C_8  and  N_9 
REMARK    2  A    between atoms: N_9  and  C_10 
REMARK    3  A    between atoms: C_10  and  C_11 
REMARK       I    between atoms: C_11  and  N_12 
REMARK    4  A    between atoms: N_12  and  N_13 
REMARK    5  A    between atoms: C_14  and  C_15 
ROOT
HETATM    1  C   UNL     1      41.834 -16.818   4.556  1.00  0.00     0.250 C 
HETATM    2  N   UNL     1      41.346 -17.200   3.306  1.00  0.00    -0.246 N 
HETATM    3  O   UNL     1      41.737 -15.690   5.037  1.00  0.00    -0.270 OA
HETATM    4  H   UNL     1      41.223 -18.191   3.118  1.00  0.00     0.192 HD
ENDROOT
BRANCH   2   5
HETATM    5  N   UNL     1      40.594 -16.410   2.469  1.00  0.00    -0.184 NA
HETATM    6  C   UNL     1      41.194 -15.755   1.525  1.00  0.00     0.152 C 
BRANCH   6   7
HETATM    7  C   UNL     1      40.418 -14.884   0.663  1.00  0.00     0.011 A 
HETATM    8  C   UNL     1      40.405 -14.878  -0.770  1.00  0.00     0.004 A 
HETATM    9  C   UNL     1      39.517 -13.880  -1.175  1.00  0.00     0.043 A 
HETATM   10  C   UNL     1      41.068 -15.628  -1.765  1.00  0.00     0.014 A 
HETATM   11  C   UNL     1      39.256 -13.597  -2.522  1.00  0.00     0.030 A 
HETATM   12  N   UNL     1      39.013 -13.298  -0.035  1.00  0.00    -0.364 N 
HETATM   13  C   UNL     1      39.925 -14.356  -3.486  1.00  0.00     0.002 A 
HETATM   14  C   UNL     1      40.819 -15.357  -3.115  1.00  0.00     0.001 A 
HETATM   15  H   UNL     1      38.347 -12.539  -0.026  1.00  0.00     0.165 HD
HETATM   16  C   UNL     1      39.546 -13.893   1.075  1.00  0.00     0.102 A 
ENDBRANCH   6   7
ENDBRANCH   2   5
BRANCH   1  17
HETATM   17  C   UNL     1      42.520 -17.972   5.305  1.00  0.00     0.197 C 
BRANCH  17  18
HETATM   18  N   UNL     1      43.908 -18.145   4.834  1.00  0.00    -0.284 NA
HETATM   19  H   UNL     1      44.572 -17.752   5.499  1.00  0.00     0.128 HD
BRANCH  18  20
HETATM   20  C   UNL     1      44.220 -19.483   4.518  1.00  0.00     0.016 A 
HETATM   21  C   UNL     1      44.185 -19.957   3.187  1.00  0.00    -0.019 A 
HETATM   22  C   UNL     1      43.943 -19.018   2.033  1.00  0.00     0.052 C 
HETATM   23  C   UNL     1      44.390 -21.332   2.956  1.00  0.00     0.041 A 
HETATM   24 CL   UNL     1      44.320 -22.008   1.365  1.00  0.00    -0.084 Cl
HETATM   25  C   UNL     1      44.651 -22.209   4.012  1.00  0.00     0.024 A 
HETATM   26  C   UNL     1      44.701 -21.734   5.317  1.00  0.00     0.003 A 
HETATM   27  C   UNL     1      44.478 -20.381   5.567  1.00  0.00     0.024 A 
ENDBRANCH  18  20
ENDBRANCH  17  18
ENDBRANCH   1  17
TORSDOF 5
ENDMDL
MODEL 10
REMARK VINA RESULT:      -7.9      6.790      9.012
REMARK  5 active torsions:
REMARK  status: ('A' for Active; 'I' for Inactive)
REMARK    1  A    between atoms: C_8  and  N_9 
REMARK    2  A    between atoms: N_9  and  C_10 
REMARK    3  A    between atoms: C_10  and  C_11 
REMARK       I    between atoms: C_11  and  N_12 
REMARK    4  A    between atoms: N_12  and  N_13 
REMARK    5  A    between atoms: C_14  and  C_15 
ROOT
HETATM    1  C   UNL     1      41.081 -15.191  -0.250  1.00  0.00     0.250 C 
HETATM    2  N   UNL     1      41.164 -16.566  -0.028  1.00  0.00    -0.246 N 
HETATM    3  O   UNL     1      41.357 -14.323   0.576  1.00  0.00    -0.270 OA
HETATM    4  H   UNL     1      41.188 -17.185  -0.833  1.00  0.00     0.192 HD
ENDROOT
BRANCH   2   5
HETATM    5  N   UNL     1      41.666 -17.160   1.106  1.00  0.00    -0.184 NA
HETATM    6  C   UNL     1      42.933 -17.427   1.159  1.00  0.00     0.152 C 
BRANCH   6   7
HETATM    7  C   UNL     1      43.468 -18.093   2.332  1.00  0.00     0.011 A 
HETATM    8  C   UNL     1      43.767 -19.488   2.471  1.00  0.00     0.004 A 
HETATM    9  C   UNL     1      44.261 -19.682   3.763  1.00  0.00     0.043 A 
HETATM   10  C   UNL     1      43.663 -20.607   1.618  1.00  0.00     0.014 A 
HETATM   11  C   UNL     1      44.659 -20.937   4.242  1.00  0.00     0.030 A 
HETATM   12  N   UNL     1      44.259 -18.457   4.387  1.00  0.00    -0.364 N 
HETATM   13  C   UNL     1      44.546 -22.028   3.376  1.00  0.00     0.002 A 
HETATM   14  C   UNL     1      44.056 -21.868   2.083  1.00  0.00     0.001 A 
HETATM   15  H   UNL     1      44.561 -18.298   5.337  1.00  0.00     0.165 HD
HETATM   16  C   UNL     1      43.785 -17.494   3.538  1.00  0.00     0.102 A 
ENDBRANCH   6   7
ENDBRANCH   2   5
BRANCH   1  17
HETATM   17  C   UNL     1      40.601 -14.846  -1.670  1.00  0.00     0.197 C 
BRANCH  17  18
HETATM   18  N   UNL     1      39.128 -14.846  -1.736  1.00  0.00    -0.284 NA
HETATM   19  H   UNL     1      38.730 -15.480  -1.045  1.00  0.00     0.128 HD
BRANCH  18  20
HETATM   20  C   UNL     1      38.572 -13.554  -1.634  1.00  0.00     0.016 A 
HETATM   21  C   UNL     1      37.769 -13.178  -0.533  1.00  0.00    -0.019 A 
HETATM   22  C   UNL     1      37.584 -14.100   0.645  1.00  0.00     0.052 C 
HETATM   23  C   UNL     1      37.148 -11.914  -0.553  1.00  0.00     0.041 A 
HETATM   24 CL   UNL     1      36.112 -11.388   0.730  1.00  0.00    -0.084 Cl
HETATM   25  C   UNL     1      37.338 -11.034  -1.621  1.00  0.00     0.024 A 
HETATM   26  C   UNL     1      38.143 -11.402  -2.693  1.00  0.00     0.003 A 
HETATM   27  C   UNL     1      38.747 -12.658  -2.702  1.00  0.00     0.024 A 
ENDBRANCH  18  20
ENDBRANCH  17  18
ENDBRANCH   1  17
TORSDOF 5
ENDMDL
