MODEL 1
REMARK VINA RESULT:      -8.9      0.000      0.000
REMARK  3 active torsions:
REMARK  status: ('A' for Active; 'I' for Inactive)
REMARK    1  A    between atoms: N_5  and  C_6 
REMARK    2  A    between atoms: C_7  and  C_8 
REMARK       I    between atoms: C_8  and  N_9 
REMARK    3  A    between atoms: N_9  and  N_10 
ROOT
HETATM    1  C   UNL     1      43.323 -13.322   4.223  1.00  0.00     0.056 C 
HETATM    2  C   UNL     1      42.495 -14.541   3.859  1.00  0.00     0.158 C 
HETATM    3  C   UNL     1      43.354 -15.736   3.434  1.00  0.00     0.267 C 
HETATM    4  O   UNL     1      44.176 -15.708   2.523  1.00  0.00    -0.269 OA
HETATM    5  N   UNL     1      42.914 -16.843   4.132  1.00  0.00    -0.230 N 
HETATM    6  C   UNL     1      41.849 -16.503   4.933  1.00  0.00     0.333 C 
HETATM    7  O   UNL     1      41.088 -17.274   5.500  1.00  0.00    -0.246 OA
HETATM    8  N   UNL     1      41.757 -15.109   4.982  1.00  0.00    -0.309 N 
HETATM    9  C   UNL     1      40.517 -14.459   5.421  1.00  0.00     0.134 C 
HETATM   10  C   UNL     1      39.451 -14.435   4.304  1.00  0.00     0.061 C 
HETATM   11  C   UNL     1      40.093 -14.225   2.966  1.00  0.00    -0.018 A 
HETATM   12  C   UNL     1      41.466 -14.270   2.790  1.00  0.00     0.055 A 
HETATM   13  N   UNL     1      41.729 -14.139   1.451  1.00  0.00    -0.356 N 
HETATM   14  H   UNL     1      42.646 -14.185   1.023  1.00  0.00     0.166 HD
HETATM   15  C   UNL     1      40.542 -14.070   0.751  1.00  0.00     0.043 A 
HETATM   16  C   UNL     1      39.500 -14.096   1.682  1.00  0.00    -0.001 A 
HETATM   17  C   UNL     1      40.316 -14.011  -0.628  1.00  0.00     0.030 A 
HETATM   18  C   UNL     1      38.989 -13.977  -1.068  1.00  0.00     0.002 A 
HETATM   19  C   UNL     1      37.931 -13.992  -0.163  1.00  0.00     0.001 A 
HETATM   20  C   UNL     1      38.173 -14.052   1.215  1.00  0.00     0.014 A 
ENDROOT
BRANCH   5  21
HETATM   21  C   UNL     1      43.134 -18.137   3.616  1.00  0.00     0.063 A 
HETATM   22  C   UNL     1      43.948 -19.063   4.286  1.00  0.00     0.060 A 
HETATM   23  C   UNL     1      44.326 -20.253   3.648  1.00  0.00     0.019 A 
HETATM   24  C   UNL     1      43.870 -20.534   2.361  1.00  0.00     0.001 A 
HETATM   25  C   UNL     1      43.024 -19.637   1.710  1.00  0.00     0.002 A 
HETATM   26  C   UNL     1      42.655 -18.442   2.333  1.00  0.00     0.031 A 
BRANCH  22  27
HETATM   27  C   UNL     1      44.380 -18.880   5.693  1.00  0.00     0.268 C 
HETATM   28  N   UNL     1      43.463 -19.288   6.658  1.00  0.00    -0.290 N 
HETATM   29  H   UNL     1      42.595 -19.756   6.396  1.00  0.00     0.183 HD
HETATM   30  O   UNL     1      45.503 -18.466   5.962  1.00  0.00    -0.266 OA
BRANCH  28  31
HETATM   31  N   UNL     1      43.820 -19.233   8.020  1.00  0.00    -0.247 NA
HETATM   32  H   UNL     1      42.951 -19.355   8.557  1.00  0.00     0.143 HD
HETATM   33  H   UNL     1      44.081 -18.263   8.228  1.00  0.00     0.143 HD
ENDBRANCH  28  31
ENDBRANCH  22  27
ENDBRANCH   5  21
TORSDOF 3
ENDMDL
MODEL 2
REMARK VINA RESULT:      -8.7      2.297      3.503
REMARK  3 active torsions:
REMARK  status: ('A' for Active; 'I' for Inactive)
REMARK    1  A    between atoms: N_5  and  C_6 
REMARK    2  A    between atoms: C_7  and  C_8 
REMARK       I    between atoms: C_8  and  N_9 
REMARK    3  A    between atoms: N_9  and  N_10 
ROOT
HETATM    1  C   UNL     1      40.908 -11.527   3.043  1.00  0.00     0.056 C 
HETATM    2  C   UNL     1      40.895 -12.762   2.160  1.00  0.00     0.158 C 
HETATM    3  C   UNL     1      41.974 -13.779   2.546  1.00  0.00     0.267 C 
HETATM    4  O   UNL     1      43.173 -13.525   2.607  1.00  0.00    -0.269 OA
HETATM    5  N   UNL     1      41.374 -15.019   2.635  1.00  0.00    -0.230 N 
HETATM    6  C   UNL     1      40.039 -14.921   2.319  1.00  0.00     0.333 C 
HETATM    7  O   UNL     1      39.276 -15.847   2.081  1.00  0.00    -0.246 OA
HETATM    8  N   UNL     1      39.686 -13.568   2.293  1.00  0.00    -0.309 N 
HETATM    9  C   UNL     1      38.461 -13.131   1.615  1.00  0.00     0.134 C 
HETATM   10  C   UNL     1      38.642 -13.058   0.083  1.00  0.00     0.061 C 
HETATM   11  C   UNL     1      40.020 -12.581  -0.263  1.00  0.00    -0.018 A 
HETATM   12  C   UNL     1      41.017 -12.449   0.689  1.00  0.00     0.055 A 
HETATM   13  N   UNL     1      42.175 -12.092   0.048  1.00  0.00    -0.356 N 
HETATM   14  H   UNL     1      43.080 -11.973   0.488  1.00  0.00     0.166 HD
HETATM   15  C   UNL     1      41.956 -12.049  -1.313  1.00  0.00     0.043 A 
HETATM   16  C   UNL     1      40.604 -12.328  -1.532  1.00  0.00    -0.001 A 
HETATM   17  C   UNL     1      42.853 -11.811  -2.359  1.00  0.00     0.030 A 
HETATM   18  C   UNL     1      42.355 -11.857  -3.665  1.00  0.00     0.002 A 
HETATM   19  C   UNL     1      41.011 -12.123  -3.913  1.00  0.00     0.001 A 
HETATM   20  C   UNL     1      40.125 -12.361  -2.856  1.00  0.00     0.014 A 
ENDROOT
BRANCH   5  21
HETATM   21  C   UNL     1      42.142 -16.190   2.468  1.00  0.00     0.063 A 
HETATM   22  C   UNL     1      42.597 -16.930   3.569  1.00  0.00     0.060 A 
HETATM   23  C   UNL     1      43.536 -17.955   3.383  1.00  0.00     0.019 A 
HETATM   24  C   UNL     1      43.996 -18.262   2.103  1.00  0.00     0.001 A 
HETATM   25  C   UNL     1      43.511 -17.559   1.001  1.00  0.00     0.002 A 
HETATM   26  C   UNL     1      42.587 -16.526   1.179  1.00  0.00     0.031 A 
BRANCH  22  27
HETATM   27  C   UNL     1      42.071 -16.732   4.941  1.00  0.00     0.268 C 
HETATM   28  N   UNL     1      40.720 -17.019   5.111  1.00  0.00    -0.290 N 
HETATM   29  H   UNL     1      40.166 -17.418   4.353  1.00  0.00     0.183 HD
HETATM   30  O   UNL     1      42.813 -16.408   5.864  1.00  0.00    -0.266 OA
BRANCH  28  31
HETATM   31  N   UNL     1      40.152 -16.943   6.398  1.00  0.00    -0.247 NA
HETATM   32  H   UNL     1      39.264 -17.461   6.360  1.00  0.00     0.143 HD
HETATM   33  H   UNL     1      39.843 -15.975   6.539  1.00  0.00     0.143 HD
ENDBRANCH  28  31
ENDBRANCH  22  27
ENDBRANCH   5  21
TORSDOF 3
ENDMDL
MODEL 3
REMARK VINA RESULT:      -8.2      2.186      3.063
REMARK  3 active torsions:
REMARK  status: ('A' for Active; 'I' for Inactive)
REMARK    1  A    between atoms: N_5  and  C_6 
REMARK    2  A    between atoms: C_7  and  C_8 
REMARK       I    between atoms: C_8  and  N_9 
REMARK    3  A    between atoms: N_9  and  N_10 
ROOT
HETATM    1  C   UNL     1      42.171 -11.461   5.498  1.00  0.00     0.056 C 
HETATM    2  C   UNL     1      41.911 -12.864   4.978  1.00  0.00     0.158 C 
HETATM    3  C   UNL     1      43.118 -13.792   5.151  1.00  0.00     0.267 C 
HETATM    4  O   UNL     1      44.238 -13.561   4.704  1.00  0.00    -0.269 OA
HETATM    5  N   UNL     1      42.672 -14.964   5.728  1.00  0.00    -0.230 N 
HETATM    6  C   UNL     1      41.310 -14.908   5.918  1.00  0.00     0.333 C 
HETATM    7  O   UNL     1      40.573 -15.845   6.190  1.00  0.00    -0.246 OA
HETATM    8  N   UNL     1      40.889 -13.588   5.726  1.00  0.00    -0.309 N 
HETATM    9  C   UNL     1      39.475 -13.287   5.473  1.00  0.00     0.134 C 
HETATM   10  C   UNL     1      39.077 -13.571   4.008  1.00  0.00     0.061 C 
HETATM   11  C   UNL     1      40.199 -13.220   3.079  1.00  0.00    -0.018 A 
HETATM   12  C   UNL     1      41.466 -12.898   3.538  1.00  0.00     0.055 A 
HETATM   13  N   UNL     1      42.283 -12.726   2.451  1.00  0.00    -0.356 N 
HETATM   14  H   UNL     1      43.277 -12.531   2.485  1.00  0.00     0.166 HD
HETATM   15  C   UNL     1      41.577 -12.990   1.295  1.00  0.00     0.043 A 
HETATM   16  C   UNL     1      40.260 -13.278   1.661  1.00  0.00    -0.001 A 
HETATM   17  C   UNL     1      42.011 -13.019  -0.034  1.00  0.00     0.030 A 
HETATM   18  C   UNL     1      41.073 -13.349  -1.017  1.00  0.00     0.002 A 
HETATM   19  C   UNL     1      39.751 -13.632  -0.682  1.00  0.00     0.001 A 
HETATM   20  C   UNL     1      39.331 -13.600   0.653  1.00  0.00     0.014 A 
ENDROOT
BRANCH   5  21
HETATM   21  C   UNL     1      43.396 -16.160   5.550  1.00  0.00     0.063 A 
HETATM   22  C   UNL     1      43.099 -17.048   4.505  1.00  0.00     0.060 A 
HETATM   23  C   UNL     1      43.680 -18.323   4.482  1.00  0.00     0.019 A 
HETATM   24  C   UNL     1      44.578 -18.702   5.480  1.00  0.00     0.001 A 
HETATM   25  C   UNL     1      44.911 -17.807   6.495  1.00  0.00     0.002 A 
HETATM   26  C   UNL     1      44.324 -16.539   6.533  1.00  0.00     0.031 A 
BRANCH  22  27
HETATM   27  C   UNL     1      42.240 -16.673   3.355  1.00  0.00     0.268 C 
HETATM   28  N   UNL     1      40.926 -17.125   3.418  1.00  0.00    -0.290 N 
HETATM   29  H   UNL     1      40.572 -17.606   4.245  1.00  0.00     0.183 HD
HETATM   30  O   UNL     1      42.663 -15.950   2.458  1.00  0.00    -0.266 OA
BRANCH  28  31
HETATM   31  N   UNL     1      40.014 -16.745   2.413  1.00  0.00    -0.247 NA
HETATM   32  H   UNL     1      39.123 -16.542   2.885  1.00  0.00     0.143 HD
HETATM   33  H   UNL     1      39.795 -17.585   1.866  1.00  0.00     0.143 HD
ENDBRANCH  28  31
ENDBRANCH  22  27
ENDBRANCH   5  21
TORSDOF 3
ENDMDL
MODEL 4
REMARK VINA RESULT:      -8.1      2.247      4.388
REMARK  3 active torsions:
REMARK  status: ('A' for Active; 'I' for Inactive)
REMARK    1  A    between atoms: N_5  and  C_6 
REMARK    2  A    between atoms: C_7  and  C_8 
REMARK       I    between atoms: C_8  and  N_9 
REMARK    3  A    between atoms: N_9  and  N_10 
ROOT
HETATM    1  C   UNL     1      39.482 -16.257   2.096  1.00  0.00     0.056 C 
HETATM    2  C   UNL     1      40.700 -15.772   2.861  1.00  0.00     0.158 C 
HETATM    3  C   UNL     1      41.304 -16.853   3.763  1.00  0.00     0.267 C 
HETATM    4  O   UNL     1      40.681 -17.454   4.635  1.00  0.00    -0.269 OA
HETATM    5  N   UNL     1      42.663 -16.890   3.529  1.00  0.00    -0.230 N 
HETATM    6  C   UNL     1      43.008 -15.933   2.603  1.00  0.00     0.333 C 
HETATM    7  O   UNL     1      44.139 -15.546   2.341  1.00  0.00    -0.246 OA
HETATM    8  N   UNL     1      41.839 -15.447   2.010  1.00  0.00    -0.309 N 
HETATM    9  C   UNL     1      41.847 -14.170   1.287  1.00  0.00     0.134 C 
HETATM   10  C   UNL     1      41.797 -12.962   2.248  1.00  0.00     0.061 C 
HETATM   11  C   UNL     1      40.927 -13.264   3.430  1.00  0.00    -0.018 A 
HETATM   12  C   UNL     1      40.439 -14.534   3.684  1.00  0.00     0.055 A 
HETATM   13  N   UNL     1      39.767 -14.503   4.878  1.00  0.00    -0.356 N 
HETATM   14  H   UNL     1      39.346 -15.301   5.338  1.00  0.00     0.166 HD
HETATM   15  C   UNL     1      39.864 -13.243   5.431  1.00  0.00     0.043 A 
HETATM   16  C   UNL     1      40.567 -12.439   4.529  1.00  0.00    -0.001 A 
HETATM   17  C   UNL     1      39.408 -12.767   6.664  1.00  0.00     0.030 A 
HETATM   18  C   UNL     1      39.674 -11.432   6.984  1.00  0.00     0.002 A 
HETATM   19  C   UNL     1      40.364 -10.605   6.100  1.00  0.00     0.001 A 
HETATM   20  C   UNL     1      40.816 -11.096   4.870  1.00  0.00     0.014 A 
ENDROOT
BRANCH   5  21
HETATM   21  C   UNL     1      43.538 -17.384   4.519  1.00  0.00     0.063 A 
HETATM   22  C   UNL     1      44.001 -18.708   4.491  1.00  0.00     0.060 A 
HETATM   23  C   UNL     1      44.685 -19.233   5.597  1.00  0.00     0.019 A 
HETATM   24  C   UNL     1      44.935 -18.434   6.712  1.00  0.00     0.001 A 
HETATM   25  C   UNL     1      44.516 -17.104   6.724  1.00  0.00     0.002 A 
HETATM   26  C   UNL     1      43.821 -16.577   5.633  1.00  0.00     0.031 A 
BRANCH  22  27
HETATM   27  C   UNL     1      43.867 -19.580   3.299  1.00  0.00     0.268 C 
HETATM   28  N   UNL     1      44.771 -20.636   3.226  1.00  0.00    -0.290 N 
HETATM   29  H   UNL     1      45.417 -20.832   3.991  1.00  0.00     0.183 HD
HETATM   30  O   UNL     1      42.966 -19.405   2.484  1.00  0.00    -0.266 OA
BRANCH  28  31
HETATM   31  N   UNL     1      44.664 -21.567   2.173  1.00  0.00    -0.247 NA
HETATM   32  H   UNL     1      43.666 -21.802   2.088  1.00  0.00     0.143 HD
HETATM   33  H   UNL     1      45.077 -22.447   2.501  1.00  0.00     0.143 HD
ENDBRANCH  28  31
ENDBRANCH  22  27
ENDBRANCH   5  21
TORSDOF 3
ENDMDL
MODEL 5
REMARK VINA RESULT:      -7.9      2.679      5.225
REMARK  3 active torsions:
REMARK  status: ('A' for Active; 'I' for Inactive)
REMARK    1  A    between atoms: N_5  and  C_6 
REMARK    2  A    between atoms: C_7  and  C_8 
REMARK       I    between atoms: C_8  and  N_9 
REMARK    3  A    between atoms: N_9  and  N_10 
ROOT
HETATM    1  C   UNL     1      39.085 -14.358   2.864  1.00  0.00     0.056 C 
HETATM    2  C   UNL     1      40.311 -14.066   3.710  1.00  0.00     0.158 C 
HETATM    3  C   UNL     1      40.968 -15.336   4.260  1.00  0.00     0.267 C 
HETATM    4  O   UNL     1      40.386 -16.176   4.941  1.00  0.00    -0.269 OA
HETATM    5  N   UNL     1      42.321 -15.261   3.997  1.00  0.00    -0.230 N 
HETATM    6  C   UNL     1      42.615 -14.073   3.369  1.00  0.00     0.333 C 
HETATM    7  O   UNL     1      43.727 -13.592   3.203  1.00  0.00    -0.246 OA
HETATM    8  N   UNL     1      41.417 -13.479   2.960  1.00  0.00    -0.309 N 
HETATM    9  C   UNL     1      41.371 -12.052   2.624  1.00  0.00     0.134 C 
HETATM   10  C   UNL     1      41.318 -11.163   3.885  1.00  0.00     0.061 C 
HETATM   11  C   UNL     1      40.491 -11.811   4.953  1.00  0.00    -0.018 A 
HETATM   12  C   UNL     1      40.043 -13.117   4.851  1.00  0.00     0.055 A 
HETATM   13  N   UNL     1      39.405 -13.443   6.019  1.00  0.00    -0.356 N 
HETATM   14  H   UNL     1      39.018 -14.351   6.247  1.00  0.00     0.166 HD
HETATM   15  C   UNL     1      39.486 -12.385   6.901  1.00  0.00     0.043 A 
HETATM   16  C   UNL     1      40.141 -11.338   6.246  1.00  0.00    -0.001 A 
HETATM   17  C   UNL     1      39.052 -12.287   8.228  1.00  0.00     0.030 A 
HETATM   18  C   UNL     1      39.294 -11.087   8.903  1.00  0.00     0.002 A 
HETATM   19  C   UNL     1      39.936 -10.024   8.272  1.00  0.00     0.001 A 
HETATM   20  C   UNL     1      40.365 -10.136   6.945  1.00  0.00     0.014 A 
ENDROOT
BRANCH   5  21
HETATM   21  C   UNL     1      43.236 -15.983   4.791  1.00  0.00     0.063 A 
HETATM   22  C   UNL     1      43.650 -17.277   4.438  1.00  0.00     0.060 A 
HETATM   23  C   UNL     1      44.380 -18.051   5.350  1.00  0.00     0.019 A 
HETATM   24  C   UNL     1      44.726 -17.528   6.596  1.00  0.00     0.001 A 
HETATM   25  C   UNL     1      44.357 -16.226   6.932  1.00  0.00     0.002 A 
HETATM   26  C   UNL     1      43.615 -15.454   6.035  1.00  0.00     0.031 A 
BRANCH  22  27
HETATM   27  C   UNL     1      43.413 -17.856   3.093  1.00  0.00     0.268 C 
HETATM   28  N   UNL     1      43.978 -17.154   2.033  1.00  0.00    -0.290 N 
HETATM   29  H   UNL     1      44.581 -16.347   2.195  1.00  0.00     0.183 HD
HETATM   30  O   UNL     1      42.820 -18.922   2.958  1.00  0.00    -0.266 OA
BRANCH  28  31
HETATM   31  N   UNL     1      43.878 -17.674   0.727  1.00  0.00    -0.247 NA
HETATM   32  H   UNL     1      43.122 -18.372   0.745  1.00  0.00     0.143 HD
HETATM   33  H   UNL     1      44.712 -18.249   0.562  1.00  0.00     0.143 HD
ENDBRANCH  28  31
ENDBRANCH  22  27
ENDBRANCH   5  21
TORSDOF 3
ENDMDL
MODEL 6
REMARK VINA RESULT:      -7.8      2.974      4.771
REMARK  3 active torsions:
REMARK  status: ('A' for Active; 'I' for Inactive)
REMARK    1  A    between atoms: N_5  and  C_6 
REMARK    2  A    between atoms: C_7  and  C_8 
REMARK       I    between atoms: C_8  and  N_9 
REMARK    3  A    between atoms: N_9  and  N_10 
ROOT
HETATM    1  C   UNL     1      40.359 -11.297   3.735  1.00  0.00     0.056 C 
HETATM    2  C   UNL     1      40.459 -12.421   2.719  1.00  0.00     0.158 C 
HETATM    3  C   UNL     1      41.440 -13.519   3.143  1.00  0.00     0.267 C 
HETATM    4  O   UNL     1      42.620 -13.323   3.419  1.00  0.00    -0.269 OA
HETATM    5  N   UNL     1      40.806 -14.735   2.989  1.00  0.00    -0.230 N 
HETATM    6  C   UNL     1      39.541 -14.547   2.484  1.00  0.00     0.333 C 
HETATM    7  O   UNL     1      38.805 -15.408   2.020  1.00  0.00    -0.246 OA
HETATM    8  N   UNL     1      39.227 -13.187   2.565  1.00  0.00    -0.309 N 
HETATM    9  C   UNL     1      38.135 -12.625   1.763  1.00  0.00     0.134 C 
HETATM   10  C   UNL     1      38.559 -12.384   0.297  1.00  0.00     0.061 C 
HETATM   11  C   UNL     1      39.984 -11.928   0.229  1.00  0.00    -0.018 A 
HETATM   12  C   UNL     1      40.821 -11.947   1.333  1.00  0.00     0.055 A 
HETATM   13  N   UNL     1      42.073 -11.566   0.927  1.00  0.00    -0.356 N 
HETATM   14  H   UNL     1      42.899 -11.535   1.513  1.00  0.00     0.166 HD
HETATM   15  C   UNL     1      42.074 -11.359  -0.437  1.00  0.00     0.043 A 
HETATM   16  C   UNL     1      40.768 -11.555  -0.895  1.00  0.00    -0.001 A 
HETATM   17  C   UNL     1      43.132 -11.039  -1.295  1.00  0.00     0.030 A 
HETATM   18  C   UNL     1      42.846 -10.914  -2.658  1.00  0.00     0.002 A 
HETATM   19  C   UNL     1      41.553 -11.095  -3.142  1.00  0.00     0.001 A 
HETATM   20  C   UNL     1      40.505 -11.416  -2.271  1.00  0.00     0.014 A 
ENDROOT
BRANCH   5  21
HETATM   21  C   UNL     1      41.565 -15.909   2.804  1.00  0.00     0.063 A 
HETATM   22  C   UNL     1      41.869 -16.389   1.521  1.00  0.00     0.060 A 
HETATM   23  C   UNL     1      42.428 -17.665   1.365  1.00  0.00     0.019 A 
HETATM   24  C   UNL     1      42.713 -18.447   2.484  1.00  0.00     0.001 A 
HETATM   25  C   UNL     1      42.455 -17.955   3.762  1.00  0.00     0.002 A 
HETATM   26  C   UNL     1      41.883 -16.691   3.925  1.00  0.00     0.031 A 
BRANCH  22  27
HETATM   27  C   UNL     1      41.694 -15.571   0.296  1.00  0.00     0.268 C 
HETATM   28  N   UNL     1      40.597 -15.901  -0.493  1.00  0.00    -0.290 N 
HETATM   29  H   UNL     1      39.922 -16.604  -0.191  1.00  0.00     0.183 HD
HETATM   30  O   UNL     1      42.438 -14.624   0.056  1.00  0.00    -0.266 OA
BRANCH  28  31
HETATM   31  N   UNL     1      40.302 -15.123  -1.630  1.00  0.00    -0.247 NA
HETATM   32  H   UNL     1      40.924 -14.304  -1.596  1.00  0.00     0.143 HD
HETATM   33  H   UNL     1      39.375 -14.709  -1.485  1.00  0.00     0.143 HD
ENDBRANCH  28  31
ENDBRANCH  22  27
ENDBRANCH   5  21
TORSDOF 3
ENDMDL
MODEL 7
REMARK VINA RESULT:      -7.8      2.595      6.495
REMARK  3 active torsions:
REMARK  status: ('A' for Active; 'I' for Inactive)
REMARK    1  A    between atoms: N_5  and  C_6 
REMARK    2  A    between atoms: C_7  and  C_8 
REMARK       I    between atoms: C_8  and  N_9 
REMARK    3  A    between atoms: N_9  and  N_10 
ROOT
HETATM    1  C   UNL     1      40.454 -16.817   6.662  1.00  0.00     0.056 C 
HETATM    2  C   UNL     1      41.519 -16.302   5.711  1.00  0.00     0.158 C 
HETATM    3  C   UNL     1      40.978 -15.267   4.718  1.00  0.00     0.267 C 
HETATM    4  O   UNL     1      40.035 -15.466   3.957  1.00  0.00    -0.269 OA
HETATM    5  N   UNL     1      41.832 -14.183   4.728  1.00  0.00    -0.230 N 
HETATM    6  C   UNL     1      42.879 -14.415   5.590  1.00  0.00     0.333 C 
HETATM    7  O   UNL     1      43.916 -13.772   5.666  1.00  0.00    -0.246 OA
HETATM    8  N   UNL     1      42.574 -15.537   6.367  1.00  0.00    -0.309 N 
HETATM    9  C   UNL     1      43.633 -16.256   7.084  1.00  0.00     0.134 C 
HETATM   10  C   UNL     1      44.433 -17.188   6.149  1.00  0.00     0.061 C 
HETATM   11  C   UNL     1      43.533 -17.806   5.123  1.00  0.00    -0.018 A 
HETATM   12  C   UNL     1      42.222 -17.395   4.947  1.00  0.00     0.055 A 
HETATM   13  N   UNL     1      41.701 -18.077   3.878  1.00  0.00    -0.356 N 
HETATM   14  H   UNL     1      40.775 -17.945   3.489  1.00  0.00     0.166 HD
HETATM   15  C   UNL     1      42.675 -18.879   3.322  1.00  0.00     0.043 A 
HETATM   16  C   UNL     1      43.828 -18.746   4.101  1.00  0.00    -0.001 A 
HETATM   17  C   UNL     1      42.629 -19.688   2.181  1.00  0.00     0.030 A 
HETATM   18  C   UNL     1      43.791 -20.380   1.827  1.00  0.00     0.002 A 
HETATM   19  C   UNL     1      44.952 -20.274   2.591  1.00  0.00     0.001 A 
HETATM   20  C   UNL     1      44.984 -19.460   3.729  1.00  0.00     0.014 A 
ENDROOT
BRANCH   5  21
HETATM   21  C   UNL     1      41.905 -13.330   3.608  1.00  0.00     0.063 A 
HETATM   22  C   UNL     1      41.294 -12.067   3.608  1.00  0.00     0.060 A 
HETATM   23  C   UNL     1      41.193 -11.338   2.415  1.00  0.00     0.019 A 
HETATM   24  C   UNL     1      41.727 -11.850   1.233  1.00  0.00     0.001 A 
HETATM   25  C   UNL     1      42.374 -13.084   1.237  1.00  0.00     0.002 A 
HETATM   26  C   UNL     1      42.466 -13.824   2.419  1.00  0.00     0.031 A 
BRANCH  22  27
HETATM   27  C   UNL     1      40.804 -11.414   4.846  1.00  0.00     0.268 C 
HETATM   28  N   UNL     1      39.464 -11.636   5.149  1.00  0.00    -0.290 N 
HETATM   29  H   UNL     1      38.896 -12.276   4.593  1.00  0.00     0.183 HD
HETATM   30  O   UNL     1      41.566 -10.788   5.576  1.00  0.00    -0.266 OA
BRANCH  28  31
HETATM   31  N   UNL     1      38.932 -11.127   6.351  1.00  0.00    -0.247 NA
HETATM   32  H   UNL     1      38.433 -10.261   6.108  1.00  0.00     0.143 HD
HETATM   33  H   UNL     1      39.719 -10.785   6.913  1.00  0.00     0.143 HD
ENDBRANCH  28  31
ENDBRANCH  22  27
ENDBRANCH   5  21
TORSDOF 3
ENDMDL
MODEL 8
REMARK VINA RESULT:      -7.7      2.627      5.892
REMARK  3 active torsions:
REMARK  status: ('A' for Active; 'I' for Inactive)
REMARK    1  A    between atoms: N_5  and  C_6 
REMARK    2  A    between atoms: C_7  and  C_8 
REMARK       I    between atoms: C_8  and  N_9 
REMARK    3  A    between atoms: N_9  and  N_10 
ROOT
HETATM    1  C   UNL     1      39.294 -13.150   4.559  1.00  0.00     0.056 C 
HETATM    2  C   UNL     1      40.283 -13.767   3.587  1.00  0.00     0.158 C 
HETATM    3  C   UNL     1      39.621 -14.242   2.289  1.00  0.00     0.267 C 
HETATM    4  O   UNL     1      38.689 -15.040   2.240  1.00  0.00    -0.269 OA
HETATM    5  N   UNL     1      40.361 -13.753   1.232  1.00  0.00    -0.230 N 
HETATM    6  C   UNL     1      41.443 -13.045   1.701  1.00  0.00     0.333 C 
HETATM    7  O   UNL     1      42.412 -12.677   1.051  1.00  0.00    -0.246 OA
HETATM    8  N   UNL     1      41.268 -12.822   3.071  1.00  0.00    -0.309 N 
HETATM    9  C   UNL     1      42.408 -12.450   3.916  1.00  0.00     0.134 C 
HETATM   10  C   UNL     1      43.280 -13.671   4.281  1.00  0.00     0.061 C 
HETATM   11  C   UNL     1      42.427 -14.884   4.492  1.00  0.00    -0.018 A 
HETATM   12  C   UNL     1      41.078 -14.904   4.178  1.00  0.00     0.055 A 
HETATM   13  N   UNL     1      40.608 -16.173   4.392  1.00  0.00    -0.356 N 
HETATM   14  H   UNL     1      39.666 -16.493   4.200  1.00  0.00     0.166 HD
HETATM   15  C   UNL     1      41.647 -16.992   4.782  1.00  0.00     0.043 A 
HETATM   16  C   UNL     1      42.796 -16.201   4.877  1.00  0.00    -0.001 A 
HETATM   17  C   UNL     1      41.660 -18.368   5.032  1.00  0.00     0.030 A 
HETATM   18  C   UNL     1      42.879 -18.952   5.390  1.00  0.00     0.002 A 
HETATM   19  C   UNL     1      44.038 -18.186   5.502  1.00  0.00     0.001 A 
HETATM   20  C   UNL     1      44.010 -16.811   5.247  1.00  0.00     0.014 A 
ENDROOT
BRANCH   5  21
HETATM   21  C   UNL     1      40.326 -14.406  -0.018  1.00  0.00     0.063 A 
HETATM   22  C   UNL     1      41.138 -15.519  -0.285  1.00  0.00     0.060 A 
HETATM   23  C   UNL     1      41.246 -16.008  -1.595  1.00  0.00     0.019 A 
HETATM   24  C   UNL     1      40.524 -15.411  -2.628  1.00  0.00     0.001 A 
HETATM   25  C   UNL     1      39.681 -14.334  -2.358  1.00  0.00     0.002 A 
HETATM   26  C   UNL     1      39.579 -13.831  -1.058  1.00  0.00     0.031 A 
BRANCH  22  27
HETATM   27  C   UNL     1      41.847 -16.269   0.780  1.00  0.00     0.268 C 
HETATM   28  N   UNL     1      43.208 -16.001   0.895  1.00  0.00    -0.290 N 
HETATM   29  H   UNL     1      43.652 -15.274   0.334  1.00  0.00     0.183 HD
HETATM   30  O   UNL     1      41.238 -17.013   1.543  1.00  0.00    -0.266 OA
BRANCH  28  31
HETATM   31  N   UNL     1      43.946 -16.602   1.935  1.00  0.00    -0.247 NA
HETATM   32  H   UNL     1      43.365 -16.543   2.781  1.00  0.00     0.143 HD
HETATM   33  H   UNL     1      44.730 -15.978   2.153  1.00  0.00     0.143 HD
ENDBRANCH  28  31
ENDBRANCH  22  27
ENDBRANCH   5  21
TORSDOF 3
ENDMDL
MODEL 9
REMARK VINA RESULT:      -7.7      2.293      4.433
REMARK  3 active torsions:
REMARK  status: ('A' for Active; 'I' for Inactive)
REMARK    1  A    between atoms: N_5  and  C_6 
REMARK    2  A    between atoms: C_7  and  C_8 
REMARK       I    between atoms: C_8  and  N_9 
REMARK    3  A    between atoms: N_9  and  N_10 
ROOT
HETATM    1  C   UNL     1      39.489 -15.721   1.781  1.00  0.00     0.056 C 
HETATM    2  C   UNL     1      40.661 -15.460   2.708  1.00  0.00     0.158 C 
HETATM    3  C   UNL     1      41.094 -16.708   3.485  1.00  0.00     0.267 C 
HETATM    4  O   UNL     1      40.347 -17.369   4.202  1.00  0.00    -0.269 OA
HETATM    5  N   UNL     1      42.462 -16.830   3.362  1.00  0.00    -0.230 N 
HETATM    6  C   UNL     1      42.965 -15.786   2.622  1.00  0.00     0.333 C 
HETATM    7  O   UNL     1      44.141 -15.466   2.516  1.00  0.00    -0.246 OA
HETATM    8  N   UNL     1      41.898 -15.118   2.013  1.00  0.00    -0.309 N 
HETATM    9  C   UNL     1      42.070 -13.757   1.493  1.00  0.00     0.134 C 
HETATM   10  C   UNL     1      42.020 -12.699   2.617  1.00  0.00     0.061 C 
HETATM   11  C   UNL     1      41.021 -13.088   3.664  1.00  0.00    -0.018 A 
HETATM   12  C   UNL     1      40.417 -14.334   3.683  1.00  0.00     0.055 A 
HETATM   13  N   UNL     1      39.638 -14.415   4.808  1.00  0.00    -0.356 N 
HETATM   14  H   UNL     1      39.117 -15.230   5.107  1.00  0.00     0.166 HD
HETATM   15  C   UNL     1      39.777 -13.260   5.550  1.00  0.00     0.043 A 
HETATM   16  C   UNL     1      40.621 -12.401   4.841  1.00  0.00    -0.001 A 
HETATM   17  C   UNL     1      39.242 -12.926   6.799  1.00  0.00     0.030 A 
HETATM   18  C   UNL     1      39.576 -11.679   7.336  1.00  0.00     0.002 A 
HETATM   19  C   UNL     1      40.407 -10.799   6.647  1.00  0.00     0.001 A 
HETATM   20  C   UNL     1      40.936 -11.147   5.399  1.00  0.00     0.014 A 
ENDROOT
BRANCH   5  21
HETATM   21  C   UNL     1      43.200 -17.536   4.336  1.00  0.00     0.063 A 
HETATM   22  C   UNL     1      43.689 -16.899   5.486  1.00  0.00     0.060 A 
HETATM   23  C   UNL     1      44.599 -17.564   6.320  1.00  0.00     0.019 A 
HETATM   24  C   UNL     1      44.995 -18.869   6.028  1.00  0.00     0.001 A 
HETATM   25  C   UNL     1      44.476 -19.521   4.910  1.00  0.00     0.002 A 
HETATM   26  C   UNL     1      43.580 -18.860   4.066  1.00  0.00     0.031 A 
BRANCH  22  27
HETATM   27  C   UNL     1      43.229 -15.557   5.918  1.00  0.00     0.268 C 
HETATM   28  N   UNL     1      44.102 -14.508   5.644  1.00  0.00    -0.290 N 
HETATM   29  H   UNL     1      44.956 -14.659   5.108  1.00  0.00     0.183 HD
HETATM   30  O   UNL     1      42.117 -15.398   6.412  1.00  0.00    -0.266 OA
BRANCH  28  31
HETATM   31  N   UNL     1      43.711 -13.187   5.940  1.00  0.00    -0.247 NA
HETATM   32  H   UNL     1      43.484 -12.739   5.042  1.00  0.00     0.143 HD
HETATM   33  H   UNL     1      44.551 -12.680   6.240  1.00  0.00     0.143 HD
ENDBRANCH  28  31
ENDBRANCH  22  27
ENDBRANCH   5  21
TORSDOF 3
ENDMDL
MODEL 10
REMARK VINA RESULT:      -7.6      4.212      7.881
REMARK  3 active torsions:
REMARK  status: ('A' for Active; 'I' for Inactive)
REMARK    1  A    between atoms: N_5  and  C_6 
REMARK    2  A    between atoms: C_7  and  C_8 
REMARK       I    between atoms: C_8  and  N_9 
REMARK    3  A    between atoms: N_9  and  N_10 
ROOT
HETATM    1  C   UNL     1      42.488 -12.419  -2.420  1.00  0.00     0.056 C 
HETATM    2  C   UNL     1      41.319 -12.895  -1.576  1.00  0.00     0.158 C 
HETATM    3  C   UNL     1      40.267 -11.804  -1.352  1.00  0.00     0.267 C 
HETATM    4  O   UNL     1      40.504 -10.706  -0.857  1.00  0.00    -0.269 OA
HETATM    5  N   UNL     1      39.030 -12.343  -1.640  1.00  0.00    -0.230 N 
HETATM    6  C   UNL     1      39.162 -13.666  -1.994  1.00  0.00     0.333 C 
HETATM    7  O   UNL     1      38.263 -14.490  -2.088  1.00  0.00    -0.246 OA
HETATM    8  N   UNL     1      40.517 -13.934  -2.214  1.00  0.00    -0.309 N 
HETATM    9  C   UNL     1      41.013 -15.315  -2.217  1.00  0.00     0.134 C 
HETATM   10  C   UNL     1      41.191 -15.867  -0.786  1.00  0.00     0.061 C 
HETATM   11  C   UNL     1      41.678 -14.793   0.137  1.00  0.00    -0.018 A 
HETATM   12  C   UNL     1      41.733 -13.462  -0.241  1.00  0.00     0.055 A 
HETATM   13  N   UNL     1      42.124 -12.724   0.846  1.00  0.00    -0.356 N 
HETATM   14  H   UNL     1      42.203 -11.714   0.877  1.00  0.00     0.166 HD
HETATM   15  C   UNL     1      42.264 -13.552   1.941  1.00  0.00     0.043 A 
HETATM   16  C   UNL     1      42.014 -14.860   1.516  1.00  0.00    -0.001 A 
HETATM   17  C   UNL     1      42.567 -13.239   3.270  1.00  0.00     0.030 A 
HETATM   18  C   UNL     1      42.618 -14.291   4.190  1.00  0.00     0.002 A 
HETATM   19  C   UNL     1      42.383 -15.605   3.793  1.00  0.00     0.001 A 
HETATM   20  C   UNL     1      42.079 -15.903   2.459  1.00  0.00     0.014 A 
ENDROOT
BRANCH   5  21
HETATM   21  C   UNL     1      37.867 -11.792  -1.065  1.00  0.00     0.063 A 
HETATM   22  C   UNL     1      37.361 -12.262   0.157  1.00  0.00     0.060 A 
HETATM   23  C   UNL     1      36.093 -11.854   0.593  1.00  0.00     0.019 A 
HETATM   24  C   UNL     1      35.344 -10.956  -0.168  1.00  0.00     0.001 A 
HETATM   25  C   UNL     1      35.863 -10.452  -1.360  1.00  0.00     0.002 A 
HETATM   26  C   UNL     1      37.119 -10.866  -1.809  1.00  0.00     0.031 A 
BRANCH  22  27
HETATM   27  C   UNL     1      38.145 -13.130   1.069  1.00  0.00     0.268 C 
HETATM   28  N   UNL     1      37.839 -14.487   1.014  1.00  0.00    -0.290 N 
HETATM   29  H   UNL     1      37.178 -14.851   0.328  1.00  0.00     0.183 HD
HETATM   30  O   UNL     1      39.049 -12.670   1.760  1.00  0.00    -0.266 OA
BRANCH  28  31
HETATM   31  N   UNL     1      38.592 -15.398   1.781  1.00  0.00    -0.247 NA
HETATM   32  H   UNL     1      38.070 -16.285   1.780  1.00  0.00     0.143 HD
HETATM   33  H   UNL     1      38.528 -15.099   2.760  1.00  0.00     0.143 HD
ENDBRANCH  28  31
ENDBRANCH  22  27
ENDBRANCH   5  21
TORSDOF 3
ENDMDL
