MODEL 1
REMARK VINA RESULT:      -9.4      0.000      0.000
REMARK  8 active torsions:
REMARK  status: ('A' for Active; 'I' for Inactive)
REMARK    1  A    between atoms: N_2  and  C_5 
REMARK    2  A    between atoms: C_5  and  C_6 
REMARK    3  A    between atoms: C_6  and  S_7 
REMARK    4  A    between atoms: S_7  and  C_8 
REMARK    5  A    between atoms: C_10  and  C_24 
REMARK    6  A    between atoms: C_15  and  C_18 
REMARK    7  A    between atoms: C_30  and  C_34 
REMARK       I    between atoms: C_34  and  N_36 
REMARK    8  A    between atoms: N_36  and  C_37 
ROOT
HETATM    1  C   UNL     1      41.628 -16.329   4.170  1.00  0.00     0.108 A 
HETATM    2  N   UNL     1      41.178 -15.122   3.780  1.00  0.00    -0.225 NA
HETATM    3  C   UNL     1      41.419 -14.760   2.514  1.00  0.00     0.134 A 
HETATM    4  N   UNL     1      42.016 -15.557   1.615  1.00  0.00    -0.232 NA
HETATM    5  C   UNL     1      42.472 -16.747   2.019  1.00  0.00     0.072 A 
HETATM    6  C   UNL     1      43.141 -17.544   1.102  1.00  0.00     0.033 A 
HETATM    7  C   UNL     1      43.680 -18.786   1.453  1.00  0.00     0.014 A 
HETATM    8  C   UNL     1      43.549 -19.265   2.756  1.00  0.00    -0.022 A 
HETATM    9  C   UNL     1      42.861 -18.478   3.685  1.00  0.00     0.029 A 
HETATM   10  C   UNL     1      42.319 -17.210   3.327  1.00  0.00     0.029 A 
ENDROOT
BRANCH   3  11
HETATM   11  C   UNL     1      41.019 -13.374   2.047  1.00  0.00     0.086 C 
HETATM   12  C   UNL     1      39.516 -13.094   2.131  1.00  0.00     0.188 C 
HETATM   13  O   UNL     1      38.971 -13.042   3.461  1.00  0.00    -0.350 OA
HETATM   14  C   UNL     1      39.769 -12.463   4.410  1.00  0.00     0.075 A 
HETATM   15  C   UNL     1      39.189 -12.278   5.666  1.00  0.00     0.038 A 
HETATM   16  C   UNL     1      41.105 -12.112   4.196  1.00  0.00    -0.023 A 
HETATM   17  C   UNL     1      39.936 -11.745   6.720  1.00  0.00     0.020 A 
HETATM   18  C   UNL     1      41.272 -11.385   6.513  1.00  0.00     0.032 A 
HETATM   19  C   UNL     1      41.851 -11.570   5.251  1.00  0.00     0.027 A 
HETATM   20  C   UNL     1      41.741 -12.289   2.846  1.00  0.00     0.056 C 
BRANCH  18  21
HETATM   21  C   UNL     1      42.126 -10.859   7.610  1.00  0.00     0.252 C 
HETATM   22  O   UNL     1      42.043  -9.677   7.927  1.00  0.00    -0.268 OA
HETATM   23  N   UNL     1      42.962 -11.772   8.224  1.00  0.00    -0.352 N 
HETATM   24  H   UNL     1      42.838 -12.759   8.041  1.00  0.00     0.163 HD
BRANCH  23  25
HETATM   25  C   UNL     1      43.811 -11.398   9.312  1.00  0.00     0.084 A 
HETATM   26  C   UNL     1      44.441 -12.447  10.186  1.00  0.00     0.027 A 
HETATM   27  C   UNL     1      45.290 -11.649   9.241  1.00  0.00     0.027 A 
ENDBRANCH  23  25
ENDBRANCH  18  21
ENDBRANCH   3  11
BRANCH   1  28
HETATM   28  S   UNL     1      41.353 -16.691   5.909  1.00  0.00    -0.108 SA
BRANCH  28  29
HETATM   29  C   UNL     1      42.974 -16.199   6.609  1.00  0.00     0.108 C 
BRANCH  29  30
HETATM   30  C   UNL     1      43.256 -16.989   7.890  1.00  0.00     0.244 C 
BRANCH  30  31
HETATM   31  N   UNL     1      44.283 -18.088   7.662  1.00  0.00    -0.078 N 
HETATM   32  C   UNL     1      43.678 -19.460   7.532  1.00  0.00     0.269 C 
HETATM   33  H   UNL     1      44.868 -18.104   8.514  1.00  0.00     0.279 HD
HETATM   34  C   UNL     1      45.196 -17.773   6.513  1.00  0.00     0.269 C 
ENDBRANCH  30  31
ENDBRANCH  29  30
ENDBRANCH  28  29
ENDBRANCH   1  28
BRANCH   8  35
HETATM   35  C   UNL     1      44.113 -20.543   3.154  1.00  0.00     0.010 A 
HETATM   36  C   UNL     1      44.139 -21.790   2.488  1.00  0.00     0.152 A 
HETATM   37  N   UNL     1      44.726 -22.749   3.208  1.00  0.00    -0.187 NA
HETATM   38  N   UNL     1      45.091 -22.118   4.336  1.00  0.00    -0.289 N 
HETATM   39  H   UNL     1      45.571 -22.652   5.054  1.00  0.00     0.188 HD
HETATM   40  C   UNL     1      44.740 -20.798   4.355  1.00  0.00     0.123 A 
ENDBRANCH   8  35
TORSDOF 8
ENDMDL
MODEL 2
REMARK VINA RESULT:      -9.2      1.590      2.459
REMARK  8 active torsions:
REMARK  status: ('A' for Active; 'I' for Inactive)
REMARK    1  A    between atoms: N_2  and  C_5 
REMARK    2  A    between atoms: C_5  and  C_6 
REMARK    3  A    between atoms: C_6  and  S_7 
REMARK    4  A    between atoms: S_7  and  C_8 
REMARK    5  A    between atoms: C_10  and  C_24 
REMARK    6  A    between atoms: C_15  and  C_18 
REMARK    7  A    between atoms: C_30  and  C_34 
REMARK       I    between atoms: C_34  and  N_36 
REMARK    8  A    between atoms: N_36  and  C_37 
ROOT
HETATM    1  C   UNL     1      43.092 -16.155   4.638  1.00  0.00     0.108 A 
HETATM    2  N   UNL     1      42.628 -14.982   4.167  1.00  0.00    -0.225 NA
HETATM    3  C   UNL     1      42.244 -14.948   2.885  1.00  0.00     0.134 A 
HETATM    4  N   UNL     1      42.235 -16.024   2.084  1.00  0.00    -0.232 NA
HETATM    5  C   UNL     1      42.712 -17.179   2.560  1.00  0.00     0.072 A 
HETATM    6  C   UNL     1      42.757 -18.275   1.711  1.00  0.00     0.033 A 
HETATM    7  C   UNL     1      43.274 -19.509   2.119  1.00  0.00     0.014 A 
HETATM    8  C   UNL     1      43.761 -19.672   3.415  1.00  0.00    -0.022 A 
HETATM    9  C   UNL     1      43.705 -18.579   4.286  1.00  0.00     0.029 A 
HETATM   10  C   UNL     1      43.184 -17.321   3.866  1.00  0.00     0.029 A 
ENDROOT
BRANCH   3  11
HETATM   11  C   UNL     1      41.803 -13.632   2.276  1.00  0.00     0.086 C 
HETATM   12  C   UNL     1      40.298 -13.538   2.008  1.00  0.00     0.188 C 
HETATM   13  O   UNL     1      39.463 -13.527   3.179  1.00  0.00    -0.350 OA
HETATM   14  C   UNL     1      39.952 -12.834   4.254  1.00  0.00     0.075 A 
HETATM   15  C   UNL     1      39.084 -12.697   5.339  1.00  0.00     0.038 A 
HETATM   16  C   UNL     1      41.252 -12.326   4.327  1.00  0.00    -0.023 A 
HETATM   17  C   UNL     1      39.505 -12.054   6.506  1.00  0.00     0.020 A 
HETATM   18  C   UNL     1      40.803 -11.537   6.585  1.00  0.00     0.032 A 
HETATM   19  C   UNL     1      41.671 -11.674   5.495  1.00  0.00     0.027 A 
HETATM   20  C   UNL     1      42.194 -12.450   3.163  1.00  0.00     0.056 C 
BRANCH  18  21
HETATM   21  C   UNL     1      41.318 -10.887   7.819  1.00  0.00     0.252 C 
HETATM   22  O   UNL     1      42.333 -10.201   7.762  1.00  0.00    -0.268 OA
HETATM   23  N   UNL     1      40.584 -11.094   8.971  1.00  0.00    -0.352 N 
HETATM   24  H   UNL     1      39.663 -11.507   8.904  1.00  0.00     0.163 HD
BRANCH  23  25
HETATM   25  C   UNL     1      40.957 -10.500  10.216  1.00  0.00     0.084 A 
HETATM   26  C   UNL     1      40.540 -11.124  11.518  1.00  0.00     0.027 A 
HETATM   27  C   UNL     1      41.979 -11.162  11.097  1.00  0.00     0.027 A 
ENDBRANCH  23  25
ENDBRANCH  18  21
ENDBRANCH   3  11
BRANCH   1  28
HETATM   28  S   UNL     1      43.683 -16.085   6.335  1.00  0.00    -0.108 SA
BRANCH  28  29
HETATM   29  C   UNL     1      43.882 -14.276   6.541  1.00  0.00     0.108 C 
BRANCH  29  30
HETATM   30  C   UNL     1      45.319 -13.947   6.953  1.00  0.00     0.244 C 
BRANCH  30  31
HETATM   31  N   UNL     1      45.399 -12.643   7.734  1.00  0.00    -0.078 N 
HETATM   32  C   UNL     1      44.660 -12.679   9.044  1.00  0.00     0.269 C 
HETATM   33  H   UNL     1      44.926 -11.937   7.147  1.00  0.00     0.279 HD
HETATM   34  C   UNL     1      46.817 -12.182   7.910  1.00  0.00     0.269 C 
ENDBRANCH  30  31
ENDBRANCH  29  30
ENDBRANCH  28  29
ENDBRANCH   1  28
BRANCH   8  35
HETATM   35  C   UNL     1      44.320 -20.935   3.861  1.00  0.00     0.010 A 
HETATM   36  C   UNL     1      44.902 -21.305   5.096  1.00  0.00     0.152 A 
HETATM   37  N   UNL     1      45.340 -22.566   5.105  1.00  0.00    -0.187 NA
HETATM   38  N   UNL     1      45.029 -23.017   3.879  1.00  0.00    -0.289 N 
HETATM   39  H   UNL     1      45.265 -23.976   3.642  1.00  0.00     0.188 HD
HETATM   40  C   UNL     1      44.424 -22.076   3.094  1.00  0.00     0.123 A 
ENDBRANCH   8  35
TORSDOF 8
ENDMDL
MODEL 3
REMARK VINA RESULT:      -9.1      2.309      3.766
REMARK  8 active torsions:
REMARK  status: ('A' for Active; 'I' for Inactive)
REMARK    1  A    between atoms: N_2  and  C_5 
REMARK    2  A    between atoms: C_5  and  C_6 
REMARK    3  A    between atoms: C_6  and  S_7 
REMARK    4  A    between atoms: S_7  and  C_8 
REMARK    5  A    between atoms: C_10  and  C_24 
REMARK    6  A    between atoms: C_15  and  C_18 
REMARK    7  A    between atoms: C_30  and  C_34 
REMARK       I    between atoms: C_34  and  N_36 
REMARK    8  A    between atoms: N_36  and  C_37 
ROOT
HETATM    1  C   UNL     1      43.182 -14.440   5.831  1.00  0.00     0.108 A 
HETATM    2  N   UNL     1      42.510 -13.277   5.729  1.00  0.00    -0.225 NA
HETATM    3  C   UNL     1      41.461 -13.250   4.899  1.00  0.00     0.134 A 
HETATM    4  N   UNL     1      41.014 -14.324   4.230  1.00  0.00    -0.232 NA
HETATM    5  C   UNL     1      41.699 -15.468   4.329  1.00  0.00     0.072 A 
HETATM    6  C   UNL     1      41.271 -16.561   3.591  1.00  0.00     0.033 A 
HETATM    7  C   UNL     1      41.951 -17.783   3.610  1.00  0.00     0.014 A 
HETATM    8  C   UNL     1      43.096 -17.937   4.391  1.00  0.00    -0.022 A 
HETATM    9  C   UNL     1      43.528 -16.847   5.155  1.00  0.00     0.029 A 
HETATM   10  C   UNL     1      42.837 -15.601   5.128  1.00  0.00     0.029 A 
ENDROOT
BRANCH   3  11
HETATM   11  C   UNL     1      40.726 -11.944   4.672  1.00  0.00     0.086 C 
HETATM   12  C   UNL     1      39.211 -12.032   4.884  1.00  0.00     0.188 C 
HETATM   13  O   UNL     1      38.791 -12.287   6.235  1.00  0.00    -0.350 OA
HETATM   14  C   UNL     1      39.525 -11.672   7.214  1.00  0.00     0.075 A 
HETATM   15  C   UNL     1      39.034 -11.798   8.515  1.00  0.00     0.038 A 
HETATM   16  C   UNL     1      40.726 -10.998   6.979  1.00  0.00    -0.023 A 
HETATM   17  C   UNL     1      39.738 -11.254   9.593  1.00  0.00     0.020 A 
HETATM   18  C   UNL     1      40.939 -10.571   9.366  1.00  0.00     0.032 A 
HETATM   19  C   UNL     1      41.427 -10.446   8.060  1.00  0.00     0.027 A 
HETATM   20  C   UNL     1      41.261 -10.840   5.584  1.00  0.00     0.056 C 
BRANCH  18  21
HETATM   21  C   UNL     1      41.752 -10.016  10.479  1.00  0.00     0.252 C 
HETATM   22  O   UNL     1      42.812  -9.452  10.230  1.00  0.00    -0.268 OA
HETATM   23  N   UNL     1      41.230 -10.162  11.749  1.00  0.00    -0.352 N 
HETATM   24  H   UNL     1      40.270 -10.463  11.859  1.00  0.00     0.163 HD
BRANCH  23  25
HETATM   25  C   UNL     1      41.900  -9.645  12.901  1.00  0.00     0.084 A 
HETATM   26  C   UNL     1      41.399  -9.956  14.284  1.00  0.00     0.027 A 
HETATM   27  C   UNL     1      42.683 -10.561  13.799  1.00  0.00     0.027 A 
ENDBRANCH  23  25
ENDBRANCH  18  21
ENDBRANCH   3  11
BRANCH   1  28
HETATM   28  S   UNL     1      44.636 -14.359   6.885  1.00  0.00    -0.108 SA
BRANCH  28  29
HETATM   29  C   UNL     1      44.274 -12.833   7.831  1.00  0.00     0.108 C 
BRANCH  29  30
HETATM   30  C   UNL     1      45.390 -12.562   8.844  1.00  0.00     0.244 C 
BRANCH  30  31
HETATM   31  N   UNL     1      44.895 -11.742  10.026  1.00  0.00    -0.078 N 
HETATM   32  C   UNL     1      44.349 -12.577  11.152  1.00  0.00     0.269 C 
HETATM   33  H   UNL     1      44.106 -11.181   9.665  1.00  0.00     0.279 HD
HETATM   34  C   UNL     1      45.934 -10.771  10.509  1.00  0.00     0.269 C 
ENDBRANCH  30  31
ENDBRANCH  29  30
ENDBRANCH  28  29
ENDBRANCH   1  28
BRANCH   8  35
HETATM   35  C   UNL     1      43.833 -19.187   4.418  1.00  0.00     0.010 A 
HETATM   36  C   UNL     1      44.263 -20.030   3.367  1.00  0.00     0.152 A 
HETATM   37  N   UNL     1      44.888 -21.126   3.804  1.00  0.00    -0.187 NA
HETATM   38  N   UNL     1      44.873 -20.985   5.140  1.00  0.00    -0.289 N 
HETATM   39  H   UNL     1      45.303 -21.710   5.707  1.00  0.00     0.188 HD
HETATM   40  C   UNL     1      44.246 -19.845   5.557  1.00  0.00     0.123 A 
ENDBRANCH   8  35
TORSDOF 8
ENDMDL
MODEL 4
REMARK VINA RESULT:      -9.1      3.516      6.955
REMARK  8 active torsions:
REMARK  status: ('A' for Active; 'I' for Inactive)
REMARK    1  A    between atoms: N_2  and  C_5 
REMARK    2  A    between atoms: C_5  and  C_6 
REMARK    3  A    between atoms: C_6  and  S_7 
REMARK    4  A    between atoms: S_7  and  C_8 
REMARK    5  A    between atoms: C_10  and  C_24 
REMARK    6  A    between atoms: C_15  and  C_18 
REMARK    7  A    between atoms: C_30  and  C_34 
REMARK       I    between atoms: C_34  and  N_36 
REMARK    8  A    between atoms: N_36  and  C_37 
ROOT
HETATM    1  C   UNL     1      41.257 -16.241   4.016  1.00  0.00     0.108 A 
HETATM    2  N   UNL     1      40.803 -15.008   3.722  1.00  0.00    -0.225 NA
HETATM    3  C   UNL     1      41.122 -14.509   2.522  1.00  0.00     0.134 A 
HETATM    4  N   UNL     1      41.802 -15.195   1.590  1.00  0.00    -0.232 NA
HETATM    5  C   UNL     1      42.259 -16.413   1.900  1.00  0.00     0.072 A 
HETATM    6  C   UNL     1      43.012 -17.096   0.956  1.00  0.00     0.033 A 
HETATM    7  C   UNL     1      43.558 -18.358   1.214  1.00  0.00     0.014 A 
HETATM    8  C   UNL     1      43.349 -18.974   2.447  1.00  0.00    -0.022 A 
HETATM    9  C   UNL     1      42.577 -18.303   3.400  1.00  0.00     0.029 A 
HETATM   10  C   UNL     1      42.028 -17.014   3.138  1.00  0.00     0.029 A 
ENDROOT
BRANCH   3  11
HETATM   11  C   UNL     1      40.719 -13.091   2.174  1.00  0.00     0.086 C 
HETATM   12  C   UNL     1      41.873 -12.214   1.678  1.00  0.00     0.188 C 
HETATM   13  O   UNL     1      42.439 -12.597   0.413  1.00  0.00    -0.350 OA
HETATM   14  C   UNL     1      41.550 -13.050  -0.525  1.00  0.00     0.075 A 
HETATM   15  C   UNL     1      42.072 -13.283  -1.799  1.00  0.00     0.038 A 
HETATM   16  C   UNL     1      40.208 -13.329  -0.255  1.00  0.00    -0.023 A 
HETATM   17  C   UNL     1      41.260 -13.799  -2.813  1.00  0.00     0.020 A 
HETATM   18  C   UNL     1      39.913 -14.075  -2.553  1.00  0.00     0.032 A 
HETATM   19  C   UNL     1      39.392 -13.838  -1.275  1.00  0.00     0.027 A 
HETATM   20  C   UNL     1      39.626 -13.069   1.106  1.00  0.00     0.056 C 
BRANCH  18  21
HETATM   21  C   UNL     1      39.017 -14.669  -3.580  1.00  0.00     0.252 C 
HETATM   22  O   UNL     1      39.415 -15.612  -4.255  1.00  0.00    -0.268 OA
HETATM   23  N   UNL     1      37.758 -14.111  -3.689  1.00  0.00    -0.352 N 
HETATM   24  H   UNL     1      37.437 -13.470  -2.975  1.00  0.00     0.163 HD
BRANCH  23  25
HETATM   25  C   UNL     1      36.793 -14.611  -4.617  1.00  0.00     0.084 A 
HETATM   26  C   UNL     1      35.345 -14.228  -4.497  1.00  0.00     0.027 A 
HETATM   27  C   UNL     1      36.169 -13.694  -5.630  1.00  0.00     0.027 A 
ENDBRANCH  23  25
ENDBRANCH  18  21
ENDBRANCH   3  11
BRANCH   1  28
HETATM   28  S   UNL     1      40.871 -16.789   5.684  1.00  0.00    -0.108 SA
BRANCH  28  29
HETATM   29  C   UNL     1      42.416 -16.321   6.551  1.00  0.00     0.108 C 
BRANCH  29  30
HETATM   30  C   UNL     1      42.824 -17.423   7.532  1.00  0.00     0.244 C 
BRANCH  30  31
HETATM   31  N   UNL     1      43.728 -18.458   6.877  1.00  0.00    -0.078 N 
HETATM   32  C   UNL     1      45.100 -17.936   6.548  1.00  0.00     0.269 C 
HETATM   33  H   UNL     1      43.277 -18.691   5.977  1.00  0.00     0.279 HD
HETATM   34  C   UNL     1      43.794 -19.729   7.674  1.00  0.00     0.269 C 
ENDBRANCH  30  31
ENDBRANCH  29  30
ENDBRANCH  28  29
ENDBRANCH   1  28
BRANCH   8  35
HETATM   35  C   UNL     1      43.918 -20.275   2.749  1.00  0.00     0.010 A 
HETATM   36  C   UNL     1      43.931 -21.476   2.003  1.00  0.00     0.152 A 
HETATM   37  N   UNL     1      44.527 -22.481   2.647  1.00  0.00    -0.187 NA
HETATM   38  N   UNL     1      44.914 -21.926   3.807  1.00  0.00    -0.289 N 
HETATM   39  H   UNL     1      45.405 -22.506   4.481  1.00  0.00     0.188 HD
HETATM   40  C   UNL     1      44.565 -20.609   3.920  1.00  0.00     0.123 A 
ENDBRANCH   8  35
TORSDOF 8
ENDMDL
MODEL 5
REMARK VINA RESULT:      -8.9      2.087      2.743
REMARK  8 active torsions:
REMARK  status: ('A' for Active; 'I' for Inactive)
REMARK    1  A    between atoms: N_2  and  C_5 
REMARK    2  A    between atoms: C_5  and  C_6 
REMARK    3  A    between atoms: C_6  and  S_7 
REMARK    4  A    between atoms: S_7  and  C_8 
REMARK    5  A    between atoms: C_10  and  C_24 
REMARK    6  A    between atoms: C_15  and  C_18 
REMARK    7  A    between atoms: C_30  and  C_34 
REMARK       I    between atoms: C_34  and  N_36 
REMARK    8  A    between atoms: N_36  and  C_37 
ROOT
HETATM    1  C   UNL     1      42.886 -14.202   4.707  1.00  0.00     0.108 A 
HETATM    2  N   UNL     1      42.242 -13.022   4.797  1.00  0.00    -0.225 NA
HETATM    3  C   UNL     1      41.096 -12.899   4.117  1.00  0.00     0.134 A 
HETATM    4  N   UNL     1      40.535 -13.899   3.420  1.00  0.00    -0.232 NA
HETATM    5  C   UNL     1      41.191 -15.060   3.327  1.00  0.00     0.072 A 
HETATM    6  C   UNL     1      40.638 -16.073   2.558  1.00  0.00     0.033 A 
HETATM    7  C   UNL     1      41.278 -17.304   2.380  1.00  0.00     0.014 A 
HETATM    8  C   UNL     1      42.508 -17.550   2.988  1.00  0.00    -0.022 A 
HETATM    9  C   UNL     1      43.068 -16.543   3.781  1.00  0.00     0.029 A 
HETATM   10  C   UNL     1      42.418 -15.287   3.955  1.00  0.00     0.029 A 
ENDROOT
BRANCH   3  11
HETATM   11  C   UNL     1      40.378 -11.565   4.104  1.00  0.00     0.086 C 
HETATM   12  C   UNL     1      38.922 -11.631   4.575  1.00  0.00     0.188 C 
HETATM   13  O   UNL     1      38.736 -11.966   5.961  1.00  0.00    -0.350 OA
HETATM   14  C   UNL     1      39.651 -11.435   6.830  1.00  0.00     0.075 A 
HETATM   15  C   UNL     1      39.391 -11.636   8.187  1.00  0.00     0.038 A 
HETATM   16  C   UNL     1      40.815 -10.775   6.429  1.00  0.00    -0.023 A 
HETATM   17  C   UNL     1      40.291 -11.182   9.155  1.00  0.00     0.020 A 
HETATM   18  C   UNL     1      41.456 -10.513   8.762  1.00  0.00     0.032 A 
HETATM   19  C   UNL     1      41.713 -10.312   7.401  1.00  0.00     0.027 A 
HETATM   20  C   UNL     1      41.102 -10.536   4.973  1.00  0.00     0.056 C 
BRANCH  18  21
HETATM   21  C   UNL     1      42.471 -10.052   9.746  1.00  0.00     0.252 C 
HETATM   22  O   UNL     1      43.662 -10.220   9.510  1.00  0.00    -0.268 OA
HETATM   23  N   UNL     1      41.983  -9.431  10.880  1.00  0.00    -0.352 N 
HETATM   24  H   UNL     1      41.010  -9.159  10.916  1.00  0.00     0.163 HD
BRANCH  23  25
HETATM   25  C   UNL     1      42.856  -8.916  11.888  1.00  0.00     0.084 A 
HETATM   26  C   UNL     1      42.370  -8.722  13.297  1.00  0.00     0.027 A 
HETATM   27  C   UNL     1      43.356  -9.809  12.988  1.00  0.00     0.027 A 
ENDBRANCH  23  25
ENDBRANCH  18  21
ENDBRANCH   3  11
BRANCH   1  28
HETATM   28  S   UNL     1      44.466 -14.245   5.564  1.00  0.00    -0.108 SA
BRANCH  28  29
HETATM   29  C   UNL     1      43.984 -15.120   7.100  1.00  0.00     0.108 C 
BRANCH  29  30
HETATM   30  C   UNL     1      44.504 -16.560   7.071  1.00  0.00     0.244 C 
BRANCH  30  31
HETATM   31  N   UNL     1      43.465 -17.547   7.586  1.00  0.00    -0.078 N 
HETATM   32  C   UNL     1      42.065 -17.240   7.128  1.00  0.00     0.269 C 
HETATM   33  H   UNL     1      43.469 -17.445   8.613  1.00  0.00     0.279 HD
HETATM   34  C   UNL     1      43.846 -18.968   7.288  1.00  0.00     0.269 C 
ENDBRANCH  30  31
ENDBRANCH  29  30
ENDBRANCH  28  29
ENDBRANCH   1  28
BRANCH   8  35
HETATM   35  C   UNL     1      43.204 -18.811   2.807  1.00  0.00     0.010 A 
HETATM   36  C   UNL     1      43.032 -19.833   1.845  1.00  0.00     0.152 A 
HETATM   37  N   UNL     1      43.851 -20.870   2.038  1.00  0.00    -0.187 NA
HETATM   38  N   UNL     1      44.563 -20.512   3.118  1.00  0.00    -0.289 N 
HETATM   39  H   UNL     1      45.271 -21.152   3.464  1.00  0.00     0.188 HD
HETATM   40  C   UNL     1      44.208 -19.291   3.621  1.00  0.00     0.123 A 
ENDBRANCH   8  35
TORSDOF 8
ENDMDL
MODEL 6
REMARK VINA RESULT:      -8.9      3.785      8.088
REMARK  8 active torsions:
REMARK  status: ('A' for Active; 'I' for Inactive)
REMARK    1  A    between atoms: N_2  and  C_5 
REMARK    2  A    between atoms: C_5  and  C_6 
REMARK    3  A    between atoms: C_6  and  S_7 
REMARK    4  A    between atoms: S_7  and  C_8 
REMARK    5  A    between atoms: C_10  and  C_24 
REMARK    6  A    between atoms: C_15  and  C_18 
REMARK    7  A    between atoms: C_30  and  C_34 
REMARK       I    between atoms: C_34  and  N_36 
REMARK    8  A    between atoms: N_36  and  C_37 
ROOT
HETATM    1  C   UNL     1      39.529 -12.822   1.624  1.00  0.00     0.108 A 
HETATM    2  N   UNL     1      40.136 -12.609   2.807  1.00  0.00    -0.225 NA
HETATM    3  C   UNL     1      41.274 -13.275   3.037  1.00  0.00     0.134 A 
HETATM    4  N   UNL     1      41.862 -14.075   2.135  1.00  0.00    -0.232 NA
HETATM    5  C   UNL     1      41.242 -14.289   0.970  1.00  0.00     0.072 A 
HETATM    6  C   UNL     1      41.822 -15.163   0.062  1.00  0.00     0.033 A 
HETATM    7  C   UNL     1      41.220 -15.469  -1.162  1.00  0.00     0.014 A 
HETATM    8  C   UNL     1      40.001 -14.887  -1.510  1.00  0.00    -0.022 A 
HETATM    9  C   UNL     1      39.415 -13.991  -0.611  1.00  0.00     0.029 A 
HETATM   10  C   UNL     1      40.027 -13.686   0.639  1.00  0.00     0.029 A 
ENDROOT
BRANCH   3  11
HETATM   11  C   UNL     1      41.950 -13.148   4.387  1.00  0.00     0.086 C 
HETATM   12  C   UNL     1      41.031 -13.436   5.579  1.00  0.00     0.188 C 
HETATM   13  O   UNL     1      40.574 -14.795   5.690  1.00  0.00    -0.350 OA
HETATM   14  C   UNL     1      41.486 -15.760   5.356  1.00  0.00     0.075 A 
HETATM   15  C   UNL     1      41.097 -17.078   5.601  1.00  0.00     0.038 A 
HETATM   16  C   UNL     1      42.717 -15.493   4.752  1.00  0.00    -0.023 A 
HETATM   17  C   UNL     1      41.933 -18.141   5.245  1.00  0.00     0.020 A 
HETATM   18  C   UNL     1      43.171 -17.881   4.646  1.00  0.00     0.032 A 
HETATM   19  C   UNL     1      43.558 -16.558   4.403  1.00  0.00     0.027 A 
HETATM   20  C   UNL     1      43.158 -14.079   4.494  1.00  0.00     0.056 C 
BRANCH  18  21
HETATM   21  C   UNL     1      44.077 -18.974   4.204  1.00  0.00     0.252 C 
HETATM   22  O   UNL     1      45.050 -19.267   4.890  1.00  0.00    -0.268 OA
HETATM   23  N   UNL     1      43.735 -19.611   3.027  1.00  0.00    -0.352 N 
HETATM   24  H   UNL     1      42.823 -19.446   2.620  1.00  0.00     0.163 HD
BRANCH  23  25
HETATM   25  C   UNL     1      44.507 -20.697   2.510  1.00  0.00     0.084 A 
HETATM   26  C   UNL     1      44.285 -22.099   3.005  1.00  0.00     0.027 A 
HETATM   27  C   UNL     1      43.872 -21.721   1.613  1.00  0.00     0.027 A 
ENDBRANCH  23  25
ENDBRANCH  18  21
ENDBRANCH   3  11
BRANCH   1  28
HETATM   28  S   UNL     1      37.957 -11.970   1.440  1.00  0.00    -0.108 SA
BRANCH  28  29
HETATM   29  C   UNL     1      38.536 -10.239   1.281  1.00  0.00     0.108 C 
BRANCH  29  30
HETATM   30  C   UNL     1      39.648 -10.150   0.233  1.00  0.00     0.244 C 
BRANCH  30  31
HETATM   31  N   UNL     1      41.022 -10.022   0.876  1.00  0.00    -0.078 N 
HETATM   32  C   UNL     1      42.129 -10.625   0.055  1.00  0.00     0.269 C 
HETATM   33  H   UNL     1      40.972 -10.567   1.751  1.00  0.00     0.279 HD
HETATM   34  C   UNL     1      41.328  -8.604   1.263  1.00  0.00     0.269 C 
ENDBRANCH  30  31
ENDBRANCH  29  30
ENDBRANCH  28  29
ENDBRANCH   1  28
BRANCH   8  35
HETATM   35  C   UNL     1      39.344 -15.199  -2.766  1.00  0.00     0.010 A 
HETATM   36  C   UNL     1      39.609 -16.204  -3.725  1.00  0.00     0.152 A 
HETATM   37  N   UNL     1      38.796 -16.140  -4.782  1.00  0.00    -0.187 NA
HETATM   38  N   UNL     1      37.994 -15.101  -4.500  1.00  0.00    -0.289 N 
HETATM   39  H   UNL     1      37.272 -14.852  -5.169  1.00  0.00     0.188 HD
HETATM   40  C   UNL     1      38.287 -14.499  -3.308  1.00  0.00     0.123 A 
ENDBRANCH   8  35
TORSDOF 8
ENDMDL
MODEL 7
REMARK VINA RESULT:      -8.8      2.754      6.332
REMARK  8 active torsions:
REMARK  status: ('A' for Active; 'I' for Inactive)
REMARK    1  A    between atoms: N_2  and  C_5 
REMARK    2  A    between atoms: C_5  and  C_6 
REMARK    3  A    between atoms: C_6  and  S_7 
REMARK    4  A    between atoms: S_7  and  C_8 
REMARK    5  A    between atoms: C_10  and  C_24 
REMARK    6  A    between atoms: C_15  and  C_18 
REMARK    7  A    between atoms: C_30  and  C_34 
REMARK       I    between atoms: C_34  and  N_36 
REMARK    8  A    between atoms: N_36  and  C_37 
ROOT
HETATM    1  C   UNL     1      41.584 -16.724   3.254  1.00  0.00     0.108 A 
HETATM    2  N   UNL     1      41.182 -15.544   3.763  1.00  0.00    -0.225 NA
HETATM    3  C   UNL     1      41.732 -15.159   4.921  1.00  0.00     0.134 A 
HETATM    4  N   UNL     1      42.695 -15.848   5.551  1.00  0.00    -0.232 NA
HETATM    5  C   UNL     1      43.075 -17.025   5.044  1.00  0.00     0.072 A 
HETATM    6  C   UNL     1      44.029 -17.764   5.728  1.00  0.00     0.033 A 
HETATM    7  C   UNL     1      44.454 -19.020   5.285  1.00  0.00     0.014 A 
HETATM    8  C   UNL     1      43.923 -19.569   4.118  1.00  0.00    -0.022 A 
HETATM    9  C   UNL     1      42.974 -18.826   3.409  1.00  0.00     0.029 A 
HETATM   10  C   UNL     1      42.537 -17.550   3.867  1.00  0.00     0.029 A 
ENDROOT
BRANCH   3  11
HETATM   11  C   UNL     1      41.248 -13.886   5.587  1.00  0.00     0.086 C 
HETATM   12  C   UNL     1      42.191 -12.691   5.415  1.00  0.00     0.188 C 
HETATM   13  O   UNL     1      42.321 -12.198   4.070  1.00  0.00    -0.350 OA
HETATM   14  C   UNL     1      41.178 -12.206   3.318  1.00  0.00     0.075 A 
HETATM   15  C   UNL     1      41.266 -11.595   2.066  1.00  0.00     0.038 A 
HETATM   16  C   UNL     1      39.989 -12.825   3.714  1.00  0.00    -0.023 A 
HETATM   17  C   UNL     1      40.170 -11.597   1.198  1.00  0.00     0.020 A 
HETATM   18  C   UNL     1      38.974 -12.209   1.590  1.00  0.00     0.032 A 
HETATM   19  C   UNL     1      38.889 -12.820   2.847  1.00  0.00     0.027 A 
HETATM   20  C   UNL     1      39.872 -13.474   5.065  1.00  0.00     0.056 C 
BRANCH  18  21
HETATM   21  C   UNL     1      37.795 -12.284   0.688  1.00  0.00     0.252 C 
HETATM   22  O   UNL     1      37.816 -13.044  -0.274  1.00  0.00    -0.268 OA
HETATM   23  N   UNL     1      36.720 -11.482   1.021  1.00  0.00    -0.352 N 
HETATM   24  H   UNL     1      36.700 -11.031   1.926  1.00  0.00     0.163 HD
BRANCH  23  25
HETATM   25  C   UNL     1      35.515 -11.485   0.252  1.00  0.00     0.084 A 
HETATM   26  C   UNL     1      34.296 -10.749   0.736  1.00  0.00     0.027 A 
HETATM   27  C   UNL     1      35.060 -10.236  -0.449  1.00  0.00     0.027 A 
ENDBRANCH  23  25
ENDBRANCH  18  21
ENDBRANCH   3  11
BRANCH   1  28
HETATM   28  S   UNL     1      40.721 -17.212   1.755  1.00  0.00    -0.108 SA
BRANCH  28  29
HETATM   29  C   UNL     1      41.801 -16.444   0.489  1.00  0.00     0.108 C 
BRANCH  29  30
HETATM   30  C   UNL     1      41.151 -15.168  -0.054  1.00  0.00     0.244 C 
BRANCH  30  31
HETATM   31  N   UNL     1      41.676 -14.811  -1.438  1.00  0.00    -0.078 N 
HETATM   32  C   UNL     1      40.786 -15.276  -2.558  1.00  0.00     0.269 C 
HETATM   33  H   UNL     1      42.568 -15.322  -1.537  1.00  0.00     0.279 HD
HETATM   34  C   UNL     1      41.997 -13.349  -1.554  1.00  0.00     0.269 C 
ENDBRANCH  30  31
ENDBRANCH  29  30
ENDBRANCH  28  29
ENDBRANCH   1  28
BRANCH   8  35
HETATM   35  C   UNL     1      44.332 -20.878   3.643  1.00  0.00     0.010 A 
HETATM   36  C   UNL     1      44.367 -21.420   2.337  1.00  0.00     0.152 A 
HETATM   37  N   UNL     1      44.773 -22.691   2.313  1.00  0.00    -0.187 NA
HETATM   38  N   UNL     1      45.015 -22.969   3.605  1.00  0.00    -0.289 N 
HETATM   39  H   UNL     1      45.346 -23.898   3.846  1.00  0.00     0.188 HD
HETATM   40  C   UNL     1      44.758 -21.919   4.441  1.00  0.00     0.123 A 
ENDBRANCH   8  35
TORSDOF 8
ENDMDL
MODEL 8
REMARK VINA RESULT:      -8.8      2.448      4.250
REMARK  8 active torsions:
REMARK  status: ('A' for Active; 'I' for Inactive)
REMARK    1  A    between atoms: N_2  and  C_5 
REMARK    2  A    between atoms: C_5  and  C_6 
REMARK    3  A    between atoms: C_6  and  S_7 
REMARK    4  A    between atoms: S_7  and  C_8 
REMARK    5  A    between atoms: C_10  and  C_24 
REMARK    6  A    between atoms: C_15  and  C_18 
REMARK    7  A    between atoms: C_30  and  C_34 
REMARK       I    between atoms: C_34  and  N_36 
REMARK    8  A    between atoms: N_36  and  C_37 
ROOT
HETATM    1  C   UNL     1      41.139 -14.409   3.974  1.00  0.00     0.108 A 
HETATM    2  N   UNL     1      40.770 -13.113   3.967  1.00  0.00    -0.225 NA
HETATM    3  C   UNL     1      41.371 -12.303   4.846  1.00  0.00     0.134 A 
HETATM    4  N   UNL     1      42.354 -12.698   5.670  1.00  0.00    -0.232 NA
HETATM    5  C   UNL     1      42.700 -13.990   5.678  1.00  0.00     0.072 A 
HETATM    6  C   UNL     1      43.674 -14.408   6.572  1.00  0.00     0.033 A 
HETATM    7  C   UNL     1      44.067 -15.747   6.669  1.00  0.00     0.014 A 
HETATM    8  C   UNL     1      43.483 -16.711   5.849  1.00  0.00    -0.022 A 
HETATM    9  C   UNL     1      42.512 -16.299   4.930  1.00  0.00     0.029 A 
HETATM   10  C   UNL     1      42.108 -14.936   4.838  1.00  0.00     0.029 A 
ENDROOT
BRANCH   3  11
HETATM   11  C   UNL     1      40.929 -10.857   4.948  1.00  0.00     0.086 C 
HETATM   12  C   UNL     1      39.441 -10.677   5.261  1.00  0.00     0.188 C 
HETATM   13  O   UNL     1      39.027 -11.124   6.564  1.00  0.00    -0.350 OA
HETATM   14  C   UNL     1      39.913 -10.895   7.582  1.00  0.00     0.075 A 
HETATM   15  C   UNL     1      39.456 -11.193   8.868  1.00  0.00     0.038 A 
HETATM   16  C   UNL     1      41.222 -10.446   7.390  1.00  0.00    -0.023 A 
HETATM   17  C   UNL     1      40.302 -11.047   9.971  1.00  0.00     0.020 A 
HETATM   18  C   UNL     1      41.612 -10.592   9.787  1.00  0.00     0.032 A 
HETATM   19  C   UNL     1      42.067 -10.292   8.497  1.00  0.00     0.027 A 
HETATM   20  C   UNL     1      41.725 -10.106   6.015  1.00  0.00     0.056 C 
BRANCH  18  21
HETATM   21  C   UNL     1      42.569 -10.465  10.919  1.00  0.00     0.252 C 
HETATM   22  O   UNL     1      43.743 -10.199  10.690  1.00  0.00    -0.268 OA
HETATM   23  N   UNL     1      42.044 -10.642  12.184  1.00  0.00    -0.352 N 
HETATM   24  H   UNL     1      41.040 -10.668  12.306  1.00  0.00     0.163 HD
BRANCH  23  25
HETATM   25  C   UNL     1      42.853 -10.516  13.356  1.00  0.00     0.084 A 
HETATM   26  C   UNL     1      43.142  -9.163  13.945  1.00  0.00     0.027 A 
HETATM   27  C   UNL     1      42.235 -10.116  14.666  1.00  0.00     0.027 A 
ENDBRANCH  23  25
ENDBRANCH  18  21
ENDBRANCH   3  11
BRANCH   1  28
HETATM   28  S   UNL     1      40.209 -15.444   2.836  1.00  0.00    -0.108 SA
BRANCH  28  29
HETATM   29  C   UNL     1      41.517 -15.857   1.622  1.00  0.00     0.108 C 
BRANCH  29  30
HETATM   30  C   UNL     1      41.597 -17.373   1.428  1.00  0.00     0.244 C 
BRANCH  30  31
HETATM   31  N   UNL     1      42.887 -17.949   1.997  1.00  0.00    -0.078 N 
HETATM   32  C   UNL     1      42.982 -19.446   1.877  1.00  0.00     0.269 C 
HETATM   33  H   UNL     1      42.866 -17.734   3.007  1.00  0.00     0.279 HD
HETATM   34  C   UNL     1      44.100 -17.269   1.432  1.00  0.00     0.269 C 
ENDBRANCH  30  31
ENDBRANCH  29  30
ENDBRANCH  28  29
ENDBRANCH   1  28
BRANCH   8  35
HETATM   35  C   UNL     1      43.858 -18.110   5.939  1.00  0.00     0.010 A 
HETATM   36  C   UNL     1      44.608 -18.926   5.060  1.00  0.00     0.152 A 
HETATM   37  N   UNL     1      44.705 -20.189   5.480  1.00  0.00    -0.187 NA
HETATM   38  N   UNL     1      44.028 -20.188   6.640  1.00  0.00    -0.289 N 
HETATM   39  H   UNL     1      43.963 -21.056   7.163  1.00  0.00     0.188 HD
HETATM   40  C   UNL     1      43.496 -18.969   6.954  1.00  0.00     0.123 A 
ENDBRANCH   8  35
TORSDOF 8
ENDMDL
MODEL 9
REMARK VINA RESULT:      -8.8      2.786      6.004
REMARK  8 active torsions:
REMARK  status: ('A' for Active; 'I' for Inactive)
REMARK    1  A    between atoms: N_2  and  C_5 
REMARK    2  A    between atoms: C_5  and  C_6 
REMARK    3  A    between atoms: C_6  and  S_7 
REMARK    4  A    between atoms: S_7  and  C_8 
REMARK    5  A    between atoms: C_10  and  C_24 
REMARK    6  A    between atoms: C_15  and  C_18 
REMARK    7  A    between atoms: C_30  and  C_34 
REMARK       I    between atoms: C_34  and  N_36 
REMARK    8  A    between atoms: N_36  and  C_37 
ROOT
HETATM    1  C   UNL     1      41.557 -16.334   5.091  1.00  0.00     0.108 A 
HETATM    2  N   UNL     1      40.881 -15.169   5.120  1.00  0.00    -0.225 NA
HETATM    3  C   UNL     1      40.440 -14.691   3.950  1.00  0.00     0.134 A 
HETATM    4  N   UNL     1      40.577 -15.338   2.783  1.00  0.00    -0.232 NA
HETATM    5  C   UNL     1      41.262 -16.486   2.766  1.00  0.00     0.072 A 
HETATM    6  C   UNL     1      41.454 -17.123   1.549  1.00  0.00     0.033 A 
HETATM    7  C   UNL     1      42.190 -18.308   1.439  1.00  0.00     0.014 A 
HETATM    8  C   UNL     1      42.755 -18.891   2.573  1.00  0.00    -0.022 A 
HETATM    9  C   UNL     1      42.553 -18.267   3.809  1.00  0.00     0.029 A 
HETATM   10  C   UNL     1      41.810 -17.056   3.917  1.00  0.00     0.029 A 
ENDROOT
BRANCH   3  11
HETATM   11  C   UNL     1      39.756 -13.339   3.911  1.00  0.00     0.086 C 
HETATM   12  C   UNL     1      40.701 -12.151   4.119  1.00  0.00     0.188 C 
HETATM   13  O   UNL     1      41.665 -11.940   3.072  1.00  0.00    -0.350 OA
HETATM   14  C   UNL     1      41.222 -12.170   1.798  1.00  0.00     0.075 A 
HETATM   15  C   UNL     1      42.105 -11.827   0.772  1.00  0.00     0.038 A 
HETATM   16  C   UNL     1      39.993 -12.763   1.496  1.00  0.00    -0.023 A 
HETATM   17  C   UNL     1      41.770 -12.073  -0.562  1.00  0.00     0.020 A 
HETATM   18  C   UNL     1      40.539 -12.660  -0.874  1.00  0.00     0.032 A 
HETATM   19  C   UNL     1      39.655 -13.002   0.157  1.00  0.00     0.027 A 
HETATM   20  C   UNL     1      39.024 -13.125   2.586  1.00  0.00     0.056 C 
BRANCH  18  21
HETATM   21  C   UNL     1      40.153 -12.988  -2.271  1.00  0.00     0.252 C 
HETATM   22  O   UNL     1      40.571 -12.295  -3.192  1.00  0.00    -0.268 OA
HETATM   23  N   UNL     1      39.343 -14.095  -2.437  1.00  0.00    -0.352 N 
HETATM   24  H   UNL     1      39.197 -14.724  -1.658  1.00  0.00     0.163 HD
BRANCH  23  25
HETATM   25  C   UNL     1      38.927 -14.533  -3.732  1.00  0.00     0.084 A 
HETATM   26  C   UNL     1      39.008 -15.986  -4.113  1.00  0.00     0.027 A 
HETATM   27  C   UNL     1      37.671 -15.343  -3.893  1.00  0.00     0.027 A 
ENDBRANCH  23  25
ENDBRANCH  18  21
ENDBRANCH   3  11
BRANCH   1  28
HETATM   28  S   UNL     1      42.202 -16.850   6.687  1.00  0.00    -0.108 SA
BRANCH  28  29
HETATM   29  C   UNL     1      43.991 -16.548   6.434  1.00  0.00     0.108 C 
BRANCH  29  30
HETATM   30  C   UNL     1      44.784 -17.832   6.695  1.00  0.00     0.244 C 
BRANCH  30  31
HETATM   31  N   UNL     1      43.961 -18.860   7.458  1.00  0.00    -0.078 N 
HETATM   32  C   UNL     1      43.867 -20.191   6.764  1.00  0.00     0.269 C 
HETATM   33  H   UNL     1      43.002 -18.478   7.494  1.00  0.00     0.279 HD
HETATM   34  C   UNL     1      44.424 -19.006   8.879  1.00  0.00     0.269 C 
ENDBRANCH  30  31
ENDBRANCH  29  30
ENDBRANCH  28  29
ENDBRANCH   1  28
BRANCH   8  35
HETATM   35  C   UNL     1      43.538 -20.110   2.488  1.00  0.00     0.010 A 
HETATM   36  C   UNL     1      43.315 -21.305   1.766  1.00  0.00     0.152 A 
HETATM   37  N   UNL     1      44.258 -22.225   1.980  1.00  0.00    -0.187 NA
HETATM   38  N   UNL     1      45.101 -21.618   2.832  1.00  0.00    -0.289 N 
HETATM   39  H   UNL     1      45.920 -22.129   3.147  1.00  0.00     0.188 HD
HETATM   40  C   UNL     1      44.710 -20.354   3.172  1.00  0.00     0.123 A 
ENDBRANCH   8  35
TORSDOF 8
ENDMDL
MODEL 10
REMARK VINA RESULT:      -8.7      2.608      4.875
REMARK  8 active torsions:
REMARK  status: ('A' for Active; 'I' for Inactive)
REMARK    1  A    between atoms: N_2  and  C_5 
REMARK    2  A    between atoms: C_5  and  C_6 
REMARK    3  A    between atoms: C_6  and  S_7 
REMARK    4  A    between atoms: S_7  and  C_8 
REMARK    5  A    between atoms: C_10  and  C_24 
REMARK    6  A    between atoms: C_15  and  C_18 
REMARK    7  A    between atoms: C_30  and  C_34 
REMARK       I    between atoms: C_34  and  N_36 
REMARK    8  A    between atoms: N_36  and  C_37 
ROOT
HETATM    1  C   UNL     1      40.890 -14.359   3.691  1.00  0.00     0.108 A 
HETATM    2  N   UNL     1      40.519 -13.064   3.714  1.00  0.00    -0.225 NA
HETATM    3  C   UNL     1      41.133 -12.269   4.598  1.00  0.00     0.134 A 
HETATM    4  N   UNL     1      42.129 -12.677   5.398  1.00  0.00    -0.232 NA
HETATM    5  C   UNL     1      42.478 -13.967   5.376  1.00  0.00     0.072 A 
HETATM    6  C   UNL     1      43.468 -14.399   6.246  1.00  0.00     0.033 A 
HETATM    7  C   UNL     1      43.866 -15.738   6.312  1.00  0.00     0.014 A 
HETATM    8  C   UNL     1      43.271 -16.689   5.484  1.00  0.00    -0.022 A 
HETATM    9  C   UNL     1      42.284 -16.262   4.589  1.00  0.00     0.029 A 
HETATM   10  C   UNL     1      41.875 -14.899   4.529  1.00  0.00     0.029 A 
ENDROOT
BRANCH   3  11
HETATM   11  C   UNL     1      40.689 -10.826   4.733  1.00  0.00     0.086 C 
HETATM   12  C   UNL     1      39.218 -10.656   5.126  1.00  0.00     0.188 C 
HETATM   13  O   UNL     1      38.876 -11.115   6.446  1.00  0.00    -0.350 OA
HETATM   14  C   UNL     1      39.813 -10.889   7.417  1.00  0.00     0.075 A 
HETATM   15  C   UNL     1      39.427 -11.198   8.723  1.00  0.00     0.038 A 
HETATM   16  C   UNL     1      41.108 -10.431   7.159  1.00  0.00    -0.023 A 
HETATM   17  C   UNL     1      40.329 -11.056   9.781  1.00  0.00     0.020 A 
HETATM   18  C   UNL     1      41.625 -10.592   9.532  1.00  0.00     0.032 A 
HETATM   19  C   UNL     1      42.009 -10.280   8.222  1.00  0.00     0.027 A 
HETATM   20  C   UNL     1      41.536 -10.078   5.762  1.00  0.00     0.056 C 
BRANCH  18  21
HETATM   21  C   UNL     1      42.639 -10.467  10.612  1.00  0.00     0.252 C 
HETATM   22  O   UNL     1      43.829 -10.407  10.320  1.00  0.00    -0.268 OA
HETATM   23  N   UNL     1      42.151 -10.407  11.903  1.00  0.00    -0.352 N 
HETATM   24  H   UNL     1      41.161 -10.270  12.053  1.00  0.00     0.163 HD
BRANCH  23  25
HETATM   25  C   UNL     1      43.021 -10.257  13.027  1.00  0.00     0.084 A 
HETATM   26  C   UNL     1      43.047  -8.973  13.810  1.00  0.00     0.027 A 
HETATM   27  C   UNL     1      42.460 -10.211  14.420  1.00  0.00     0.027 A 
ENDBRANCH  23  25
ENDBRANCH  18  21
ENDBRANCH   3  11
BRANCH   1  28
HETATM   28  S   UNL     1      39.944 -15.376   2.550  1.00  0.00    -0.108 SA
BRANCH  28  29
HETATM   29  C   UNL     1      40.355 -14.561   0.962  1.00  0.00     0.108 C 
BRANCH  29  30
HETATM   30  C   UNL     1      41.487 -15.316   0.260  1.00  0.00     0.244 C 
BRANCH  30  31
HETATM   31  N   UNL     1      41.774 -14.746  -1.123  1.00  0.00    -0.078 N 
HETATM   32  C   UNL     1      40.882 -15.301  -2.199  1.00  0.00     0.269 C 
HETATM   33  H   UNL     1      42.736 -15.045  -1.353  1.00  0.00     0.279 HD
HETATM   34  C   UNL     1      41.774 -13.245  -1.121  1.00  0.00     0.269 C 
ENDBRANCH  30  31
ENDBRANCH  29  30
ENDBRANCH  28  29
ENDBRANCH   1  28
BRANCH   8  35
HETATM   35  C   UNL     1      43.651 -18.089   5.542  1.00  0.00     0.010 A 
HETATM   36  C   UNL     1      43.516 -19.042   6.577  1.00  0.00     0.152 A 
HETATM   37  N   UNL     1      44.030 -20.232   6.257  1.00  0.00    -0.187 NA
HETATM   38  N   UNL     1      44.487 -20.051   5.007  1.00  0.00    -0.289 N 
HETATM   39  H   UNL     1      44.929 -20.835   4.536  1.00  0.00     0.188 HD
HETATM   40  C   UNL     1      44.291 -18.783   4.537  1.00  0.00     0.123 A 
ENDBRANCH   8  35
TORSDOF 8
ENDMDL
