MODEL 1
REMARK VINA RESULT:      -9.2      0.000      0.000
REMARK  7 active torsions:
REMARK  status: ('A' for Active; 'I' for Inactive)
REMARK    1  A    between atoms: C_2  and  N_3 
REMARK    2  A    between atoms: C_2  and  C_25 
REMARK       I    between atoms: N_3  and  C_4 
REMARK    3  A    between atoms: C_4  and  C_5 
REMARK    4  A    between atoms: C_8  and  C_9 
REMARK       I    between atoms: C_9  and  N_10 
REMARK    5  A    between atoms: N_10  and  C_11 
REMARK    6  A    between atoms: N_19  and  C_20 
REMARK    7  A    between atoms: C_33  and  O_34 
ROOT
HETATM    1  C   UNL     1      41.060 -13.140   3.928  1.00  0.00     0.098 A 
HETATM    2  C   UNL     1      41.802 -13.022   2.634  1.00  0.00     0.206 A 
HETATM    3  O   UNL     1      42.889 -13.583   2.478  1.00  0.00    -0.286 OA
HETATM    4  C   UNL     1      41.191 -12.225   1.529  1.00  0.00     0.098 A 
HETATM    5  C   UNL     1      40.049 -11.575   1.812  1.00  0.00     0.112 A 
HETATM    6  N   UNL     1      39.428 -11.612   3.045  1.00  0.00    -0.360 N 
HETATM    7  C   UNL     1      39.922 -12.434   4.038  1.00  0.00     0.112 A 
ENDROOT
BRANCH   1   8
HETATM    8  C   UNL     1      41.495 -13.986   5.075  1.00  0.00     0.257 C 
HETATM    9  N   UNL     1      42.849 -14.094   5.233  1.00  0.00    -0.348 N 
HETATM   10  H   UNL     1      43.457 -13.616   4.569  1.00  0.00     0.163 HD
HETATM   11  O   UNL     1      40.686 -14.542   5.813  1.00  0.00    -0.267 OA
BRANCH   9  12
HETATM   12  C   UNL     1      43.482 -14.893   6.267  1.00  0.00     0.114 C 
HETATM   13  C   UNL     1      44.756 -14.227   6.794  1.00  0.00     0.037 C 
BRANCH  12  14
HETATM   14  C   UNL     1      43.747 -16.286   5.720  1.00  0.00    -0.035 A 
HETATM   15  C   UNL     1      43.345 -16.616   4.416  1.00  0.00     0.021 A 
HETATM   16  C   UNL     1      43.629 -17.877   3.860  1.00  0.00    -0.025 A 
HETATM   17  C   UNL     1      44.335 -18.829   4.625  1.00  0.00    -0.023 A 
HETATM   18  C   UNL     1      43.235 -18.210   2.555  1.00  0.00     0.015 A 
HETATM   19  C   UNL     1      44.735 -18.500   5.928  1.00  0.00     0.013 A 
HETATM   20  C   UNL     1      44.629 -20.082   4.064  1.00  0.00     0.049 A 
HETATM   21  C   UNL     1      44.447 -17.244   6.468  1.00  0.00     0.010 A 
HETATM   22  C   UNL     1      44.237 -20.404   2.762  1.00  0.00     0.069 A 
HETATM   23  C   UNL     1      43.536 -19.464   2.009  1.00  0.00     0.037 A 
BRANCH  22  24
HETATM   24  O   UNL     1      44.599 -21.657   2.349  1.00  0.00    -0.356 OA
HETATM   25  C   UNL     1      44.632 -22.675   3.341  1.00  0.00     0.210 C 
ENDBRANCH  22  24
ENDBRANCH  12  14
ENDBRANCH   9  12
ENDBRANCH   1   8
BRANCH   4  26
HETATM   26  C   UNL     1      41.747 -12.132   0.149  1.00  0.00     0.257 C 
HETATM   27  N   UNL     1      40.923 -12.605  -0.841  1.00  0.00    -0.352 N 
HETATM   28  H   UNL     1      40.077 -13.100  -0.560  1.00  0.00     0.163 HD
HETATM   29  O   UNL     1      42.853 -11.647  -0.068  1.00  0.00    -0.267 OA
BRANCH  27  30
HETATM   30  C   UNL     1      41.312 -12.662  -2.244  1.00  0.00     0.084 C 
HETATM   31  C   UNL     1      41.967 -14.009  -2.581  1.00  0.00     0.025 C 
HETATM   32  C   UNL     1      40.963 -15.161  -2.594  1.00  0.00     0.002 C 
HETATM   33  C   UNL     1      39.785 -14.872  -3.520  1.00  0.00     0.000 C 
HETATM   34  C   UNL     1      39.104 -13.552  -3.174  1.00  0.00     0.002 C 
HETATM   35  C   UNL     1      40.100 -12.392  -3.148  1.00  0.00     0.025 C 
ENDBRANCH  27  30
ENDBRANCH   4  26
BRANCH   6  36
HETATM   36  C   UNL     1      38.101 -11.002   3.199  1.00  0.00     0.089 A 
HETATM   37  C   UNL     1      37.917  -9.607   3.740  1.00  0.00     0.028 A 
HETATM   38  C   UNL     1      37.641  -9.887   2.294  1.00  0.00     0.028 A 
ENDBRANCH   6  36
TORSDOF 7
ENDMDL
MODEL 2
REMARK VINA RESULT:      -9.2      1.450      1.892
REMARK  7 active torsions:
REMARK  status: ('A' for Active; 'I' for Inactive)
REMARK    1  A    between atoms: C_2  and  N_3 
REMARK    2  A    between atoms: C_2  and  C_25 
REMARK       I    between atoms: N_3  and  C_4 
REMARK    3  A    between atoms: C_4  and  C_5 
REMARK    4  A    between atoms: C_8  and  C_9 
REMARK       I    between atoms: C_9  and  N_10 
REMARK    5  A    between atoms: N_10  and  C_11 
REMARK    6  A    between atoms: N_19  and  C_20 
REMARK    7  A    between atoms: C_33  and  O_34 
ROOT
HETATM    1  C   UNL     1      40.215 -13.699   4.269  1.00  0.00     0.098 A 
HETATM    2  C   UNL     1      40.006 -14.214   2.881  1.00  0.00     0.206 A 
HETATM    3  O   UNL     1      40.539 -15.262   2.509  1.00  0.00    -0.286 OA
HETATM    4  C   UNL     1      39.123 -13.441   1.956  1.00  0.00     0.098 A 
HETATM    5  C   UNL     1      38.654 -12.266   2.410  1.00  0.00     0.112 A 
HETATM    6  N   UNL     1      38.940 -11.755   3.661  1.00  0.00    -0.360 N 
HETATM    7  C   UNL     1      39.660 -12.511   4.563  1.00  0.00     0.112 A 
ENDROOT
BRANCH   1   8
HETATM    8  C   UNL     1      40.980 -14.417   5.328  1.00  0.00     0.257 C 
HETATM    9  N   UNL     1      42.340 -14.293   5.245  1.00  0.00    -0.348 N 
HETATM   10  H   UNL     1      42.732 -13.745   4.480  1.00  0.00     0.163 HD
HETATM   11  O   UNL     1      40.418 -15.073   6.201  1.00  0.00    -0.267 OA
BRANCH   9  12
HETATM   12  C   UNL     1      43.269 -14.936   6.156  1.00  0.00     0.114 C 
HETATM   13  C   UNL     1      44.528 -14.091   6.367  1.00  0.00     0.037 C 
BRANCH  12  14
HETATM   14  C   UNL     1      43.590 -16.325   5.631  1.00  0.00    -0.035 A 
HETATM   15  C   UNL     1      43.214 -16.688   4.328  1.00  0.00     0.021 A 
HETATM   16  C   UNL     1      43.550 -17.945   3.793  1.00  0.00    -0.025 A 
HETATM   17  C   UNL     1      44.284 -18.859   4.578  1.00  0.00    -0.023 A 
HETATM   18  C   UNL     1      43.181 -18.312   2.490  1.00  0.00     0.015 A 
HETATM   19  C   UNL     1      44.659 -18.497   5.880  1.00  0.00     0.013 A 
HETATM   20  C   UNL     1      44.630 -20.108   4.038  1.00  0.00     0.049 A 
HETATM   21  C   UNL     1      44.319 -17.246   6.399  1.00  0.00     0.010 A 
HETATM   22  C   UNL     1      44.263 -20.463   2.737  1.00  0.00     0.069 A 
HETATM   23  C   UNL     1      43.534 -19.561   1.965  1.00  0.00     0.037 A 
BRANCH  22  24
HETATM   24  O   UNL     1      44.675 -21.707   2.346  1.00  0.00    -0.356 OA
HETATM   25  C   UNL     1      44.661 -22.729   3.334  1.00  0.00     0.210 C 
ENDBRANCH  22  24
ENDBRANCH  12  14
ENDBRANCH   9  12
ENDBRANCH   1   8
BRANCH   4  26
HETATM   26  C   UNL     1      38.718 -13.899   0.597  1.00  0.00     0.257 C 
HETATM   27  N   UNL     1      39.726 -13.917  -0.333  1.00  0.00    -0.352 N 
HETATM   28  H   UNL     1      40.618 -13.496  -0.076  1.00  0.00     0.163 HD
HETATM   29  O   UNL     1      37.567 -14.250   0.352  1.00  0.00    -0.267 OA
BRANCH  27  30
HETATM   30  C   UNL     1      39.517 -14.269  -1.732  1.00  0.00     0.084 C 
HETATM   31  C   UNL     1      39.017 -13.061  -2.536  1.00  0.00     0.025 C 
HETATM   32  C   UNL     1      40.104 -12.007  -2.745  1.00  0.00     0.002 C 
HETATM   33  C   UNL     1      41.359 -12.609  -3.372  1.00  0.00     0.000 C 
HETATM   34  C   UNL     1      41.885 -13.790  -2.563  1.00  0.00     0.002 C 
HETATM   35  C   UNL     1      40.804 -14.847  -2.338  1.00  0.00     0.025 C 
ENDBRANCH  27  30
ENDBRANCH   4  26
BRANCH   6  36
HETATM   36  C   UNL     1      38.243 -10.545   4.118  1.00  0.00     0.089 A 
HETATM   37  C   UNL     1      38.838  -9.169   3.960  1.00  0.00     0.028 A 
HETATM   38  C   UNL     1      37.649  -9.566   3.138  1.00  0.00     0.028 A 
ENDBRANCH   6  36
TORSDOF 7
ENDMDL
MODEL 3
REMARK VINA RESULT:      -8.9      1.761      2.554
REMARK  7 active torsions:
REMARK  status: ('A' for Active; 'I' for Inactive)
REMARK    1  A    between atoms: C_2  and  N_3 
REMARK    2  A    between atoms: C_2  and  C_25 
REMARK       I    between atoms: N_3  and  C_4 
REMARK    3  A    between atoms: C_4  and  C_5 
REMARK    4  A    between atoms: C_8  and  C_9 
REMARK       I    between atoms: C_9  and  N_10 
REMARK    5  A    between atoms: N_10  and  C_11 
REMARK    6  A    between atoms: N_19  and  C_20 
REMARK    7  A    between atoms: C_33  and  O_34 
ROOT
HETATM    1  C   UNL     1      41.244 -13.057   4.000  1.00  0.00     0.098 A 
HETATM    2  C   UNL     1      42.044 -12.905   2.745  1.00  0.00     0.206 A 
HETATM    3  O   UNL     1      43.149 -13.439   2.633  1.00  0.00    -0.286 OA
HETATM    4  C   UNL     1      41.468 -12.106   1.622  1.00  0.00     0.098 A 
HETATM    5  C   UNL     1      40.299 -11.485   1.860  1.00  0.00     0.112 A 
HETATM    6  N   UNL     1      39.622 -11.553   3.061  1.00  0.00    -0.360 N 
HETATM    7  C   UNL     1      40.086 -12.378   4.066  1.00  0.00     0.112 A 
ENDROOT
BRANCH   1   8
HETATM    8  C   UNL     1      41.644 -13.909   5.156  1.00  0.00     0.257 C 
HETATM    9  N   UNL     1      42.993 -14.034   5.344  1.00  0.00    -0.348 N 
HETATM   10  H   UNL     1      43.621 -13.562   4.694  1.00  0.00     0.163 HD
HETATM   11  O   UNL     1      40.813 -14.456   5.875  1.00  0.00    -0.267 OA
BRANCH   9  12
HETATM   12  C   UNL     1      43.593 -14.841   6.391  1.00  0.00     0.114 C 
HETATM   13  C   UNL     1      44.879 -14.204   6.927  1.00  0.00     0.037 C 
BRANCH  12  14
HETATM   14  C   UNL     1      43.828 -16.244   5.857  1.00  0.00    -0.035 A 
HETATM   15  C   UNL     1      43.450 -16.568   4.544  1.00  0.00     0.021 A 
HETATM   16  C   UNL     1      43.708 -17.840   4.001  1.00  0.00    -0.025 A 
HETATM   17  C   UNL     1      44.363 -18.810   4.788  1.00  0.00    -0.023 A 
HETATM   18  C   UNL     1      43.337 -18.167   2.687  1.00  0.00     0.015 A 
HETATM   19  C   UNL     1      44.739 -18.487   6.100  1.00  0.00     0.013 A 
HETATM   20  C   UNL     1      44.632 -20.074   4.241  1.00  0.00     0.049 A 
HETATM   21  C   UNL     1      44.477 -17.220   6.627  1.00  0.00     0.010 A 
HETATM   22  C   UNL     1      44.264 -20.390   2.930  1.00  0.00     0.069 A 
HETATM   23  C   UNL     1      43.613 -19.433   2.155  1.00  0.00     0.037 A 
BRANCH  22  24
HETATM   24  O   UNL     1      44.597 -21.657   2.532  1.00  0.00    -0.356 OA
HETATM   25  C   UNL     1      44.661 -22.652   3.545  1.00  0.00     0.210 C 
ENDBRANCH  22  24
ENDBRANCH  12  14
ENDBRANCH   9  12
ENDBRANCH   1   8
BRANCH   4  26
HETATM   26  C   UNL     1      42.086 -11.981   0.272  1.00  0.00     0.257 C 
HETATM   27  N   UNL     1      42.635 -10.754  -0.002  1.00  0.00    -0.352 N 
HETATM   28  H   UNL     1      42.463  -9.997   0.659  1.00  0.00     0.163 HD
HETATM   29  O   UNL     1      42.110 -12.922  -0.515  1.00  0.00    -0.267 OA
BRANCH  27  30
HETATM   30  C   UNL     1      43.226 -10.413  -1.290  1.00  0.00     0.084 C 
HETATM   31  C   UNL     1      42.149  -9.972  -2.291  1.00  0.00     0.025 C 
HETATM   32  C   UNL     1      41.566  -8.599  -1.958  1.00  0.00     0.002 C 
HETATM   33  C   UNL     1      42.658  -7.542  -1.818  1.00  0.00     0.000 C 
HETATM   34  C   UNL     1      43.717  -7.954  -0.800  1.00  0.00     0.002 C 
HETATM   35  C   UNL     1      44.301  -9.331  -1.117  1.00  0.00     0.025 C 
ENDBRANCH  27  30
ENDBRANCH   4  26
BRANCH   6  36
HETATM   36  C   UNL     1      38.275 -10.975   3.160  1.00  0.00     0.089 A 
HETATM   37  C   UNL     1      38.019  -9.646   3.824  1.00  0.00     0.028 A 
HETATM   38  C   UNL     1      37.875  -9.777   2.338  1.00  0.00     0.028 A 
ENDBRANCH   6  36
TORSDOF 7
ENDMDL
MODEL 4
REMARK VINA RESULT:      -8.9      3.293      9.565
REMARK  7 active torsions:
REMARK  status: ('A' for Active; 'I' for Inactive)
REMARK    1  A    between atoms: C_2  and  N_3 
REMARK    2  A    between atoms: C_2  and  C_25 
REMARK       I    between atoms: N_3  and  C_4 
REMARK    3  A    between atoms: C_4  and  C_5 
REMARK    4  A    between atoms: C_8  and  C_9 
REMARK       I    between atoms: C_9  and  N_10 
REMARK    5  A    between atoms: N_10  and  C_11 
REMARK    6  A    between atoms: N_19  and  C_20 
REMARK    7  A    between atoms: C_33  and  O_34 
ROOT
HETATM    1  C   UNL     1      42.292 -15.501   5.102  1.00  0.00     0.098 A 
HETATM    2  C   UNL     1      43.140 -14.372   5.595  1.00  0.00     0.206 A 
HETATM    3  O   UNL     1      43.157 -13.290   5.004  1.00  0.00    -0.286 OA
HETATM    4  C   UNL     1      43.953 -14.575   6.832  1.00  0.00     0.098 A 
HETATM    5  C   UNL     1      43.947 -15.810   7.363  1.00  0.00     0.112 A 
HETATM    6  N   UNL     1      43.237 -16.870   6.836  1.00  0.00    -0.360 N 
HETATM    7  C   UNL     1      42.394 -16.667   5.762  1.00  0.00     0.112 A 
ENDROOT
BRANCH   1   8
HETATM    8  C   UNL     1      41.353 -15.407   3.949  1.00  0.00     0.257 C 
HETATM    9  N   UNL     1      41.904 -15.685   2.728  1.00  0.00    -0.348 N 
HETATM   10  H   UNL     1      42.896 -15.918   2.684  1.00  0.00     0.163 HD
HETATM   11  O   UNL     1      40.174 -15.098   4.098  1.00  0.00    -0.267 OA
BRANCH   9  12
HETATM   12  C   UNL     1      41.173 -15.622   1.476  1.00  0.00     0.114 C 
HETATM   13  C   UNL     1      41.381 -16.886   0.636  1.00  0.00     0.037 C 
BRANCH  12  14
HETATM   14  C   UNL     1      41.582 -14.363   0.730  1.00  0.00    -0.035 A 
HETATM   15  C   UNL     1      41.674 -14.376  -0.671  1.00  0.00     0.021 A 
HETATM   16  C   UNL     1      41.992 -13.211  -1.393  1.00  0.00    -0.025 A 
HETATM   17  C   UNL     1      42.219 -12.005  -0.698  1.00  0.00    -0.023 A 
HETATM   18  C   UNL     1      42.080 -13.216  -2.794  1.00  0.00     0.015 A 
HETATM   19  C   UNL     1      42.129 -11.993   0.701  1.00  0.00     0.013 A 
HETATM   20  C   UNL     1      42.524 -10.840  -1.422  1.00  0.00     0.049 A 
HETATM   21  C   UNL     1      41.813 -13.155   1.406  1.00  0.00     0.010 A 
HETATM   22  C   UNL     1      42.604 -10.853  -2.817  1.00  0.00     0.069 A 
HETATM   23  C   UNL     1      42.384 -12.046  -3.501  1.00  0.00     0.037 A 
BRANCH  22  24
HETATM   24  O   UNL     1      42.902  -9.644  -3.384  1.00  0.00    -0.356 OA
HETATM   25  C   UNL     1      42.043  -8.557  -3.067  1.00  0.00     0.210 C 
ENDBRANCH  22  24
ENDBRANCH  12  14
ENDBRANCH   9  12
ENDBRANCH   1   8
BRANCH   4  26
HETATM   26  C   UNL     1      44.735 -13.505   7.512  1.00  0.00     0.257 C 
HETATM   27  N   UNL     1      44.047 -12.804   8.471  1.00  0.00    -0.352 N 
HETATM   28  H   UNL     1      43.043 -12.965   8.549  1.00  0.00     0.163 HD
HETATM   29  O   UNL     1      45.912 -13.292   7.236  1.00  0.00    -0.267 OA
BRANCH  27  30
HETATM   30  C   UNL     1      44.615 -11.678   9.200  1.00  0.00     0.084 C 
HETATM   31  C   UNL     1      43.542 -10.626   9.512  1.00  0.00     0.025 C 
HETATM   32  C   UNL     1      42.558 -11.094  10.584  1.00  0.00     0.002 C 
HETATM   33  C   UNL     1      43.277 -11.545  11.852  1.00  0.00     0.000 C 
HETATM   34  C   UNL     1      44.324 -12.615  11.559  1.00  0.00     0.002 C 
HETATM   35  C   UNL     1      45.309 -12.162  10.481  1.00  0.00     0.025 C 
ENDBRANCH  27  30
ENDBRANCH   4  26
BRANCH   6  36
HETATM   36  C   UNL     1      43.166 -18.131   7.587  1.00  0.00     0.089 A 
HETATM   37  C   UNL     1      43.949 -19.353   7.179  1.00  0.00     0.028 A 
HETATM   38  C   UNL     1      44.324 -18.609   8.425  1.00  0.00     0.028 A 
ENDBRANCH   6  36
TORSDOF 7
ENDMDL
MODEL 5
REMARK VINA RESULT:      -8.8      4.765      9.103
REMARK  7 active torsions:
REMARK  status: ('A' for Active; 'I' for Inactive)
REMARK    1  A    between atoms: C_2  and  N_3 
REMARK    2  A    between atoms: C_2  and  C_25 
REMARK       I    between atoms: N_3  and  C_4 
REMARK    3  A    between atoms: C_4  and  C_5 
REMARK    4  A    between atoms: C_8  and  C_9 
REMARK       I    between atoms: C_9  and  N_10 
REMARK    5  A    between atoms: N_10  and  C_11 
REMARK    6  A    between atoms: N_19  and  C_20 
REMARK    7  A    between atoms: C_33  and  O_34 
ROOT
HETATM    1  C   UNL     1      44.159 -14.262   7.042  1.00  0.00     0.098 A 
HETATM    2  C   UNL     1      42.874 -14.065   6.303  1.00  0.00     0.206 A 
HETATM    3  O   UNL     1      42.305 -12.971   6.307  1.00  0.00    -0.286 OA
HETATM    4  C   UNL     1      42.301 -15.217   5.544  1.00  0.00     0.098 A 
HETATM    5  C   UNL     1      42.936 -16.396   5.665  1.00  0.00     0.112 A 
HETATM    6  N   UNL     1      44.067 -16.586   6.435  1.00  0.00    -0.360 N 
HETATM    7  C   UNL     1      44.669 -15.506   7.048  1.00  0.00     0.112 A 
ENDROOT
BRANCH   1   8
HETATM    8  C   UNL     1      44.898 -13.179   7.751  1.00  0.00     0.257 C 
HETATM    9  N   UNL     1      44.192 -12.544   8.735  1.00  0.00    -0.348 N 
HETATM   10  H   UNL     1      43.230 -12.835   8.908  1.00  0.00     0.163 HD
HETATM   11  O   UNL     1      46.054 -12.886   7.458  1.00  0.00    -0.267 OA
BRANCH   9  12
HETATM   12  C   UNL     1      44.714 -11.443   9.524  1.00  0.00     0.114 C 
HETATM   13  C   UNL     1      45.771 -11.917  10.525  1.00  0.00     0.037 C 
BRANCH  12  14
HETATM   14  C   UNL     1      43.556 -10.735  10.205  1.00  0.00    -0.035 A 
HETATM   15  C   UNL     1      42.286 -10.727   9.606  1.00  0.00     0.021 A 
HETATM   16  C   UNL     1      41.181 -10.131  10.241  1.00  0.00    -0.025 A 
HETATM   17  C   UNL     1      41.348  -9.532  11.507  1.00  0.00    -0.023 A 
HETATM   18  C   UNL     1      39.908 -10.125   9.648  1.00  0.00     0.015 A 
HETATM   19  C   UNL     1      42.617  -9.538  12.105  1.00  0.00     0.013 A 
HETATM   20  C   UNL     1      40.241  -8.949  12.144  1.00  0.00     0.049 A 
HETATM   21  C   UNL     1      43.705 -10.133  11.464  1.00  0.00     0.010 A 
HETATM   22  C   UNL     1      38.976  -8.953  11.550  1.00  0.00     0.069 A 
HETATM   23  C   UNL     1      38.814  -9.541  10.298  1.00  0.00     0.037 A 
BRANCH  22  24
HETATM   24  O   UNL     1      37.995  -8.355  12.292  1.00  0.00    -0.356 OA
HETATM   25  C   UNL     1      38.416  -7.493  13.340  1.00  0.00     0.210 C 
ENDBRANCH  22  24
ENDBRANCH  12  14
ENDBRANCH   9  12
ENDBRANCH   1   8
BRANCH   4  26
HETATM   26  C   UNL     1      41.107 -15.133   4.657  1.00  0.00     0.257 C 
HETATM   27  N   UNL     1      41.246 -15.746   3.437  1.00  0.00    -0.352 N 
HETATM   28  H   UNL     1      42.173 -16.082   3.177  1.00  0.00     0.163 HD
HETATM   29  O   UNL     1      40.077 -14.569   5.015  1.00  0.00    -0.267 OA
BRANCH  27  30
HETATM   30  C   UNL     1      40.217 -15.717   2.406  1.00  0.00     0.084 C 
HETATM   31  C   UNL     1      40.400 -14.507   1.479  1.00  0.00     0.025 C 
HETATM   32  C   UNL     1      41.613 -14.651   0.561  1.00  0.00     0.002 C 
HETATM   33  C   UNL     1      41.568 -15.954  -0.232  1.00  0.00     0.000 C 
HETATM   34  C   UNL     1      41.420 -17.167   0.680  1.00  0.00     0.002 C 
HETATM   35  C   UNL     1      40.215 -17.031   1.612  1.00  0.00     0.025 C 
ENDBRANCH  27  30
ENDBRANCH   4  26
BRANCH   6  36
HETATM   36  C   UNL     1      44.775 -17.871   6.365  1.00  0.00     0.089 A 
HETATM   37  C   UNL     1      44.213 -19.131   6.971  1.00  0.00     0.028 A 
HETATM   38  C   UNL     1      44.284 -18.989   5.481  1.00  0.00     0.028 A 
ENDBRANCH   6  36
TORSDOF 7
ENDMDL
MODEL 6
REMARK VINA RESULT:      -8.7      3.414      7.562
REMARK  7 active torsions:
REMARK  status: ('A' for Active; 'I' for Inactive)
REMARK    1  A    between atoms: C_2  and  N_3 
REMARK    2  A    between atoms: C_2  and  C_25 
REMARK       I    between atoms: N_3  and  C_4 
REMARK    3  A    between atoms: C_4  and  C_5 
REMARK    4  A    between atoms: C_8  and  C_9 
REMARK       I    between atoms: C_9  and  N_10 
REMARK    5  A    between atoms: N_10  and  C_11 
REMARK    6  A    between atoms: N_19  and  C_20 
REMARK    7  A    between atoms: C_33  and  O_34 
ROOT
HETATM    1  C   UNL     1      42.324 -12.881   4.852  1.00  0.00     0.098 A 
HETATM    2  C   UNL     1      43.190 -13.267   6.009  1.00  0.00     0.206 A 
HETATM    3  O   UNL     1      43.904 -14.271   5.955  1.00  0.00    -0.286 OA
HETATM    4  C   UNL     1      43.185 -12.402   7.227  1.00  0.00     0.098 A 
HETATM    5  C   UNL     1      42.313 -11.380   7.238  1.00  0.00     0.112 A 
HETATM    6  N   UNL     1      41.446 -11.096   6.201  1.00  0.00    -0.360 N 
HETATM    7  C   UNL     1      41.521 -11.818   5.027  1.00  0.00     0.112 A 
ENDROOT
BRANCH   1   8
HETATM    8  C   UNL     1      42.307 -13.586   3.540  1.00  0.00     0.257 C 
HETATM    9  N   UNL     1      41.636 -14.778   3.531  1.00  0.00    -0.348 N 
HETATM   10  H   UNL     1      41.214 -15.105   4.400  1.00  0.00     0.163 HD
HETATM   11  O   UNL     1      42.863 -13.122   2.548  1.00  0.00    -0.267 OA
BRANCH   9  12
HETATM   12  C   UNL     1      41.526 -15.637   2.366  1.00  0.00     0.114 C 
HETATM   13  C   UNL     1      40.065 -15.941   2.025  1.00  0.00     0.037 C 
BRANCH  12  14
HETATM   14  C   UNL     1      42.334 -16.901   2.609  1.00  0.00    -0.035 A 
HETATM   15  C   UNL     1      42.707 -17.256   3.915  1.00  0.00     0.021 A 
HETATM   16  C   UNL     1      43.402 -18.450   4.178  1.00  0.00    -0.025 A 
HETATM   17  C   UNL     1      43.729 -19.312   3.110  1.00  0.00    -0.023 A 
HETATM   18  C   UNL     1      43.773 -18.812   5.482  1.00  0.00     0.015 A 
HETATM   19  C   UNL     1      43.358 -18.957   1.805  1.00  0.00     0.013 A 
HETATM   20  C   UNL     1      44.412 -20.509   3.376  1.00  0.00     0.049 A 
HETATM   21  C   UNL     1      42.667 -17.769   1.558  1.00  0.00     0.010 A 
HETATM   22  C   UNL     1      44.773 -20.865   4.679  1.00  0.00     0.069 A 
HETATM   23  C   UNL     1      44.453 -20.011   5.732  1.00  0.00     0.037 A 
BRANCH  22  24
HETATM   24  O   UNL     1      45.427 -22.062   4.784  1.00  0.00    -0.356 OA
HETATM   25  C   UNL     1      44.803 -23.190   4.185  1.00  0.00     0.210 C 
ENDBRANCH  22  24
ENDBRANCH  12  14
ENDBRANCH   9  12
ENDBRANCH   1   8
BRANCH   4  26
HETATM   26  C   UNL     1      44.090 -12.587   8.396  1.00  0.00     0.257 C 
HETATM   27  N   UNL     1      43.644 -12.030   9.568  1.00  0.00    -0.352 N 
HETATM   28  H   UNL     1      42.821 -11.430   9.527  1.00  0.00     0.163 HD
HETATM   29  O   UNL     1      45.144 -13.209   8.303  1.00  0.00    -0.267 OA
BRANCH  27  30
HETATM   30  C   UNL     1      44.416 -12.045  10.804  1.00  0.00     0.084 C 
HETATM   31  C   UNL     1      44.984 -10.654  11.115  1.00  0.00     0.025 C 
HETATM   32  C   UNL     1      43.905  -9.665  11.553  1.00  0.00     0.002 C 
HETATM   33  C   UNL     1      43.089 -10.203  12.725  1.00  0.00     0.000 C 
HETATM   34  C   UNL     1      42.489 -11.571  12.415  1.00  0.00     0.002 C 
HETATM   35  C   UNL     1      43.558 -12.568  11.966  1.00  0.00     0.025 C 
ENDBRANCH  27  30
ENDBRANCH   4  26
BRANCH   6  36
HETATM   36  C   UNL     1      40.654  -9.859   6.246  1.00  0.00     0.089 A 
HETATM   37  C   UNL     1      41.274  -8.520   6.552  1.00  0.00     0.028 A 
HETATM   38  C   UNL     1      40.776  -8.812   5.169  1.00  0.00     0.028 A 
ENDBRANCH   6  36
TORSDOF 7
ENDMDL
MODEL 7
REMARK VINA RESULT:      -8.7      4.003      7.655
REMARK  7 active torsions:
REMARK  status: ('A' for Active; 'I' for Inactive)
REMARK    1  A    between atoms: C_2  and  N_3 
REMARK    2  A    between atoms: C_2  and  C_25 
REMARK       I    between atoms: N_3  and  C_4 
REMARK    3  A    between atoms: C_4  and  C_5 
REMARK    4  A    between atoms: C_8  and  C_9 
REMARK       I    between atoms: C_9  and  N_10 
REMARK    5  A    between atoms: N_10  and  C_11 
REMARK    6  A    between atoms: N_19  and  C_20 
REMARK    7  A    between atoms: C_33  and  O_34 
ROOT
HETATM    1  C   UNL     1      41.264 -11.548   5.301  1.00  0.00     0.098 A 
HETATM    2  C   UNL     1      42.062 -11.859   6.526  1.00  0.00     0.206 A 
HETATM    3  O   UNL     1      42.752 -12.880   6.588  1.00  0.00    -0.286 OA
HETATM    4  C   UNL     1      42.021 -10.900   7.671  1.00  0.00     0.098 A 
HETATM    5  C   UNL     1      41.176  -9.861   7.557  1.00  0.00     0.112 A 
HETATM    6  N   UNL     1      40.369  -9.641   6.458  1.00  0.00    -0.360 N 
HETATM    7  C   UNL     1      40.482 -10.456   5.350  1.00  0.00     0.112 A 
ENDROOT
BRANCH   1   8
HETATM    8  C   UNL     1      41.293 -12.355   4.048  1.00  0.00     0.257 C 
HETATM    9  N   UNL     1      41.069 -13.694   4.217  1.00  0.00    -0.348 N 
HETATM   10  H   UNL     1      40.915 -14.046   5.162  1.00  0.00     0.163 HD
HETATM   11  O   UNL     1      41.508 -11.844   2.953  1.00  0.00    -0.267 OA
BRANCH   9  12
HETATM   12  C   UNL     1      41.085 -14.660   3.134  1.00  0.00     0.114 C 
HETATM   13  C   UNL     1      39.670 -14.980   2.642  1.00  0.00     0.037 C 
BRANCH  12  14
HETATM   14  C   UNL     1      41.827 -15.903   3.595  1.00  0.00    -0.035 A 
HETATM   15  C   UNL     1      42.180 -16.895   2.667  1.00  0.00     0.021 A 
HETATM   16  C   UNL     1      42.919 -18.028   3.052  1.00  0.00    -0.025 A 
HETATM   17  C   UNL     1      43.318 -18.172   4.398  1.00  0.00    -0.023 A 
HETATM   18  C   UNL     1      43.280 -19.020   2.127  1.00  0.00     0.015 A 
HETATM   19  C   UNL     1      42.963 -17.182   5.326  1.00  0.00     0.013 A 
HETATM   20  C   UNL     1      44.066 -19.297   4.779  1.00  0.00     0.049 A 
HETATM   21  C   UNL     1      42.229 -16.062   4.930  1.00  0.00     0.010 A 
HETATM   22  C   UNL     1      44.426 -20.277   3.850  1.00  0.00     0.069 A 
HETATM   23  C   UNL     1      44.028 -20.137   2.522  1.00  0.00     0.037 A 
BRANCH  22  24
HETATM   24  O   UNL     1      45.160 -21.311   4.365  1.00  0.00    -0.356 OA
HETATM   25  C   UNL     1      44.723 -22.627   4.054  1.00  0.00     0.210 C 
ENDBRANCH  22  24
ENDBRANCH  12  14
ENDBRANCH   9  12
ENDBRANCH   1   8
BRANCH   4  26
HETATM   26  C   UNL     1      42.864 -11.010   8.895  1.00  0.00     0.257 C 
HETATM   27  N   UNL     1      42.165 -11.116  10.071  1.00  0.00    -0.352 N 
HETATM   28  H   UNL     1      41.156 -10.975  10.040  1.00  0.00     0.163 HD
HETATM   29  O   UNL     1      44.089 -11.023   8.835  1.00  0.00    -0.267 OA
BRANCH  27  30
HETATM   30  C   UNL     1      42.806 -11.167  11.379  1.00  0.00     0.084 C 
HETATM   31  C   UNL     1      43.609  -9.887  11.650  1.00  0.00     0.025 C 
HETATM   32  C   UNL     1      42.711  -8.676  11.902  1.00  0.00     0.002 C 
HETATM   33  C   UNL     1      41.704  -8.943  13.017  1.00  0.00     0.000 C 
HETATM   34  C   UNL     1      40.877 -10.195  12.744  1.00  0.00     0.002 C 
HETATM   35  C   UNL     1      41.763 -11.412  12.479  1.00  0.00     0.025 C 
ENDBRANCH  27  30
ENDBRANCH   4  26
BRANCH   6  36
HETATM   36  C   UNL     1      39.608  -8.388   6.365  1.00  0.00     0.089 A 
HETATM   37  C   UNL     1      38.368  -8.140   7.186  1.00  0.00     0.028 A 
HETATM   38  C   UNL     1      39.624  -7.378   7.484  1.00  0.00     0.028 A 
ENDBRANCH   6  36
TORSDOF 7
ENDMDL
MODEL 8
REMARK VINA RESULT:      -8.4      4.459      9.122
REMARK  7 active torsions:
REMARK  status: ('A' for Active; 'I' for Inactive)
REMARK    1  A    between atoms: C_2  and  N_3 
REMARK    2  A    between atoms: C_2  and  C_25 
REMARK       I    between atoms: N_3  and  C_4 
REMARK    3  A    between atoms: C_4  and  C_5 
REMARK    4  A    between atoms: C_8  and  C_9 
REMARK       I    between atoms: C_9  and  N_10 
REMARK    5  A    between atoms: N_10  and  C_11 
REMARK    6  A    between atoms: N_19  and  C_20 
REMARK    7  A    between atoms: C_33  and  O_34 
ROOT
HETATM    1  C   UNL     1      44.287 -14.223   6.925  1.00  0.00     0.098 A 
HETATM    2  C   UNL     1      43.141 -13.952   6.002  1.00  0.00     0.206 A 
HETATM    3  O   UNL     1      42.639 -12.829   5.933  1.00  0.00    -0.286 OA
HETATM    4  C   UNL     1      42.628 -15.068   5.152  1.00  0.00     0.098 A 
HETATM    5  C   UNL     1      43.172 -16.281   5.354  1.00  0.00     0.112 A 
HETATM    6  N   UNL     1      44.162 -16.536   6.283  1.00  0.00    -0.360 N 
HETATM    7  C   UNL     1      44.722 -15.493   6.993  1.00  0.00     0.112 A 
ENDROOT
BRANCH   1   8
HETATM    8  C   UNL     1      44.968 -13.185   7.749  1.00  0.00     0.257 C 
HETATM    9  N   UNL     1      44.176 -12.575   8.683  1.00  0.00    -0.348 N 
HETATM   10  H   UNL     1      43.196 -12.852   8.745  1.00  0.00     0.163 HD
HETATM   11  O   UNL     1      46.152 -12.904   7.588  1.00  0.00    -0.267 OA
BRANCH   9  12
HETATM   12  C   UNL     1      44.632 -11.518   9.566  1.00  0.00     0.114 C 
HETATM   13  C   UNL     1      45.474 -12.070  10.720  1.00  0.00     0.037 C 
BRANCH  12  14
HETATM   14  C   UNL     1      43.428 -10.734  10.058  1.00  0.00    -0.035 A 
HETATM   15  C   UNL     1      42.213 -10.799   9.357  1.00  0.00     0.021 A 
HETATM   16  C   UNL     1      41.064 -10.132   9.821  1.00  0.00    -0.025 A 
HETATM   17  C   UNL     1      41.130  -9.386  11.016  1.00  0.00    -0.023 A 
HETATM   18  C   UNL     1      39.846 -10.198   9.127  1.00  0.00     0.015 A 
HETATM   19  C   UNL     1      42.344  -9.319  11.716  1.00  0.00     0.013 A 
HETATM   20  C   UNL     1      39.980  -8.732  11.484  1.00  0.00     0.049 A 
HETATM   21  C   UNL     1      43.477  -9.986  11.245  1.00  0.00     0.010 A 
HETATM   22  C   UNL     1      38.769  -8.807  10.790  1.00  0.00     0.069 A 
HETATM   23  C   UNL     1      38.706  -9.541   9.607  1.00  0.00     0.037 A 
BRANCH  22  24
HETATM   24  O   UNL     1      37.734  -8.125  11.370  1.00  0.00    -0.356 OA
HETATM   25  C   UNL     1      37.984  -7.536  12.639  1.00  0.00     0.210 C 
ENDBRANCH  22  24
ENDBRANCH  12  14
ENDBRANCH   9  12
ENDBRANCH   1   8
BRANCH   4  26
HETATM   26  C   UNL     1      41.588 -14.915   4.096  1.00  0.00     0.257 C 
HETATM   27  N   UNL     1      41.551 -13.683   3.494  1.00  0.00    -0.352 N 
HETATM   28  H   UNL     1      42.124 -12.940   3.894  1.00  0.00     0.163 HD
HETATM   29  O   UNL     1      40.842 -15.839   3.788  1.00  0.00    -0.267 OA
BRANCH  27  30
HETATM   30  C   UNL     1      40.565 -13.314   2.486  1.00  0.00     0.084 C 
HETATM   31  C   UNL     1      39.188 -13.082   3.123  1.00  0.00     0.025 C 
HETATM   32  C   UNL     1      39.134 -11.798   3.949  1.00  0.00     0.002 C 
HETATM   33  C   UNL     1      39.579 -10.586   3.136  1.00  0.00     0.000 C 
HETATM   34  C   UNL     1      40.961 -10.790   2.525  1.00  0.00     0.002 C 
HETATM   35  C   UNL     1      41.031 -12.078   1.704  1.00  0.00     0.025 C 
ENDBRANCH  27  30
ENDBRANCH   4  26
BRANCH   6  36
HETATM   36  C   UNL     1      44.802 -17.858   6.306  1.00  0.00     0.089 A 
HETATM   37  C   UNL     1      44.193 -19.031   7.032  1.00  0.00     0.028 A 
HETATM   38  C   UNL     1      44.229 -19.018   5.534  1.00  0.00     0.028 A 
ENDBRANCH   6  36
TORSDOF 7
ENDMDL
MODEL 9
REMARK VINA RESULT:      -8.2      2.960      6.449
REMARK  7 active torsions:
REMARK  status: ('A' for Active; 'I' for Inactive)
REMARK    1  A    between atoms: C_2  and  N_3 
REMARK    2  A    between atoms: C_2  and  C_25 
REMARK       I    between atoms: N_3  and  C_4 
REMARK    3  A    between atoms: C_4  and  C_5 
REMARK    4  A    between atoms: C_8  and  C_9 
REMARK       I    between atoms: C_9  and  N_10 
REMARK    5  A    between atoms: N_10  and  C_11 
REMARK    6  A    between atoms: N_19  and  C_20 
REMARK    7  A    between atoms: C_33  and  O_34 
ROOT
HETATM    1  C   UNL     1      40.918 -12.061   2.807  1.00  0.00     0.098 A 
HETATM    2  C   UNL     1      40.561 -12.470   4.200  1.00  0.00     0.206 A 
HETATM    3  O   UNL     1      40.866 -13.585   4.628  1.00  0.00    -0.286 OA
HETATM    4  C   UNL     1      39.841 -11.492   5.071  1.00  0.00     0.098 A 
HETATM    5  C   UNL     1      39.468 -10.334   4.499  1.00  0.00     0.112 A 
HETATM    6  N   UNL     1      39.717 -10.013   3.179  1.00  0.00    -0.360 N 
HETATM    7  C   UNL     1      40.479 -10.858   2.399  1.00  0.00     0.112 A 
ENDROOT
BRANCH   1   8
HETATM    8  C   UNL     1      41.725 -12.888   1.866  1.00  0.00     0.257 C 
HETATM    9  N   UNL     1      41.461 -14.230   1.902  1.00  0.00    -0.348 N 
HETATM   10  H   UNL     1      40.759 -14.570   2.559  1.00  0.00     0.163 HD
HETATM   11  O   UNL     1      42.566 -12.390   1.123  1.00  0.00    -0.267 OA
BRANCH   9  12
HETATM   12  C   UNL     1      42.155 -15.214   1.092  1.00  0.00     0.114 C 
HETATM   13  C   UNL     1      41.249 -15.781  -0.005  1.00  0.00     0.037 C 
BRANCH  12  14
HETATM   14  C   UNL     1      42.705 -16.300   2.000  1.00  0.00    -0.035 A 
HETATM   15  C   UNL     1      42.997 -17.571   1.479  1.00  0.00     0.021 A 
HETATM   16  C   UNL     1      43.563 -18.578   2.281  1.00  0.00    -0.025 A 
HETATM   17  C   UNL     1      43.848 -18.307   3.636  1.00  0.00    -0.023 A 
HETATM   18  C   UNL     1      43.863 -19.848   1.765  1.00  0.00     0.015 A 
HETATM   19  C   UNL     1      43.554 -17.038   4.158  1.00  0.00     0.013 A 
HETATM   20  C   UNL     1      44.425 -19.309   4.432  1.00  0.00     0.049 A 
HETATM   21  C   UNL     1      42.993 -16.048   3.350  1.00  0.00     0.010 A 
HETATM   22  C   UNL     1      44.725 -20.570   3.908  1.00  0.00     0.069 A 
HETATM   23  C   UNL     1      44.439 -20.837   2.571  1.00  0.00     0.037 A 
BRANCH  22  24
HETATM   24  O   UNL     1      45.289 -21.440   4.800  1.00  0.00    -0.356 OA
HETATM   25  C   UNL     1      44.622 -22.679   4.999  1.00  0.00     0.210 C 
ENDBRANCH  22  24
ENDBRANCH  12  14
ENDBRANCH   9  12
ENDBRANCH   1   8
BRANCH   4  26
HETATM   26  C   UNL     1      39.542 -11.710   6.514  1.00  0.00     0.257 C 
HETATM   27  N   UNL     1      40.061 -10.765   7.363  1.00  0.00    -0.352 N 
HETATM   28  H   UNL     1      40.712 -10.082   6.974  1.00  0.00     0.163 HD
HETATM   29  O   UNL     1      38.862 -12.658   6.896  1.00  0.00    -0.267 OA
BRANCH  27  30
HETATM   30  C   UNL     1      39.935 -10.837   8.813  1.00  0.00     0.084 C 
HETATM   31  C   UNL     1      41.198 -10.304   9.503  1.00  0.00     0.025 C 
HETATM   32  C   UNL     1      41.337  -8.787   9.379  1.00  0.00     0.002 C 
HETATM   33  C   UNL     1      40.088  -8.064   9.877  1.00  0.00     0.000 C 
HETATM   34  C   UNL     1      38.830  -8.561   9.174  1.00  0.00     0.002 C 
HETATM   35  C   UNL     1      38.684 -10.080   9.281  1.00  0.00     0.025 C 
ENDBRANCH  27  30
ENDBRANCH   4  26
BRANCH   6  36
HETATM   36  C   UNL     1      39.415  -8.656   2.702  1.00  0.00     0.089 A 
HETATM   37  C   UNL     1      38.095  -8.307   2.063  1.00  0.00     0.028 A 
HETATM   38  C   UNL     1      38.428  -7.774   3.423  1.00  0.00     0.028 A 
ENDBRANCH   6  36
TORSDOF 7
ENDMDL
MODEL 10
REMARK VINA RESULT:      -8.1      2.999      9.161
REMARK  7 active torsions:
REMARK  status: ('A' for Active; 'I' for Inactive)
REMARK    1  A    between atoms: C_2  and  N_3 
REMARK    2  A    between atoms: C_2  and  C_25 
REMARK       I    between atoms: N_3  and  C_4 
REMARK    3  A    between atoms: C_4  and  C_5 
REMARK    4  A    between atoms: C_8  and  C_9 
REMARK       I    between atoms: C_9  and  N_10 
REMARK    5  A    between atoms: N_10  and  C_11 
REMARK    6  A    between atoms: N_19  and  C_20 
REMARK    7  A    between atoms: C_33  and  O_34 
ROOT
HETATM    1  C   UNL     1      42.074 -14.179   5.427  1.00  0.00     0.098 A 
HETATM    2  C   UNL     1      42.972 -13.315   6.254  1.00  0.00     0.206 A 
HETATM    3  O   UNL     1      42.806 -12.094   6.302  1.00  0.00    -0.286 OA
HETATM    4  C   UNL     1      44.066 -13.964   7.037  1.00  0.00     0.098 A 
HETATM    5  C   UNL     1      44.234 -15.286   6.860  1.00  0.00     0.112 A 
HETATM    6  N   UNL     1      43.459 -16.053   6.013  1.00  0.00    -0.360 N 
HETATM    7  C   UNL     1      42.375 -15.487   5.372  1.00  0.00     0.112 A 
ENDROOT
BRANCH   1   8
HETATM    8  C   UNL     1      40.882 -13.684   4.682  1.00  0.00     0.257 C 
HETATM    9  N   UNL     1      41.062 -12.500   4.020  1.00  0.00    -0.348 N 
HETATM   10  H   UNL     1      41.969 -12.039   4.088  1.00  0.00     0.163 HD
HETATM   11  O   UNL     1      39.821 -14.301   4.675  1.00  0.00    -0.267 OA
BRANCH   9  12
HETATM   12  C   UNL     1      40.022 -11.830   3.262  1.00  0.00     0.114 C 
HETATM   13  C   UNL     1      38.695 -11.803   4.025  1.00  0.00     0.037 C 
BRANCH  12  14
HETATM   14  C   UNL     1      39.891 -12.503   1.906  1.00  0.00    -0.035 A 
HETATM   15  C   UNL     1      40.924 -12.389   0.962  1.00  0.00     0.021 A 
HETATM   16  C   UNL     1      40.858 -13.049  -0.278  1.00  0.00    -0.025 A 
HETATM   17  C   UNL     1      39.734 -13.846  -0.580  1.00  0.00    -0.023 A 
HETATM   18  C   UNL     1      41.890 -12.943  -1.223  1.00  0.00     0.015 A 
HETATM   19  C   UNL     1      38.701 -13.959   0.362  1.00  0.00     0.013 A 
HETATM   20  C   UNL     1      39.675 -14.515  -1.813  1.00  0.00     0.049 A 
HETATM   21  C   UNL     1      38.779 -13.298   1.589  1.00  0.00     0.010 A 
HETATM   22  C   UNL     1      40.710 -14.408  -2.747  1.00  0.00     0.069 A 
HETATM   23  C   UNL     1      41.817 -13.617  -2.449  1.00  0.00     0.037 A 
BRANCH  22  24
HETATM   24  O   UNL     1      40.517 -15.121  -3.899  1.00  0.00    -0.356 OA
HETATM   25  C   UNL     1      39.280 -15.808  -4.029  1.00  0.00     0.210 C 
ENDBRANCH  22  24
ENDBRANCH  12  14
ENDBRANCH   9  12
ENDBRANCH   1   8
BRANCH   4  26
HETATM   26  C   UNL     1      44.948 -13.252   8.004  1.00  0.00     0.257 C 
HETATM   27  N   UNL     1      44.352 -12.915   9.193  1.00  0.00    -0.352 N 
HETATM   28  H   UNL     1      43.343 -13.046   9.274  1.00  0.00     0.163 HD
HETATM   29  O   UNL     1      46.124 -13.010   7.747  1.00  0.00    -0.267 OA
BRANCH  27  30
HETATM   30  C   UNL     1      45.026 -12.158  10.240  1.00  0.00     0.084 C 
HETATM   31  C   UNL     1      44.933 -10.649   9.976  1.00  0.00     0.025 C 
HETATM   32  C   UNL     1      43.523 -10.102  10.196  1.00  0.00     0.002 C 
HETATM   33  C   UNL     1      42.992 -10.455  11.583  1.00  0.00     0.000 C 
HETATM   34  C   UNL     1      43.048 -11.956  11.845  1.00  0.00     0.002 C 
HETATM   35  C   UNL     1      44.452 -12.518  11.618  1.00  0.00     0.025 C 
ENDBRANCH  27  30
ENDBRANCH   4  26
BRANCH   6  36
HETATM   36  C   UNL     1      43.618 -17.514   6.019  1.00  0.00     0.089 A 
HETATM   37  C   UNL     1      44.295 -18.252   4.892  1.00  0.00     0.028 A 
HETATM   38  C   UNL     1      44.967 -18.153   6.228  1.00  0.00     0.028 A 
ENDBRANCH   6  36
TORSDOF 7
ENDMDL
