MODEL 1
REMARK VINA RESULT:      -9.3      0.000      0.000
REMARK  3 active torsions:
REMARK  status: ('A' for Active; 'I' for Inactive)
REMARK    1  A    between atoms: C_6  and  N_7 
REMARK       I    between atoms: N_7  and  C_8 
REMARK    2  A    between atoms: C_8  and  C_9 
REMARK    3  A    between atoms: C_9  and  C_10 
ROOT
HETATM    1  C   UNL     1      43.255 -17.001   4.478  1.00  0.00     0.164 C 
HETATM    2  N   UNL     1      43.512 -17.219   3.066  1.00  0.00    -0.245 NA
HETATM    3  C   UNL     1      43.074 -18.346   2.437  1.00  0.00     0.234 C 
HETATM    4  O   UNL     1      42.278 -18.220   1.509  1.00  0.00    -0.274 OA
HETATM    5  C   UNL     1      43.631 -19.658   2.829  1.00  0.00     0.053 A 
HETATM    6  C   UNL     1      44.245 -19.968   4.048  1.00  0.00     0.050 A 
HETATM    7  N   UNL     1      44.376 -19.150   5.180  1.00  0.00    -0.325 N 
HETATM    8  C   UNL     1      43.997 -17.882   5.469  1.00  0.00     0.240 C 
HETATM    9  O   UNL     1      44.206 -17.470   6.616  1.00  0.00    -0.271 OA
HETATM   10  C   UNL     1      43.567 -20.643   1.818  1.00  0.00     0.019 A 
HETATM   11  C   UNL     1      44.121 -21.910   1.997  1.00  0.00     0.001 A 
HETATM   12  C   UNL     1      44.741 -22.215   3.197  1.00  0.00     0.002 A 
HETATM   13  C   UNL     1      44.795 -21.257   4.210  1.00  0.00     0.030 A 
HETATM   14  H   UNL     1      43.246 -16.414   2.509  1.00  0.00     0.131 HD
HETATM   15  H   UNL     1      44.815 -19.569   5.994  1.00  0.00     0.169 HD
ENDROOT
BRANCH   1  16
HETATM   16  C   UNL     1      41.776 -16.841   4.825  1.00  0.00     0.132 C 
BRANCH  16  17
HETATM   17  C   UNL     1      41.047 -15.736   4.090  1.00  0.00     0.224 C 
HETATM   18  N   UNL     1      40.472 -16.158   2.906  1.00  0.00    -0.327 N 
HETATM   19  H   UNL     1      40.270 -17.151   2.805  1.00  0.00     0.169 HD
HETATM   20  O   UNL     1      41.024 -14.595   4.538  1.00  0.00    -0.273 OA
BRANCH  18  21
HETATM   21  C   UNL     1      40.081 -15.346   1.819  1.00  0.00     0.035 A 
HETATM   22  C   UNL     1      40.912 -15.078   0.726  1.00  0.00     0.043 A 
HETATM   23  C   UNL     1      40.407 -14.363  -0.384  1.00  0.00    -0.006 A 
HETATM   24  C   UNL     1      39.084 -13.913  -0.361  1.00  0.00     0.044 A 
HETATM   25  C   UNL     1      40.966 -13.971  -1.631  1.00  0.00     0.031 A 
HETATM   26  N   UNL     1      38.859 -13.278  -1.566  1.00  0.00    -0.360 N 
HETATM   27  C   UNL     1      38.248 -14.141   0.740  1.00  0.00     0.033 A 
HETATM   28  C   UNL     1      37.614 -12.673  -1.986  1.00  0.00     0.155 C 
HETATM   29  C   UNL     1      39.991 -13.308  -2.338  1.00  0.00     0.091 A 
HETATM   30  C   UNL     1      38.766 -14.872   1.819  1.00  0.00     0.032 A 
ENDBRANCH  18  21
ENDBRANCH  16  17
ENDBRANCH   1  16
TORSDOF 3
ENDMDL
MODEL 2
REMARK VINA RESULT:      -8.7      1.509      7.876
REMARK  3 active torsions:
REMARK  status: ('A' for Active; 'I' for Inactive)
REMARK    1  A    between atoms: C_6  and  N_7 
REMARK       I    between atoms: N_7  and  C_8 
REMARK    2  A    between atoms: C_8  and  C_9 
REMARK    3  A    between atoms: C_9  and  C_10 
ROOT
HETATM    1  C   UNL     1      40.220 -14.640   2.064  1.00  0.00     0.164 C 
HETATM    2  N   UNL     1      40.199 -15.765   1.148  1.00  0.00    -0.245 NA
HETATM    3  C   UNL     1      40.971 -15.772   0.024  1.00  0.00     0.234 C 
HETATM    4  O   UNL     1      41.820 -16.652  -0.090  1.00  0.00    -0.274 OA
HETATM    5  C   UNL     1      40.704 -14.785  -1.044  1.00  0.00     0.053 A 
HETATM    6  C   UNL     1      40.039 -13.563  -0.898  1.00  0.00     0.050 A 
HETATM    7  N   UNL     1      39.575 -12.970   0.286  1.00  0.00    -0.325 N 
HETATM    8  C   UNL     1      39.597 -13.338   1.589  1.00  0.00     0.240 C 
HETATM    9  O   UNL     1      39.155 -12.533   2.417  1.00  0.00    -0.271 OA
HETATM   10  C   UNL     1      41.129 -15.191  -2.329  1.00  0.00     0.019 A 
HETATM   11  C   UNL     1      40.880 -14.414  -3.460  1.00  0.00     0.001 A 
HETATM   12  C   UNL     1      40.209 -13.210  -3.320  1.00  0.00     0.002 A 
HETATM   13  C   UNL     1      39.802 -12.790  -2.054  1.00  0.00     0.030 A 
HETATM   14  H   UNL     1      40.329 -16.646   1.633  1.00  0.00     0.131 HD
HETATM   15  H   UNL     1      39.154 -12.050   0.197  1.00  0.00     0.169 HD
ENDROOT
BRANCH   1  16
HETATM   16  C   UNL     1      41.562 -14.430   2.764  1.00  0.00     0.132 C 
BRANCH  16  17
HETATM   17  C   UNL     1      42.066 -15.602   3.578  1.00  0.00     0.224 C 
HETATM   18  N   UNL     1      42.972 -16.390   2.894  1.00  0.00    -0.327 N 
HETATM   19  H   UNL     1      43.476 -15.967   2.118  1.00  0.00     0.169 HD
HETATM   20  O   UNL     1      41.656 -15.794   4.718  1.00  0.00    -0.273 OA
BRANCH  18  21
HETATM   21  C   UNL     1      43.321 -17.726   3.187  1.00  0.00     0.035 A 
HETATM   22  C   UNL     1      43.263 -18.757   2.243  1.00  0.00     0.043 A 
HETATM   23  C   UNL     1      43.749 -20.043   2.572  1.00  0.00    -0.006 A 
HETATM   24  C   UNL     1      44.263 -20.271   3.852  1.00  0.00     0.044 A 
HETATM   25  C   UNL     1      43.865 -21.260   1.846  1.00  0.00     0.031 A 
HETATM   26  N   UNL     1      44.681 -21.586   3.885  1.00  0.00    -0.360 N 
HETATM   27  C   UNL     1      44.296 -19.260   4.822  1.00  0.00     0.033 A 
HETATM   28  C   UNL     1      45.298 -22.251   5.011  1.00  0.00     0.155 C 
HETATM   29  C   UNL     1      44.443 -22.191   2.678  1.00  0.00     0.091 A 
HETATM   30  C   UNL     1      43.828 -17.988   4.463  1.00  0.00     0.032 A 
ENDBRANCH  18  21
ENDBRANCH  16  17
ENDBRANCH   1  16
TORSDOF 3
ENDMDL
MODEL 3
REMARK VINA RESULT:      -8.5      3.150      8.992
REMARK  3 active torsions:
REMARK  status: ('A' for Active; 'I' for Inactive)
REMARK    1  A    between atoms: C_6  and  N_7 
REMARK       I    between atoms: N_7  and  C_8 
REMARK    2  A    between atoms: C_8  and  C_9 
REMARK    3  A    between atoms: C_9  and  C_10 
ROOT
HETATM    1  C   UNL     1      41.647 -14.176  -1.915  1.00  0.00     0.164 C 
HETATM    2  N   UNL     1      42.765 -13.366  -1.469  1.00  0.00    -0.245 NA
HETATM    3  C   UNL     1      42.651 -12.012  -1.355  1.00  0.00     0.234 C 
HETATM    4  O   UNL     1      42.807 -11.508  -0.245  1.00  0.00    -0.274 OA
HETATM    5  C   UNL     1      42.433 -11.198  -2.570  1.00  0.00     0.053 A 
HETATM    6  C   UNL     1      41.906 -11.648  -3.786  1.00  0.00     0.050 A 
HETATM    7  N   UNL     1      41.387 -12.917  -4.086  1.00  0.00    -0.325 N 
HETATM    8  C   UNL     1      41.232 -14.057  -3.371  1.00  0.00     0.240 C 
HETATM    9  O   UNL     1      40.657 -15.002  -3.923  1.00  0.00    -0.271 OA
HETATM   10  C   UNL     1      42.872  -9.860  -2.460  1.00  0.00     0.019 A 
HETATM   11  C   UNL     1      42.814  -8.981  -3.541  1.00  0.00     0.001 A 
HETATM   12  C   UNL     1      42.306  -9.427  -4.750  1.00  0.00     0.002 A 
HETATM   13  C   UNL     1      41.853 -10.741  -4.866  1.00  0.00     0.030 A 
HETATM   14  H   UNL     1      43.173 -13.728  -0.614  1.00  0.00     0.131 HD
HETATM   15  H   UNL     1      41.005 -13.041  -5.018  1.00  0.00     0.169 HD
ENDROOT
BRANCH   1  16
HETATM   16  C   UNL     1      40.454 -14.174  -0.960  1.00  0.00     0.132 C 
BRANCH  16  17
HETATM   17  C   UNL     1      40.673 -14.877   0.363  1.00  0.00     0.224 C 
HETATM   18  N   UNL     1      41.991 -15.234   0.578  1.00  0.00    -0.327 N 
HETATM   19  H   UNL     1      42.709 -14.720   0.071  1.00  0.00     0.169 HD
HETATM   20  O   UNL     1      39.731 -15.101   1.115  1.00  0.00    -0.273 OA
BRANCH  18  21
HETATM   21  C   UNL     1      42.466 -16.214   1.476  1.00  0.00     0.035 A 
HETATM   22  C   UNL     1      42.685 -17.546   1.109  1.00  0.00     0.043 A 
HETATM   23  C   UNL     1      43.282 -18.440   2.026  1.00  0.00    -0.006 A 
HETATM   24  C   UNL     1      43.625 -17.982   3.301  1.00  0.00     0.044 A 
HETATM   25  C   UNL     1      43.665 -19.808   1.950  1.00  0.00     0.031 A 
HETATM   26  N   UNL     1      44.204 -19.045   3.964  1.00  0.00    -0.360 N 
HETATM   27  C   UNL     1      43.379 -16.661   3.698  1.00  0.00     0.033 A 
HETATM   28  C   UNL     1      44.729 -19.020   5.311  1.00  0.00     0.155 C 
HETATM   29  C   UNL     1      44.231 -20.152   3.156  1.00  0.00     0.091 A 
HETATM   30  C   UNL     1      42.807 -15.788   2.763  1.00  0.00     0.032 A 
ENDBRANCH  18  21
ENDBRANCH  16  17
ENDBRANCH   1  16
TORSDOF 3
ENDMDL
MODEL 4
REMARK VINA RESULT:      -8.3      6.280      9.839
REMARK  3 active torsions:
REMARK  status: ('A' for Active; 'I' for Inactive)
REMARK    1  A    between atoms: C_6  and  N_7 
REMARK       I    between atoms: N_7  and  C_8 
REMARK    2  A    between atoms: C_8  and  C_9 
REMARK    3  A    between atoms: C_9  and  C_10 
ROOT
HETATM    1  C   UNL     1      44.194 -11.761   8.293  1.00  0.00     0.164 C 
HETATM    2  N   UNL     1      45.022 -10.923   9.141  1.00  0.00    -0.245 NA
HETATM    3  C   UNL     1      44.876 -10.932  10.496  1.00  0.00     0.234 C 
HETATM    4  O   UNL     1      45.834 -11.285  11.180  1.00  0.00    -0.274 OA
HETATM    5  C   UNL     1      43.616 -10.441  11.093  1.00  0.00     0.053 A 
HETATM    6  C   UNL     1      42.374 -10.352  10.454  1.00  0.00     0.050 A 
HETATM    7  N   UNL     1      42.034 -10.791   9.165  1.00  0.00    -0.325 N 
HETATM    8  C   UNL     1      42.724 -11.397   8.170  1.00  0.00     0.240 C 
HETATM    9  O   UNL     1      42.095 -11.726   7.158  1.00  0.00    -0.271 OA
HETATM   10  C   UNL     1      43.745  -9.971  12.419  1.00  0.00     0.019 A 
HETATM   11  C   UNL     1      42.671  -9.399  13.099  1.00  0.00     0.001 A 
HETATM   12  C   UNL     1      41.444  -9.296  12.464  1.00  0.00     0.002 A 
HETATM   13  C   UNL     1      41.299  -9.774  11.161  1.00  0.00     0.030 A 
HETATM   14  H   UNL     1      46.007 -11.026   8.922  1.00  0.00     0.131 HD
HETATM   15  H   UNL     1      41.063 -10.681   8.892  1.00  0.00     0.169 HD
ENDROOT
BRANCH   1  16
HETATM   16  C   UNL     1      44.415 -13.259   8.490  1.00  0.00     0.132 C 
BRANCH  16  17
HETATM   17  C   UNL     1      44.588 -14.068   7.222  1.00  0.00     0.224 C 
HETATM   18  N   UNL     1      43.629 -15.050   7.068  1.00  0.00    -0.327 N 
HETATM   19  H   UNL     1      42.746 -14.932   7.561  1.00  0.00     0.169 HD
HETATM   20  O   UNL     1      45.521 -13.842   6.458  1.00  0.00    -0.273 OA
BRANCH  18  21
HETATM   21  C   UNL     1      43.716 -16.197   6.248  1.00  0.00     0.035 A 
HETATM   22  C   UNL     1      43.129 -16.277   4.980  1.00  0.00     0.043 A 
HETATM   23  C   UNL     1      43.366 -17.408   4.165  1.00  0.00    -0.006 A 
HETATM   24  C   UNL     1      44.169 -18.443   4.651  1.00  0.00     0.044 A 
HETATM   25  C   UNL     1      42.962 -17.767   2.850  1.00  0.00     0.031 A 
HETATM   26  N   UNL     1      44.247 -19.390   3.650  1.00  0.00    -0.360 N 
HETATM   27  C   UNL     1      44.735 -18.396   5.933  1.00  0.00     0.033 A 
HETATM   28  C   UNL     1      44.994 -20.627   3.710  1.00  0.00     0.155 C 
HETATM   29  C   UNL     1      43.520 -18.990   2.559  1.00  0.00     0.091 A 
HETATM   30  C   UNL     1      44.503 -17.255   6.712  1.00  0.00     0.032 A 
ENDBRANCH  18  21
ENDBRANCH  16  17
ENDBRANCH   1  16
TORSDOF 3
ENDMDL
MODEL 5
REMARK VINA RESULT:      -8.2      2.135      3.050
REMARK  3 active torsions:
REMARK  status: ('A' for Active; 'I' for Inactive)
REMARK    1  A    between atoms: C_6  and  N_7 
REMARK       I    between atoms: N_7  and  C_8 
REMARK    2  A    between atoms: C_8  and  C_9 
REMARK    3  A    between atoms: C_9  and  C_10 
ROOT
HETATM    1  C   UNL     1      41.913 -16.292   3.329  1.00  0.00     0.164 C 
HETATM    2  N   UNL     1      43.168 -16.602   2.670  1.00  0.00    -0.245 NA
HETATM    3  C   UNL     1      43.512 -17.889   2.383  1.00  0.00     0.234 C 
HETATM    4  O   UNL     1      43.676 -18.197   1.205  1.00  0.00    -0.274 OA
HETATM    5  C   UNL     1      43.760 -18.838   3.491  1.00  0.00     0.053 A 
HETATM    6  C   UNL     1      43.285 -18.723   4.802  1.00  0.00     0.050 A 
HETATM    7  N   UNL     1      42.408 -17.759   5.321  1.00  0.00    -0.325 N 
HETATM    8  C   UNL     1      41.771 -16.689   4.789  1.00  0.00     0.240 C 
HETATM    9  O   UNL     1      40.989 -16.068   5.518  1.00  0.00    -0.271 OA
HETATM   10  C   UNL     1      44.613 -19.913   3.156  1.00  0.00     0.019 A 
HETATM   11  C   UNL     1      45.012 -20.851   4.107  1.00  0.00     0.001 A 
HETATM   12  C   UNL     1      44.556 -20.733   5.409  1.00  0.00     0.002 A 
HETATM   13  C   UNL     1      43.698 -19.686   5.747  1.00  0.00     0.030 A 
HETATM   14  H   UNL     1      43.303 -16.039   1.837  1.00  0.00     0.131 HD
HETATM   15  H   UNL     1      42.140 -17.868   6.294  1.00  0.00     0.169 HD
ENDROOT
BRANCH   1  16
HETATM   16  C   UNL     1      40.674 -16.632   2.503  1.00  0.00     0.132 C 
BRANCH  16  17
HETATM   17  C   UNL     1      40.323 -15.645   1.411  1.00  0.00     0.224 C 
HETATM   18  N   UNL     1      41.294 -15.550   0.431  1.00  0.00    -0.327 N 
HETATM   19  H   UNL     1      41.929 -16.338   0.316  1.00  0.00     0.169 HD
HETATM   20  O   UNL     1      39.279 -15.004   1.457  1.00  0.00    -0.273 OA
BRANCH  18  21
HETATM   21  C   UNL     1      41.476 -14.487  -0.479  1.00  0.00     0.035 A 
HETATM   22  C   UNL     1      41.966 -13.232  -0.101  1.00  0.00     0.043 A 
HETATM   23  C   UNL     1      42.243 -12.257  -1.087  1.00  0.00    -0.006 A 
HETATM   24  C   UNL     1      42.000 -12.558  -2.430  1.00  0.00     0.044 A 
HETATM   25  C   UNL     1      42.770 -10.938  -1.037  1.00  0.00     0.031 A 
HETATM   26  N   UNL     1      42.379 -11.450  -3.161  1.00  0.00    -0.360 N 
HETATM   27  C   UNL     1      41.475 -13.797  -2.824  1.00  0.00     0.033 A 
HETATM   28  C   UNL     1      42.320 -11.323  -4.601  1.00  0.00     0.155 C 
HETATM   29  C   UNL     1      42.844 -10.466  -2.327  1.00  0.00     0.091 A 
HETATM   30  C   UNL     1      41.230 -14.753  -1.829  1.00  0.00     0.032 A 
ENDBRANCH  18  21
ENDBRANCH  16  17
ENDBRANCH   1  16
TORSDOF 3
ENDMDL
MODEL 6
REMARK VINA RESULT:      -8.1      2.388      3.788
REMARK  3 active torsions:
REMARK  status: ('A' for Active; 'I' for Inactive)
REMARK    1  A    between atoms: C_6  and  N_7 
REMARK       I    between atoms: N_7  and  C_8 
REMARK    2  A    between atoms: C_8  and  C_9 
REMARK    3  A    between atoms: C_9  and  C_10 
ROOT
HETATM    1  C   UNL     1      41.564 -14.511   5.511  1.00  0.00     0.164 C 
HETATM    2  N   UNL     1      42.253 -15.383   6.444  1.00  0.00    -0.245 NA
HETATM    3  C   UNL     1      43.391 -16.041   6.082  1.00  0.00     0.234 C 
HETATM    4  O   UNL     1      44.423 -15.798   6.703  1.00  0.00    -0.274 OA
HETATM    5  C   UNL     1      43.325 -17.076   5.028  1.00  0.00     0.053 A 
HETATM    6  C   UNL     1      42.340 -17.194   4.042  1.00  0.00     0.050 A 
HETATM    7  N   UNL     1      41.273 -16.321   3.778  1.00  0.00    -0.325 N 
HETATM    8  C   UNL     1      40.852 -15.162   4.338  1.00  0.00     0.240 C 
HETATM    9  O   UNL     1      39.894 -14.588   3.808  1.00  0.00    -0.271 OA
HETATM   10  C   UNL     1      44.346 -18.050   5.105  1.00  0.00     0.019 A 
HETATM   11  C   UNL     1      44.382 -19.140   4.237  1.00  0.00     0.001 A 
HETATM   12  C   UNL     1      43.400 -19.268   3.268  1.00  0.00     0.002 A 
HETATM   13  C   UNL     1      42.398 -18.302   3.170  1.00  0.00     0.030 A 
HETATM   14  H   UNL     1      42.414 -14.927   7.335  1.00  0.00     0.131 HD
HETATM   15  H   UNL     1      40.684 -16.553   2.985  1.00  0.00     0.169 HD
ENDROOT
BRANCH   1  16
HETATM   16  C   UNL     1      42.366 -13.276   5.103  1.00  0.00     0.132 C 
BRANCH  16  17
HETATM   17  C   UNL     1      42.886 -13.274   3.681  1.00  0.00     0.224 C 
HETATM   18  N   UNL     1      42.031 -12.652   2.790  1.00  0.00    -0.327 N 
HETATM   19  H   UNL     1      41.368 -11.976   3.165  1.00  0.00     0.169 HD
HETATM   20  O   UNL     1      43.954 -13.808   3.404  1.00  0.00    -0.273 OA
BRANCH  18  21
HETATM   21  C   UNL     1      42.006 -12.813   1.388  1.00  0.00     0.035 A 
HETATM   22  C   UNL     1      41.622 -14.004   0.761  1.00  0.00     0.043 A 
HETATM   23  C   UNL     1      41.499 -14.051  -0.646  1.00  0.00    -0.006 A 
HETATM   24  C   UNL     1      41.787 -12.907  -1.395  1.00  0.00     0.044 A 
HETATM   25  C   UNL     1      41.103 -15.067  -1.559  1.00  0.00     0.031 A 
HETATM   26  N   UNL     1      41.561 -13.230  -2.718  1.00  0.00    -0.360 N 
HETATM   27  C   UNL     1      42.208 -11.716  -0.787  1.00  0.00     0.033 A 
HETATM   28  C   UNL     1      41.714 -12.338  -3.846  1.00  0.00     0.155 C 
HETATM   29  C   UNL     1      41.149 -14.533  -2.826  1.00  0.00     0.091 A 
HETATM   30  C   UNL     1      42.301 -11.689   0.611  1.00  0.00     0.032 A 
ENDBRANCH  18  21
ENDBRANCH  16  17
ENDBRANCH   1  16
TORSDOF 3
ENDMDL
MODEL 7
REMARK VINA RESULT:      -8.1      2.298      7.595
REMARK  3 active torsions:
REMARK  status: ('A' for Active; 'I' for Inactive)
REMARK    1  A    between atoms: C_6  and  N_7 
REMARK       I    between atoms: N_7  and  C_8 
REMARK    2  A    between atoms: C_8  and  C_9 
REMARK    3  A    between atoms: C_9  and  C_10 
ROOT
HETATM    1  C   UNL     1      41.521 -13.687   0.671  1.00  0.00     0.164 C 
HETATM    2  N   UNL     1      42.438 -13.042   1.593  1.00  0.00    -0.245 NA
HETATM    3  C   UNL     1      42.777 -13.630   2.775  1.00  0.00     0.234 C 
HETATM    4  O   UNL     1      43.958 -13.910   2.965  1.00  0.00    -0.274 OA
HETATM    5  C   UNL     1      41.739 -13.829   3.809  1.00  0.00     0.053 A 
HETATM    6  C   UNL     1      40.357 -13.882   3.598  1.00  0.00     0.050 A 
HETATM    7  N   UNL     1      39.669 -13.859   2.376  1.00  0.00    -0.325 N 
HETATM    8  C   UNL     1      40.061 -13.777   1.082  1.00  0.00     0.240 C 
HETATM    9  O   UNL     1      39.185 -13.856   0.213  1.00  0.00    -0.271 OA
HETATM   10  C   UNL     1      42.240 -13.907   5.128  1.00  0.00     0.019 A 
HETATM   11  C   UNL     1      41.390 -14.012   6.227  1.00  0.00     0.001 A 
HETATM   12  C   UNL     1      40.020 -14.050   6.023  1.00  0.00     0.002 A 
HETATM   13  C   UNL     1      39.514 -13.993   4.724  1.00  0.00     0.030 A 
HETATM   14  H   UNL     1      43.287 -12.741   1.127  1.00  0.00     0.131 HD
HETATM   15  H   UNL     1      38.660 -13.954   2.422  1.00  0.00     0.169 HD
ENDROOT
BRANCH   1  16
HETATM   16  C   UNL     1      42.048 -14.994   0.080  1.00  0.00     0.132 C 
BRANCH  16  17
HETATM   17  C   UNL     1      41.871 -16.223   0.946  1.00  0.00     0.224 C 
HETATM   18  N   UNL     1      42.992 -16.525   1.697  1.00  0.00    -0.327 N 
HETATM   19  H   UNL     1      43.649 -15.772   1.889  1.00  0.00     0.169 HD
HETATM   20  O   UNL     1      40.823 -16.859   0.923  1.00  0.00    -0.273 OA
BRANCH  18  21
HETATM   21  C   UNL     1      43.308 -17.770   2.280  1.00  0.00     0.035 A 
HETATM   22  C   UNL     1      43.331 -18.970   1.560  1.00  0.00     0.043 A 
HETATM   23  C   UNL     1      43.781 -20.157   2.181  1.00  0.00    -0.006 A 
HETATM   24  C   UNL     1      44.176 -20.118   3.521  1.00  0.00     0.044 A 
HETATM   25  C   UNL     1      43.957 -21.492   1.726  1.00  0.00     0.031 A 
HETATM   26  N   UNL     1      44.585 -21.394   3.853  1.00  0.00    -0.360 N 
HETATM   27  C   UNL     1      44.125 -18.933   4.269  1.00  0.00     0.033 A 
HETATM   28  C   UNL     1      45.095 -21.812   5.140  1.00  0.00     0.155 C 
HETATM   29  C   UNL     1      44.454 -22.230   2.775  1.00  0.00     0.091 A 
HETATM   30  C   UNL     1      43.696 -17.766   3.623  1.00  0.00     0.032 A 
ENDBRANCH  18  21
ENDBRANCH  16  17
ENDBRANCH   1  16
TORSDOF 3
ENDMDL
MODEL 8
REMARK VINA RESULT:      -8.0      2.076      3.194
REMARK  3 active torsions:
REMARK  status: ('A' for Active; 'I' for Inactive)
REMARK    1  A    between atoms: C_6  and  N_7 
REMARK       I    between atoms: N_7  and  C_8 
REMARK    2  A    between atoms: C_8  and  C_9 
REMARK    3  A    between atoms: C_9  and  C_10 
ROOT
HETATM    1  C   UNL     1      41.321 -16.410   4.606  1.00  0.00     0.164 C 
HETATM    2  N   UNL     1      41.888 -17.297   5.605  1.00  0.00    -0.245 NA
HETATM    3  C   UNL     1      43.171 -17.744   5.500  1.00  0.00     0.234 C 
HETATM    4  O   UNL     1      43.963 -17.448   6.392  1.00  0.00    -0.274 OA
HETATM    5  C   UNL     1      43.541 -18.632   4.377  1.00  0.00     0.053 A 
HETATM    6  C   UNL     1      42.865 -18.751   3.157  1.00  0.00     0.050 A 
HETATM    7  N   UNL     1      41.770 -18.002   2.700  1.00  0.00    -0.325 N 
HETATM    8  C   UNL     1      41.040 -16.992   3.231  1.00  0.00     0.240 C 
HETATM    9  O   UNL     1      40.163 -16.488   2.520  1.00  0.00    -0.271 OA
HETATM   10  C   UNL     1      44.655 -19.462   4.633  1.00  0.00     0.019 A 
HETATM   11  C   UNL     1      45.084 -20.414   3.710  1.00  0.00     0.001 A 
HETATM   12  C   UNL     1      44.409 -20.545   2.508  1.00  0.00     0.002 A 
HETATM   13  C   UNL     1      43.318 -19.718   2.235  1.00  0.00     0.030 A 
HETATM   14  H   UNL     1      41.745 -16.943   6.544  1.00  0.00     0.131 HD
HETATM   15  H   UNL     1      41.444 -18.205   1.761  1.00  0.00     0.169 HD
ENDROOT
BRANCH   1  16
HETATM   16  C   UNL     1      41.987 -15.037   4.540  1.00  0.00     0.132 C 
BRANCH  16  17
HETATM   17  C   UNL     1      42.594 -14.668   3.203  1.00  0.00     0.224 C 
HETATM   18  N   UNL     1      41.806 -13.803   2.467  1.00  0.00    -0.327 N 
HETATM   19  H   UNL     1      41.131 -13.233   2.972  1.00  0.00     0.169 HD
HETATM   20  O   UNL     1      43.671 -15.140   2.853  1.00  0.00    -0.273 OA
BRANCH  18  21
HETATM   21  C   UNL     1      41.867 -13.580   1.075  1.00  0.00     0.035 A 
HETATM   22  C   UNL     1      41.497 -14.542   0.128  1.00  0.00     0.043 A 
HETATM   23  C   UNL     1      41.463 -14.204  -1.244  1.00  0.00    -0.006 A 
HETATM   24  C   UNL     1      41.824 -12.912  -1.637  1.00  0.00     0.044 A 
HETATM   25  C   UNL     1      41.103 -14.920  -2.418  1.00  0.00     0.031 A 
HETATM   26  N   UNL     1      41.676 -12.858  -3.008  1.00  0.00    -0.360 N 
HETATM   27  C   UNL     1      42.233 -11.947  -0.707  1.00  0.00     0.033 A 
HETATM   28  C   UNL     1      41.921 -11.702  -3.842  1.00  0.00     0.155 C 
HETATM   29  C   UNL     1      41.243 -14.066  -3.488  1.00  0.00     0.091 A 
HETATM   30  C   UNL     1      42.237 -12.300   0.649  1.00  0.00     0.032 A 
ENDBRANCH  18  21
ENDBRANCH  16  17
ENDBRANCH   1  16
TORSDOF 3
ENDMDL
MODEL 9
REMARK VINA RESULT:      -8.0      2.273      3.301
REMARK  3 active torsions:
REMARK  status: ('A' for Active; 'I' for Inactive)
REMARK    1  A    between atoms: C_6  and  N_7 
REMARK       I    between atoms: N_7  and  C_8 
REMARK    2  A    between atoms: C_8  and  C_9 
REMARK    3  A    between atoms: C_9  and  C_10 
ROOT
HETATM    1  C   UNL     1      42.191 -16.783   3.576  1.00  0.00     0.164 C 
HETATM    2  N   UNL     1      42.571 -17.611   4.706  1.00  0.00    -0.245 NA
HETATM    3  C   UNL     1      43.735 -18.319   4.699  1.00  0.00     0.234 C 
HETATM    4  O   UNL     1      44.575 -18.062   5.559  1.00  0.00    -0.274 OA
HETATM    5  C   UNL     1      43.911 -19.417   3.724  1.00  0.00     0.053 A 
HETATM    6  C   UNL     1      43.219 -19.574   2.518  1.00  0.00     0.050 A 
HETATM    7  N   UNL     1      42.298 -18.693   1.931  1.00  0.00    -0.325 N 
HETATM    8  C   UNL     1      41.791 -17.490   2.292  1.00  0.00     0.240 C 
HETATM    9  O   UNL     1      41.032 -16.928   1.494  1.00  0.00    -0.271 OA
HETATM   10  C   UNL     1      44.834 -20.408   4.126  1.00  0.00     0.019 A 
HETATM   11  C   UNL     1      45.056 -21.552   3.360  1.00  0.00     0.001 A 
HETATM   12  C   UNL     1      44.362 -21.717   2.172  1.00  0.00     0.002 A 
HETATM   13  C   UNL     1      43.462 -20.736   1.756  1.00  0.00     0.030 A 
HETATM   14  H   UNL     1      42.507 -17.103   5.581  1.00  0.00     0.131 HD
HETATM   15  H   UNL     1      41.933 -18.960   1.022  1.00  0.00     0.169 HD
ENDROOT
BRANCH   1  16
HETATM   16  C   UNL     1      43.122 -15.598   3.330  1.00  0.00     0.132 C 
BRANCH  16  17
HETATM   17  C   UNL     1      42.440 -14.280   3.028  1.00  0.00     0.224 C 
HETATM   18  N   UNL     1      41.094 -14.280   3.343  1.00  0.00    -0.327 N 
HETATM   19  H   UNL     1      40.769 -14.954   4.033  1.00  0.00     0.169 HD
HETATM   20  O   UNL     1      43.067 -13.350   2.532  1.00  0.00    -0.273 OA
BRANCH  18  21
HETATM   21  C   UNL     1      40.109 -13.401   2.843  1.00  0.00     0.035 A 
HETATM   22  C   UNL     1      39.278 -13.717   1.763  1.00  0.00     0.043 A 
HETATM   23  C   UNL     1      38.230 -12.841   1.400  1.00  0.00    -0.006 A 
HETATM   24  C   UNL     1      38.054 -11.654   2.117  1.00  0.00     0.044 A 
HETATM   25  C   UNL     1      37.215 -12.890   0.405  1.00  0.00     0.031 A 
HETATM   26  N   UNL     1      36.959 -11.017   1.569  1.00  0.00    -0.360 N 
HETATM   27  C   UNL     1      38.899 -11.304   3.179  1.00  0.00     0.033 A 
HETATM   28  C   UNL     1      36.401  -9.759   2.013  1.00  0.00     0.155 C 
HETATM   29  C   UNL     1      36.447 -11.756   0.534  1.00  0.00     0.091 A 
HETATM   30  C   UNL     1      39.917 -12.200   3.533  1.00  0.00     0.032 A 
ENDBRANCH  18  21
ENDBRANCH  16  17
ENDBRANCH   1  16
TORSDOF 3
ENDMDL
MODEL 10
REMARK VINA RESULT:      -8.0      3.466      4.836
REMARK  3 active torsions:
REMARK  status: ('A' for Active; 'I' for Inactive)
REMARK    1  A    between atoms: C_6  and  N_7 
REMARK       I    between atoms: N_7  and  C_8 
REMARK    2  A    between atoms: C_8  and  C_9 
REMARK    3  A    between atoms: C_9  and  C_10 
ROOT
HETATM    1  C   UNL     1      42.401 -16.743   2.967  1.00  0.00     0.164 C 
HETATM    2  N   UNL     1      42.550 -17.435   4.234  1.00  0.00    -0.245 NA
HETATM    3  C   UNL     1      43.642 -18.211   4.487  1.00  0.00     0.234 C 
HETATM    4  O   UNL     1      44.373 -17.896   5.423  1.00  0.00    -0.274 OA
HETATM    5  C   UNL     1      43.860 -19.438   3.691  1.00  0.00     0.053 A 
HETATM    6  C   UNL     1      43.332 -19.710   2.424  1.00  0.00     0.050 A 
HETATM    7  N   UNL     1      42.577 -18.858   1.603  1.00  0.00    -0.325 N 
HETATM    8  C   UNL     1      42.126 -17.588   1.735  1.00  0.00     0.240 C 
HETATM    9  O   UNL     1      41.534 -17.089   0.771  1.00  0.00    -0.271 OA
HETATM   10  C   UNL     1      44.633 -20.425   4.343  1.00  0.00     0.019 A 
HETATM   11  C   UNL     1      44.863 -21.672   3.765  1.00  0.00     0.001 A 
HETATM   12  C   UNL     1      44.330 -21.949   2.517  1.00  0.00     0.002 A 
HETATM   13  C   UNL     1      43.580 -20.976   1.855  1.00  0.00     0.030 A 
HETATM   14  H   UNL     1      42.409 -16.811   5.021  1.00  0.00     0.131 HD
HETATM   15  H   UNL     1      42.320 -19.220   0.690  1.00  0.00     0.169 HD
ENDROOT
BRANCH   1  16
HETATM   16  C   UNL     1      43.453 -15.663   2.718  1.00  0.00     0.132 C 
BRANCH  16  17
HETATM   17  C   UNL     1      43.275 -14.382   3.506  1.00  0.00     0.224 C 
HETATM   18  N   UNL     1      42.020 -14.262   4.073  1.00  0.00    -0.327 N 
HETATM   19  H   UNL     1      41.488 -15.115   4.230  1.00  0.00     0.169 HD
HETATM   20  O   UNL     1      44.183 -13.561   3.577  1.00  0.00    -0.273 OA
BRANCH  18  21
HETATM   21  C   UNL     1      41.402 -13.072   4.514  1.00  0.00     0.035 A 
HETATM   22  C   UNL     1      40.464 -12.368   3.750  1.00  0.00     0.043 A 
HETATM   23  C   UNL     1      39.793 -11.256   4.307  1.00  0.00    -0.006 A 
HETATM   24  C   UNL     1      40.095 -10.861   5.613  1.00  0.00     0.044 A 
HETATM   25  C   UNL     1      38.785 -10.378   3.822  1.00  0.00     0.031 A 
HETATM   26  N   UNL     1      39.284  -9.782   5.901  1.00  0.00    -0.360 N 
HETATM   27  C   UNL     1      41.058 -11.532   6.381  1.00  0.00     0.033 A 
HETATM   28  C   UNL     1      39.245  -9.062   7.154  1.00  0.00     0.155 C 
HETATM   29  C   UNL     1      38.491  -9.483   4.824  1.00  0.00     0.091 A 
HETATM   30  C   UNL     1      41.694 -12.644   5.813  1.00  0.00     0.032 A 
ENDBRANCH  18  21
ENDBRANCH  16  17
ENDBRANCH   1  16
TORSDOF 3
ENDMDL
