MODEL 1
REMARK VINA RESULT:      -9.0      0.000      0.000
REMARK  2 active torsions:
REMARK  status: ('A' for Active; 'I' for Inactive)
REMARK    1  A    between atoms: C_2  and  N_3 
REMARK    2  A    between atoms: N_3  and  C_4 
ROOT
HETATM    1  C   UNL     1      42.545 -15.620   4.828  1.00  0.00     0.143 A 
HETATM    2  N   UNL     1      42.803 -14.501   5.552  1.00  0.00    -0.223 NA
HETATM    3  C   UNL     1      43.709 -14.533   6.533  1.00  0.00     0.236 A 
HETATM    4  N   UNL     1      44.416 -15.581   6.932  1.00  0.00    -0.234 NA
HETATM    5  C   UNL     1      44.183 -16.672   6.185  1.00  0.00     0.114 A 
HETATM    6  C   UNL     1      43.324 -16.783   5.097  1.00  0.00     0.053 A 
HETATM    7  S   UNL     1      44.964 -18.124   6.579  1.00  0.00    -0.073 SA
HETATM    8  C   UNL     1      44.227 -18.952   5.287  1.00  0.00    -0.008 C 
HETATM    9  C   UNL     1      43.457 -18.113   4.490  1.00  0.00    -0.028 C 
HETATM   10  C   UNL     1      42.846 -18.581   3.195  1.00  0.00     0.041 C 
HETATM   11  C   UNL     1      43.846 -19.234   2.231  1.00  0.00     0.005 C 
HETATM   12  C   UNL     1      44.252 -20.661   2.594  1.00  0.00     0.001 C 
HETATM   13  C   UNL     1      45.167 -20.768   3.814  1.00  0.00     0.005 C 
HETATM   14  C   UNL     1      44.474 -20.425   5.127  1.00  0.00     0.047 C 
ENDROOT
BRANCH   1  15
HETATM   15  N   UNL     1      41.525 -15.581   3.861  1.00  0.00    -0.340 N 
HETATM   16  H   UNL     1      40.601 -15.498   4.254  1.00  0.00     0.167 HD
BRANCH  15  17
HETATM   17  C   UNL     1      41.541 -15.162   2.514  1.00  0.00     0.036 A 
HETATM   18  C   UNL     1      41.075 -15.940   1.449  1.00  0.00     0.032 A 
HETATM   19  C   UNL     1      41.126 -15.470   0.133  1.00  0.00     0.042 A 
HETATM   20  C   UNL     1      41.591 -14.186  -0.135  1.00  0.00     0.102 A 
HETATM   21  C   UNL     1      42.022 -13.378   0.917  1.00  0.00     0.104 A 
HETATM   22  O   UNL     1      41.697 -13.831  -1.450  1.00  0.00    -0.348 OA
HETATM   23  C   UNL     1      42.010 -13.870   2.225  1.00  0.00     0.069 A 
HETATM   24  O   UNL     1      42.561 -12.133   0.736  1.00  0.00    -0.348 OA
HETATM   25  C   UNL     1      41.635 -11.229   0.129  1.00  0.00     0.178 C 
HETATM   26  C   UNL     1      41.585 -11.391  -1.383  1.00  0.00     0.053 C 
HETATM   27  C   UNL     1      40.901 -12.693  -1.770  1.00  0.00     0.178 C 
ENDBRANCH  15  17
ENDBRANCH   1  15
TORSDOF 2
ENDMDL
MODEL 2
REMARK VINA RESULT:      -8.8      1.521      1.898
REMARK  2 active torsions:
REMARK  status: ('A' for Active; 'I' for Inactive)
REMARK    1  A    between atoms: C_2  and  N_3 
REMARK    2  A    between atoms: N_3  and  C_4 
ROOT
HETATM    1  C   UNL     1      41.339 -15.904   3.969  1.00  0.00     0.143 A 
HETATM    2  N   UNL     1      41.256 -14.680   4.552  1.00  0.00    -0.223 NA
HETATM    3  C   UNL     1      42.048 -14.376   5.584  1.00  0.00     0.236 A 
HETATM    4  N   UNL     1      42.943 -15.165   6.163  1.00  0.00    -0.234 NA
HETATM    5  C   UNL     1      43.045 -16.357   5.554  1.00  0.00     0.114 A 
HETATM    6  C   UNL     1      42.343 -16.799   4.439  1.00  0.00     0.053 A 
HETATM    7  S   UNL     1      44.108 -17.517   6.187  1.00  0.00    -0.073 SA
HETATM    8  C   UNL     1      43.712 -18.643   4.973  1.00  0.00    -0.008 C 
HETATM    9  C   UNL     1      42.843 -18.116   4.025  1.00  0.00    -0.028 C 
HETATM   10  C   UNL     1      42.485 -18.865   2.767  1.00  0.00     0.041 C 
HETATM   11  C   UNL     1      43.696 -19.356   1.964  1.00  0.00     0.005 C 
HETATM   12  C   UNL     1      44.393 -20.587   2.539  1.00  0.00     0.001 C 
HETATM   13  C   UNL     1      45.189 -20.326   3.817  1.00  0.00     0.005 C 
HETATM   14  C   UNL     1      44.314 -20.017   5.027  1.00  0.00     0.047 C 
ENDROOT
BRANCH   1  15
HETATM   15  N   UNL     1      40.434 -16.227   2.943  1.00  0.00    -0.340 N 
HETATM   16  H   UNL     1      39.742 -16.906   3.216  1.00  0.00     0.167 HD
BRANCH  15  17
HETATM   17  C   UNL     1      40.003 -15.488   1.821  1.00  0.00     0.036 A 
HETATM   18  C   UNL     1      38.793 -14.789   1.764  1.00  0.00     0.032 A 
HETATM   19  C   UNL     1      38.419 -14.081   0.617  1.00  0.00     0.042 A 
HETATM   20  C   UNL     1      39.280 -14.012  -0.474  1.00  0.00     0.102 A 
HETATM   21  C   UNL     1      40.509 -14.667  -0.423  1.00  0.00     0.104 A 
HETATM   22  O   UNL     1      38.808 -13.381  -1.590  1.00  0.00    -0.348 OA
HETATM   23  C   UNL     1      40.858 -15.410   0.709  1.00  0.00     0.069 A 
HETATM   24  O   UNL     1      41.382 -14.711  -1.477  1.00  0.00    -0.348 OA
HETATM   25  C   UNL     1      41.842 -13.410  -1.849  1.00  0.00     0.178 C 
HETATM   26  C   UNL     1      40.847 -12.688  -2.745  1.00  0.00     0.053 C 
HETATM   27  C   UNL     1      39.614 -12.265  -1.962  1.00  0.00     0.178 C 
ENDBRANCH  15  17
ENDBRANCH   1  15
TORSDOF 2
ENDMDL
MODEL 3
REMARK VINA RESULT:      -8.8      1.710      1.831
REMARK  2 active torsions:
REMARK  status: ('A' for Active; 'I' for Inactive)
REMARK    1  A    between atoms: C_2  and  N_3 
REMARK    2  A    between atoms: N_3  and  C_4 
ROOT
HETATM    1  C   UNL     1      41.677 -15.891   4.209  1.00  0.00     0.143 A 
HETATM    2  N   UNL     1      41.658 -14.667   4.796  1.00  0.00    -0.223 NA
HETATM    3  C   UNL     1      42.466 -14.407   5.828  1.00  0.00     0.236 A 
HETATM    4  N   UNL     1      43.319 -15.243   6.403  1.00  0.00    -0.234 NA
HETATM    5  C   UNL     1      43.359 -16.437   5.791  1.00  0.00     0.114 A 
HETATM    6  C   UNL     1      42.634 -16.839   4.675  1.00  0.00     0.053 A 
HETATM    7  S   UNL     1      44.362 -17.652   6.419  1.00  0.00    -0.073 SA
HETATM    8  C   UNL     1      43.907 -18.752   5.201  1.00  0.00    -0.008 C 
HETATM    9  C   UNL     1      43.065 -18.178   4.256  1.00  0.00    -0.028 C 
HETATM   10  C   UNL     1      42.668 -18.903   2.996  1.00  0.00     0.041 C 
HETATM   11  C   UNL     1      43.852 -19.454   2.191  1.00  0.00     0.005 C 
HETATM   12  C   UNL     1      44.485 -20.721   2.761  1.00  0.00     0.001 C 
HETATM   13  C   UNL     1      45.294 -20.505   4.039  1.00  0.00     0.005 C 
HETATM   14  C   UNL     1      44.437 -20.156   5.250  1.00  0.00     0.047 C 
ENDROOT
BRANCH   1  15
HETATM   15  N   UNL     1      40.756 -16.164   3.183  1.00  0.00    -0.340 N 
HETATM   16  H   UNL     1      39.826 -16.359   3.518  1.00  0.00     0.167 HD
BRANCH  15  17
HETATM   17  C   UNL     1      40.733 -15.768   1.828  1.00  0.00     0.036 A 
HETATM   18  C   UNL     1      41.464 -16.400   0.818  1.00  0.00     0.032 A 
HETATM   19  C   UNL     1      41.404 -15.954  -0.507  1.00  0.00     0.042 A 
HETATM   20  C   UNL     1      40.562 -14.902  -0.853  1.00  0.00     0.102 A 
HETATM   21  C   UNL     1      39.792 -14.284   0.132  1.00  0.00     0.104 A 
HETATM   22  O   UNL     1      40.625 -14.463  -2.145  1.00  0.00    -0.348 OA
HETATM   23  C   UNL     1      39.891 -14.706   1.461  1.00  0.00     0.069 A 
HETATM   24  O   UNL     1      38.995 -13.197  -0.108  1.00  0.00    -0.348 OA
HETATM   25  C   UNL     1      37.958 -13.488  -1.047  1.00  0.00     0.178 C 
HETATM   26  C   UNL     1      38.448 -13.405  -2.485  1.00  0.00     0.053 C 
HETATM   27  C   UNL     1      39.370 -14.568  -2.815  1.00  0.00     0.178 C 
ENDBRANCH  15  17
ENDBRANCH   1  15
TORSDOF 2
ENDMDL
MODEL 4
REMARK VINA RESULT:      -8.6      1.719      2.253
REMARK  2 active torsions:
REMARK  status: ('A' for Active; 'I' for Inactive)
REMARK    1  A    between atoms: C_2  and  N_3 
REMARK    2  A    between atoms: N_3  and  C_4 
ROOT
HETATM    1  C   UNL     1      43.552 -16.121   4.947  1.00  0.00     0.143 A 
HETATM    2  N   UNL     1      43.722 -14.982   5.667  1.00  0.00    -0.223 NA
HETATM    3  C   UNL     1      43.991 -15.050   6.974  1.00  0.00     0.236 A 
HETATM    4  N   UNL     1      44.100 -16.147   7.710  1.00  0.00    -0.234 NA
HETATM    5  C   UNL     1      43.970 -17.268   6.982  1.00  0.00     0.114 A 
HETATM    6  C   UNL     1      43.753 -17.366   5.612  1.00  0.00     0.053 A 
HETATM    7  S   UNL     1      44.032 -18.771   7.764  1.00  0.00    -0.073 SA
HETATM    8  C   UNL     1      43.819 -19.618   6.303  1.00  0.00    -0.008 C 
HETATM    9  C   UNL     1      43.793 -18.774   5.200  1.00  0.00    -0.028 C 
HETATM   10  C   UNL     1      43.785 -19.304   3.789  1.00  0.00     0.041 C 
HETATM   11  C   UNL     1      44.904 -20.310   3.492  1.00  0.00     0.005 C 
HETATM   12  C   UNL     1      44.677 -21.711   4.055  1.00  0.00     0.001 C 
HETATM   13  C   UNL     1      44.818 -21.814   5.573  1.00  0.00     0.005 C 
HETATM   14  C   UNL     1      43.699 -21.115   6.337  1.00  0.00     0.047 C 
ENDROOT
BRANCH   1  15
HETATM   15  N   UNL     1      43.183 -16.018   3.595  1.00  0.00    -0.340 N 
HETATM   16  H   UNL     1      43.712 -16.622   2.986  1.00  0.00     0.167 HD
BRANCH  15  17
HETATM   17  C   UNL     1      41.967 -15.633   2.992  1.00  0.00     0.036 A 
HETATM   18  C   UNL     1      40.853 -15.178   3.704  1.00  0.00     0.032 A 
HETATM   19  C   UNL     1      39.671 -14.818   3.048  1.00  0.00     0.042 A 
HETATM   20  C   UNL     1      39.605 -14.851   1.658  1.00  0.00     0.102 A 
HETATM   21  C   UNL     1      40.719 -15.261   0.926  1.00  0.00     0.104 A 
HETATM   22  O   UNL     1      38.393 -14.574   1.093  1.00  0.00    -0.348 OA
HETATM   23  C   UNL     1      41.881 -15.663   1.590  1.00  0.00     0.069 A 
HETATM   24  O   UNL     1      40.716 -15.393  -0.437  1.00  0.00    -0.348 OA
HETATM   25  C   UNL     1      40.465 -14.150  -1.096  1.00  0.00     0.178 C 
HETATM   26  C   UNL     1      38.981 -13.824  -1.157  1.00  0.00     0.053 C 
HETATM   27  C   UNL     1      38.447 -13.450   0.217  1.00  0.00     0.178 C 
ENDBRANCH  15  17
ENDBRANCH   1  15
TORSDOF 2
ENDMDL
MODEL 5
REMARK VINA RESULT:      -8.5      2.599      4.167
REMARK  2 active torsions:
REMARK  status: ('A' for Active; 'I' for Inactive)
REMARK    1  A    between atoms: C_2  and  N_3 
REMARK    2  A    between atoms: N_3  and  C_4 
ROOT
HETATM    1  C   UNL     1      43.806 -19.507   2.114  1.00  0.00     0.143 A 
HETATM    2  N   UNL     1      43.855 -20.665   1.407  1.00  0.00    -0.223 NA
HETATM    3  C   UNL     1      44.149 -21.813   2.024  1.00  0.00     0.236 A 
HETATM    4  N   UNL     1      44.435 -21.979   3.308  1.00  0.00    -0.234 NA
HETATM    5  C   UNL     1      44.344 -20.835   4.005  1.00  0.00     0.114 A 
HETATM    6  C   UNL     1      43.991 -19.579   3.525  1.00  0.00     0.053 A 
HETATM    7  S   UNL     1      44.723 -20.844   5.657  1.00  0.00    -0.073 SA
HETATM    8  C   UNL     1      44.388 -19.183   5.814  1.00  0.00    -0.008 C 
HETATM    9  C   UNL     1      43.896 -18.628   4.639  1.00  0.00    -0.028 C 
HETATM   10  C   UNL     1      43.369 -17.217   4.582  1.00  0.00     0.041 C 
HETATM   11  C   UNL     1      42.308 -16.901   5.644  1.00  0.00     0.005 C 
HETATM   12  C   UNL     1      42.854 -16.676   7.052  1.00  0.00     0.001 C 
HETATM   13  C   UNL     1      43.353 -17.942   7.748  1.00  0.00     0.005 C 
HETATM   14  C   UNL     1      44.627 -18.511   7.136  1.00  0.00     0.047 C 
ENDROOT
BRANCH   1  15
HETATM   15  N   UNL     1      43.582 -18.302   1.424  1.00  0.00    -0.340 N 
HETATM   16  H   UNL     1      44.085 -18.237   0.554  1.00  0.00     0.167 HD
BRANCH  15  17
HETATM   17  C   UNL     1      42.485 -17.414   1.442  1.00  0.00     0.036 A 
HETATM   18  C   UNL     1      41.186 -17.785   1.802  1.00  0.00     0.032 A 
HETATM   19  C   UNL     1      40.139 -16.857   1.792  1.00  0.00     0.042 A 
HETATM   20  C   UNL     1      40.389 -15.524   1.479  1.00  0.00     0.102 A 
HETATM   21  C   UNL     1      41.685 -15.124   1.158  1.00  0.00     0.104 A 
HETATM   22  O   UNL     1      39.304 -14.697   1.401  1.00  0.00    -0.348 OA
HETATM   23  C   UNL     1      42.718 -16.065   1.126  1.00  0.00     0.069 A 
HETATM   24  O   UNL     1      42.005 -13.851   0.768  1.00  0.00    -0.348 OA
HETATM   25  C   UNL     1      41.723 -12.890   1.787  1.00  0.00     0.178 C 
HETATM   26  C   UNL     1      40.258 -12.483   1.801  1.00  0.00     0.053 C 
HETATM   27  C   UNL     1      39.383 -13.612   2.323  1.00  0.00     0.178 C 
ENDBRANCH  15  17
ENDBRANCH   1  15
TORSDOF 2
ENDMDL
MODEL 6
REMARK VINA RESULT:      -8.5      3.426      7.304
REMARK  2 active torsions:
REMARK  status: ('A' for Active; 'I' for Inactive)
REMARK    1  A    between atoms: C_2  and  N_3 
REMARK    2  A    between atoms: N_3  and  C_4 
ROOT
HETATM    1  C   UNL     1      40.531 -15.205   2.526  1.00  0.00     0.143 A 
HETATM    2  N   UNL     1      40.021 -14.669   3.665  1.00  0.00    -0.223 NA
HETATM    3  C   UNL     1      39.932 -13.343   3.798  1.00  0.00     0.236 A 
HETATM    4  N   UNL     1      40.318 -12.425   2.922  1.00  0.00    -0.234 NA
HETATM    5  C   UNL     1      40.783 -12.966   1.784  1.00  0.00     0.114 A 
HETATM    6  C   UNL     1      40.880 -14.316   1.468  1.00  0.00     0.053 A 
HETATM    7  S   UNL     1      41.368 -11.943   0.565  1.00  0.00    -0.073 SA
HETATM    8  C   UNL     1      41.733 -13.256  -0.456  1.00  0.00    -0.008 C 
HETATM    9  C   UNL     1      41.328 -14.473   0.079  1.00  0.00    -0.028 C 
HETATM   10  C   UNL     1      41.390 -15.753  -0.712  1.00  0.00     0.041 C 
HETATM   11  C   UNL     1      40.705 -15.676  -2.083  1.00  0.00     0.005 C 
HETATM   12  C   UNL     1      41.496 -14.934  -3.157  1.00  0.00     0.001 C 
HETATM   13  C   UNL     1      41.560 -13.419  -2.965  1.00  0.00     0.005 C 
HETATM   14  C   UNL     1      42.407 -12.992  -1.772  1.00  0.00     0.047 C 
ENDROOT
BRANCH   1  15
HETATM   15  N   UNL     1      40.695 -16.599   2.449  1.00  0.00    -0.340 N 
HETATM   16  H   UNL     1      40.190 -17.022   1.687  1.00  0.00     0.167 HD
BRANCH  15  17
HETATM   17  C   UNL     1      41.744 -17.435   2.886  1.00  0.00     0.036 A 
HETATM   18  C   UNL     1      42.308 -17.377   4.164  1.00  0.00     0.032 A 
HETATM   19  C   UNL     1      43.354 -18.229   4.534  1.00  0.00     0.042 A 
HETATM   20  C   UNL     1      43.814 -19.198   3.647  1.00  0.00     0.102 A 
HETATM   21  C   UNL     1      43.237 -19.301   2.381  1.00  0.00     0.104 A 
HETATM   22  O   UNL     1      44.896 -19.931   4.043  1.00  0.00    -0.348 OA
HETATM   23  C   UNL     1      42.223 -18.417   2.002  1.00  0.00     0.069 A 
HETATM   24  O   UNL     1      43.678 -20.175   1.423  1.00  0.00    -0.348 OA
HETATM   25  C   UNL     1      43.546 -21.536   1.836  1.00  0.00     0.178 C 
HETATM   26  C   UNL     1      44.700 -21.978   2.723  1.00  0.00     0.053 C 
HETATM   27  C   UNL     1      44.615 -21.328   4.095  1.00  0.00     0.178 C 
ENDBRANCH  15  17
ENDBRANCH   1  15
TORSDOF 2
ENDMDL
MODEL 7
REMARK VINA RESULT:      -8.3      3.342      5.251
REMARK  2 active torsions:
REMARK  status: ('A' for Active; 'I' for Inactive)
REMARK    1  A    between atoms: C_2  and  N_3 
REMARK    2  A    between atoms: N_3  and  C_4 
ROOT
HETATM    1  C   UNL     1      42.818 -15.654   2.915  1.00  0.00     0.143 A 
HETATM    2  N   UNL     1      42.368 -15.500   1.643  1.00  0.00    -0.223 NA
HETATM    3  C   UNL     1      42.369 -16.538   0.803  1.00  0.00     0.236 A 
HETATM    4  N   UNL     1      42.794 -17.769   1.055  1.00  0.00    -0.234 NA
HETATM    5  C   UNL     1      43.199 -17.921   2.326  1.00  0.00     0.114 A 
HETATM    6  C   UNL     1      43.201 -16.962   3.333  1.00  0.00     0.053 A 
HETATM    7  S   UNL     1      43.824 -19.418   2.819  1.00  0.00    -0.073 SA
HETATM    8  C   UNL     1      44.080 -18.866   4.409  1.00  0.00    -0.008 C 
HETATM    9  C   UNL     1      43.608 -17.573   4.604  1.00  0.00    -0.028 C 
HETATM   10  C   UNL     1      43.570 -16.935   5.968  1.00  0.00     0.041 C 
HETATM   11  C   UNL     1      42.862 -17.780   7.035  1.00  0.00     0.005 C 
HETATM   12  C   UNL     1      43.677 -18.955   7.571  1.00  0.00     0.001 C 
HETATM   13  C   UNL     1      43.844 -20.111   6.587  1.00  0.00     0.005 C 
HETATM   14  C   UNL     1      44.742 -19.778   5.401  1.00  0.00     0.047 C 
ENDROOT
BRANCH   1  15
HETATM   15  N   UNL     1      42.888 -14.525   3.750  1.00  0.00    -0.340 N 
HETATM   16  H   UNL     1      43.616 -13.878   3.492  1.00  0.00     0.167 HD
BRANCH  15  17
HETATM   17  C   UNL     1      41.903 -13.889   4.535  1.00  0.00     0.036 A 
HETATM   18  C   UNL     1      40.710 -14.500   4.934  1.00  0.00     0.032 A 
HETATM   19  C   UNL     1      39.768 -13.812   5.707  1.00  0.00     0.042 A 
HETATM   20  C   UNL     1      40.033 -12.517   6.144  1.00  0.00     0.102 A 
HETATM   21  C   UNL     1      41.235 -11.905   5.792  1.00  0.00     0.104 A 
HETATM   22  O   UNL     1      39.030 -11.877   6.815  1.00  0.00    -0.348 OA
HETATM   23  C   UNL     1      42.152 -12.581   4.982  1.00  0.00     0.069 A 
HETATM   24  O   UNL     1      41.542 -10.610   6.116  1.00  0.00    -0.348 OA
HETATM   25  C   UNL     1      41.600 -10.410   7.530  1.00  0.00     0.178 C 
HETATM   26  C   UNL     1      40.220 -10.199   8.133  1.00  0.00     0.053 C 
HETATM   27  C   UNL     1      39.419 -11.492   8.132  1.00  0.00     0.178 C 
ENDBRANCH  15  17
ENDBRANCH   1  15
TORSDOF 2
ENDMDL
MODEL 8
REMARK VINA RESULT:      -8.2      2.384      3.502
REMARK  2 active torsions:
REMARK  status: ('A' for Active; 'I' for Inactive)
REMARK    1  A    between atoms: C_2  and  N_3 
REMARK    2  A    between atoms: N_3  and  C_4 
ROOT
HETATM    1  C   UNL     1      39.915 -14.757   1.977  1.00  0.00     0.143 A 
HETATM    2  N   UNL     1      39.398 -13.614   2.498  1.00  0.00    -0.223 NA
HETATM    3  C   UNL     1      39.576 -13.328   3.790  1.00  0.00     0.236 A 
HETATM    4  N   UNL     1      40.211 -14.066   4.691  1.00  0.00    -0.234 NA
HETATM    5  C   UNL     1      40.751 -15.173   4.158  1.00  0.00     0.114 A 
HETATM    6  C   UNL     1      40.710 -15.578   2.829  1.00  0.00     0.053 A 
HETATM    7  S   UNL     1      41.562 -16.265   5.171  1.00  0.00    -0.073 SA
HETATM    8  C   UNL     1      41.933 -17.301   3.873  1.00  0.00    -0.008 C 
HETATM    9  C   UNL     1      41.528 -16.783   2.648  1.00  0.00    -0.028 C 
HETATM   10  C   UNL     1      41.898 -17.439   1.343  1.00  0.00     0.041 C 
HETATM   11  C   UNL     1      43.399 -17.710   1.182  1.00  0.00     0.005 C 
HETATM   12  C   UNL     1      43.926 -18.907   1.970  1.00  0.00     0.001 C 
HETATM   13  C   UNL     1      44.001 -18.687   3.481  1.00  0.00     0.005 C 
HETATM   14  C   UNL     1      42.635 -18.599   4.152  1.00  0.00     0.047 C 
ENDROOT
BRANCH   1  15
HETATM   15  N   UNL     1      39.637 -15.076   0.636  1.00  0.00    -0.340 N 
HETATM   16  H   UNL     1      38.919 -15.774   0.529  1.00  0.00     0.167 HD
BRANCH  15  17
HETATM   17  C   UNL     1      39.790 -14.322  -0.547  1.00  0.00     0.036 A 
HETATM   18  C   UNL     1      38.728 -13.946  -1.375  1.00  0.00     0.032 A 
HETATM   19  C   UNL     1      38.947 -13.203  -2.540  1.00  0.00     0.042 A 
HETATM   20  C   UNL     1      40.230 -12.772  -2.864  1.00  0.00     0.102 A 
HETATM   21  C   UNL     1      41.297 -13.099  -2.030  1.00  0.00     0.104 A 
HETATM   22  O   UNL     1      40.379 -12.131  -4.062  1.00  0.00    -0.348 OA
HETATM   23  C   UNL     1      41.078 -13.880  -0.891  1.00  0.00     0.069 A 
HETATM   24  O   UNL     1      42.598 -12.779  -2.311  1.00  0.00    -0.348 OA
HETATM   25  C   UNL     1      42.801 -11.366  -2.382  1.00  0.00     0.178 C 
HETATM   26  C   UNL     1      42.402 -10.799  -3.736  1.00  0.00     0.053 C 
HETATM   27  C   UNL     1      40.891 -10.809  -3.909  1.00  0.00     0.178 C 
ENDBRANCH  15  17
ENDBRANCH   1  15
TORSDOF 2
ENDMDL
MODEL 9
REMARK VINA RESULT:      -8.1      3.869      7.798
REMARK  2 active torsions:
REMARK  status: ('A' for Active; 'I' for Inactive)
REMARK    1  A    between atoms: C_2  and  N_3 
REMARK    2  A    between atoms: N_3  and  C_4 
ROOT
HETATM    1  C   UNL     1      40.540 -15.627   1.801  1.00  0.00     0.143 A 
HETATM    2  N   UNL     1      41.014 -15.815   0.542  1.00  0.00    -0.223 NA
HETATM    3  C   UNL     1      41.047 -14.795  -0.319  1.00  0.00     0.236 A 
HETATM    4  N   UNL     1      40.636 -13.553  -0.102  1.00  0.00    -0.234 NA
HETATM    5  C   UNL     1      40.207 -13.368   1.156  1.00  0.00     0.114 A 
HETATM    6  C   UNL     1      40.168 -14.305   2.183  1.00  0.00     0.053 A 
HETATM    7  S   UNL     1      39.596 -11.851   1.604  1.00  0.00    -0.073 SA
HETATM    8  C   UNL     1      39.297 -12.365   3.199  1.00  0.00    -0.008 C 
HETATM    9  C   UNL     1      39.744 -13.660   3.431  1.00  0.00    -0.028 C 
HETATM   10  C   UNL     1      39.744 -14.269   4.809  1.00  0.00     0.041 C 
HETATM   11  C   UNL     1      40.443 -13.412   5.873  1.00  0.00     0.005 C 
HETATM   12  C   UNL     1      39.635 -12.214   6.367  1.00  0.00     0.001 C 
HETATM   13  C   UNL     1      39.507 -11.076   5.355  1.00  0.00     0.005 C 
HETATM   14  C   UNL     1      38.629 -11.421   4.158  1.00  0.00     0.047 C 
ENDROOT
BRANCH   1  15
HETATM   15  N   UNL     1      40.434 -16.737   2.658  1.00  0.00    -0.340 N 
HETATM   16  H   UNL     1      39.696 -17.373   2.403  1.00  0.00     0.167 HD
BRANCH  15  17
HETATM   17  C   UNL     1      41.395 -17.376   3.469  1.00  0.00     0.036 A 
HETATM   18  C   UNL     1      41.363 -17.372   4.867  1.00  0.00     0.032 A 
HETATM   19  C   UNL     1      42.352 -18.019   5.616  1.00  0.00     0.042 A 
HETATM   20  C   UNL     1      43.360 -18.734   4.975  1.00  0.00     0.102 A 
HETATM   21  C   UNL     1      43.387 -18.786   3.582  1.00  0.00     0.104 A 
HETATM   22  O   UNL     1      44.340 -19.261   5.767  1.00  0.00    -0.348 OA
HETATM   23  C   UNL     1      42.422 -18.099   2.839  1.00  0.00     0.069 A 
HETATM   24  O   UNL     1      44.381 -19.403   2.871  1.00  0.00    -0.348 OA
HETATM   25  C   UNL     1      44.447 -20.804   3.145  1.00  0.00     0.178 C 
HETATM   26  C   UNL     1      45.219 -21.102   4.421  1.00  0.00     0.053 C 
HETATM   27  C   UNL     1      44.427 -20.680   5.649  1.00  0.00     0.178 C 
ENDBRANCH  15  17
ENDBRANCH   1  15
TORSDOF 2
ENDMDL
MODEL 10
REMARK VINA RESULT:      -8.1      3.639      7.229
REMARK  2 active torsions:
REMARK  status: ('A' for Active; 'I' for Inactive)
REMARK    1  A    between atoms: C_2  and  N_3 
REMARK    2  A    between atoms: N_3  and  C_4 
ROOT
HETATM    1  C   UNL     1      40.074 -14.748   2.280  1.00  0.00     0.143 A 
HETATM    2  N   UNL     1      39.506 -14.113   3.338  1.00  0.00    -0.223 NA
HETATM    3  C   UNL     1      39.494 -12.779   3.390  1.00  0.00     0.236 A 
HETATM    4  N   UNL     1      40.014 -11.941   2.503  1.00  0.00    -0.234 NA
HETATM    5  C   UNL     1      40.537 -12.577   1.443  1.00  0.00     0.114 A 
HETATM    6  C   UNL     1      40.571 -13.947   1.211  1.00  0.00     0.053 A 
HETATM    7  S   UNL     1      41.291 -11.668   0.226  1.00  0.00    -0.073 SA
HETATM    8  C   UNL     1      41.654 -13.059  -0.685  1.00  0.00    -0.008 C 
HETATM    9  C   UNL     1      41.124 -14.214  -0.122  1.00  0.00    -0.028 C 
HETATM   10  C   UNL     1      41.168 -15.541  -0.834  1.00  0.00     0.041 C 
HETATM   11  C   UNL     1      40.609 -15.505  -2.262  1.00  0.00     0.005 C 
HETATM   12  C   UNL     1      41.538 -14.879  -3.301  1.00  0.00     0.001 C 
HETATM   13  C   UNL     1      41.685 -13.363  -3.187  1.00  0.00     0.005 C 
HETATM   14  C   UNL     1      42.454 -12.917  -1.948  1.00  0.00     0.047 C 
ENDROOT
BRANCH   1  15
HETATM   15  N   UNL     1      40.150 -16.152   2.294  1.00  0.00    -0.340 N 
HETATM   16  H   UNL     1      39.646 -16.590   1.541  1.00  0.00     0.167 HD
BRANCH  15  17
HETATM   17  C   UNL     1      41.129 -17.022   2.821  1.00  0.00     0.036 A 
HETATM   18  C   UNL     1      41.943 -17.845   2.038  1.00  0.00     0.032 A 
HETATM   19  C   UNL     1      42.891 -18.692   2.622  1.00  0.00     0.042 A 
HETATM   20  C   UNL     1      43.081 -18.685   4.000  1.00  0.00     0.102 A 
HETATM   21  C   UNL     1      42.308 -17.841   4.797  1.00  0.00     0.104 A 
HETATM   22  O   UNL     1      43.957 -19.603   4.506  1.00  0.00    -0.348 OA
HETATM   23  C   UNL     1      41.331 -17.030   4.211  1.00  0.00     0.069 A 
HETATM   24  O   UNL     1      42.377 -17.824   6.164  1.00  0.00    -0.348 OA
HETATM   25  C   UNL     1      43.673 -17.442   6.631  1.00  0.00     0.178 C 
HETATM   26  C   UNL     1      44.649 -18.608   6.628  1.00  0.00     0.053 C 
HETATM   27  C   UNL     1      45.037 -18.992   5.208  1.00  0.00     0.178 C 
ENDBRANCH  15  17
ENDBRANCH   1  15
TORSDOF 2
ENDMDL
