MODEL 1
REMARK VINA RESULT:      -8.5      0.000      0.000
REMARK  5 active torsions:
REMARK  status: ('A' for Active; 'I' for Inactive)
REMARK    1  A    between atoms: C_9  and  C_10 
REMARK    2  A    between atoms: C_11  and  O_12 
REMARK    3  A    between atoms: O_12  and  C_13 
REMARK    4  A    between atoms: C_20  and  C_21 
REMARK       I    between atoms: C_21  and  N_22 
REMARK    5  A    between atoms: N_22  and  C_23 
ROOT
HETATM    1  C   UNL     1      41.521 -16.350  -0.052  1.00  0.00     0.070 C 
HETATM    2  C   UNL     1      41.744 -15.642   1.261  1.00  0.00     0.037 C 
HETATM    3  N   UNL     1      41.027 -14.459   1.430  1.00  0.00    -0.192 N 
HETATM    4  C   UNL     1      41.332 -13.555   2.383  1.00  0.00     0.725 A 
HETATM    5  N   UNL     1      42.240 -13.880   3.353  1.00  0.00    -0.084 N 
HETATM    6  N   UNL     1      42.519 -12.815   4.139  1.00  0.00    -0.149 NA
HETATM    7  C   UNL     1      41.682 -11.907   3.624  1.00  0.00     0.275 A 
HETATM    8  N   UNL     1      40.939 -12.318   2.547  1.00  0.00    -0.054 NA
HETATM    9  C   UNL     1      42.885 -15.193   3.467  1.00  0.00     0.205 C 
HETATM   10  C   UNL     1      42.623 -16.034   2.217  1.00  0.00     0.063 C 
HETATM   11  H   UNL     1      40.457 -14.142   0.650  1.00  0.00     0.184 HD
ENDROOT
BRANCH   9  12
HETATM   12  C   UNL     1      42.418 -15.863   4.763  1.00  0.00     0.005 A 
HETATM   13  C   UNL     1      43.224 -15.818   5.920  1.00  0.00     0.083 A 
HETATM   14  C   UNL     1      42.780 -16.418   7.103  1.00  0.00     0.037 A 
HETATM   15  C   UNL     1      41.524 -17.022   7.164  1.00  0.00     0.003 A 
HETATM   16  C   UNL     1      40.703 -17.035   6.042  1.00  0.00     0.001 A 
HETATM   17  C   UNL     1      41.143 -16.458   4.851  1.00  0.00     0.012 A 
BRANCH  13  18
HETATM   18  O   UNL     1      44.434 -15.194   5.795  1.00  0.00    -0.290 OA
BRANCH  18  19
HETATM   19  C   UNL     1      44.812 -14.272   6.811  1.00  0.00     0.505 C 
HETATM   20  F   UNL     1      45.971 -13.647   6.494  1.00  0.00    -0.184 F 
HETATM   21  F   UNL     1      43.848 -13.328   6.943  1.00  0.00    -0.184 F 
ENDBRANCH  18  19
ENDBRANCH  13  18
ENDBRANCH   9  12
BRANCH  10  22
HETATM   22  C   UNL     1      43.513 -17.221   2.090  1.00  0.00     0.256 C 
HETATM   23  N   UNL     1      43.050 -18.330   2.765  1.00  0.00    -0.323 N 
HETATM   24  H   UNL     1      42.200 -18.222   3.303  1.00  0.00     0.169 HD
HETATM   25  O   UNL     1      44.545 -17.116   1.442  1.00  0.00    -0.267 OA
BRANCH  23  26
HETATM   26  C   UNL     1      43.601 -19.630   2.747  1.00  0.00     0.035 A 
HETATM   27  C   UNL     1      43.439 -20.531   1.694  1.00  0.00     0.029 A 
HETATM   28  C   UNL     1      43.991 -21.815   1.766  1.00  0.00     0.002 A 
HETATM   29  C   UNL     1      44.705 -22.209   2.895  1.00  0.00     0.000 A 
HETATM   30  C   UNL     1      44.876 -21.317   3.950  1.00  0.00     0.002 A 
HETATM   31  C   UNL     1      44.330 -20.032   3.874  1.00  0.00     0.029 A 
ENDBRANCH  23  26
ENDBRANCH  10  22
TORSDOF 5
ENDMDL
MODEL 2
REMARK VINA RESULT:      -8.1      2.811      4.707
REMARK  5 active torsions:
REMARK  status: ('A' for Active; 'I' for Inactive)
REMARK    1  A    between atoms: C_9  and  C_10 
REMARK    2  A    between atoms: C_11  and  O_12 
REMARK    3  A    between atoms: O_12  and  C_13 
REMARK    4  A    between atoms: C_20  and  C_21 
REMARK       I    between atoms: C_21  and  N_22 
REMARK    5  A    between atoms: N_22  and  C_23 
ROOT
HETATM    1  C   UNL     1      44.388 -15.125   6.198  1.00  0.00     0.070 C 
HETATM    2  C   UNL     1      43.144 -14.689   5.465  1.00  0.00     0.037 C 
HETATM    3  N   UNL     1      42.379 -13.720   6.110  1.00  0.00    -0.192 N 
HETATM    4  C   UNL     1      41.105 -13.448   5.760  1.00  0.00     0.725 A 
HETATM    5  N   UNL     1      40.593 -13.986   4.611  1.00  0.00    -0.084 N 
HETATM    6  N   UNL     1      39.273 -13.716   4.490  1.00  0.00    -0.149 NA
HETATM    7  C   UNL     1      39.081 -12.948   5.570  1.00  0.00     0.275 A 
HETATM    8  N   UNL     1      40.176 -12.761   6.374  1.00  0.00    -0.054 NA
HETATM    9  C   UNL     1      41.364 -14.815   3.679  1.00  0.00     0.205 C 
HETATM   10  C   UNL     1      42.704 -15.221   4.296  1.00  0.00     0.063 C 
HETATM   11  H   UNL     1      42.685 -13.421   7.032  1.00  0.00     0.184 HD
ENDROOT
BRANCH   9  12
HETATM   12  C   UNL     1      41.506 -14.066   2.350  1.00  0.00     0.005 A 
HETATM   13  C   UNL     1      41.047 -14.648   1.150  1.00  0.00     0.083 A 
HETATM   14  C   UNL     1      41.165 -13.946  -0.055  1.00  0.00     0.037 A 
HETATM   15  C   UNL     1      41.692 -12.655  -0.075  1.00  0.00     0.003 A 
HETATM   16  C   UNL     1      42.109 -12.054   1.108  1.00  0.00     0.001 A 
HETATM   17  C   UNL     1      42.015 -12.751   2.312  1.00  0.00     0.012 A 
BRANCH  13  18
HETATM   18  O   UNL     1      40.525 -15.908   1.246  1.00  0.00    -0.290 OA
BRANCH  18  19
HETATM   19  C   UNL     1      41.053 -16.910   0.384  1.00  0.00     0.505 C 
HETATM   20  F   UNL     1      42.407 -16.865   0.358  1.00  0.00    -0.184 F 
HETATM   21  F   UNL     1      40.682 -18.133   0.837  1.00  0.00    -0.184 F 
ENDBRANCH  18  19
ENDBRANCH  13  18
ENDBRANCH   9  12
BRANCH  10  22
HETATM   22  C   UNL     1      43.387 -16.333   3.581  1.00  0.00     0.256 C 
HETATM   23  N   UNL     1      43.162 -17.571   4.143  1.00  0.00    -0.323 N 
HETATM   24  H   UNL     1      42.607 -17.599   4.989  1.00  0.00     0.169 HD
HETATM   25  O   UNL     1      44.079 -16.068   2.606  1.00  0.00    -0.267 OA
BRANCH  23  26
HETATM   26  C   UNL     1      43.572 -18.824   3.639  1.00  0.00     0.035 A 
HETATM   27  C   UNL     1      43.182 -19.331   2.398  1.00  0.00     0.029 A 
HETATM   28  C   UNL     1      43.607 -20.598   1.983  1.00  0.00     0.002 A 
HETATM   29  C   UNL     1      44.421 -21.370   2.808  1.00  0.00     0.000 A 
HETATM   30  C   UNL     1      44.819 -20.872   4.046  1.00  0.00     0.002 A 
HETATM   31  C   UNL     1      44.400 -19.604   4.457  1.00  0.00     0.029 A 
ENDBRANCH  23  26
ENDBRANCH  10  22
TORSDOF 5
ENDMDL
MODEL 3
REMARK VINA RESULT:      -7.9      2.722      4.168
REMARK  5 active torsions:
REMARK  status: ('A' for Active; 'I' for Inactive)
REMARK    1  A    between atoms: C_9  and  C_10 
REMARK    2  A    between atoms: C_11  and  O_12 
REMARK    3  A    between atoms: O_12  and  C_13 
REMARK    4  A    between atoms: C_20  and  C_21 
REMARK       I    between atoms: C_21  and  N_22 
REMARK    5  A    between atoms: N_22  and  C_23 
ROOT
HETATM    1  C   UNL     1      40.986 -15.862  -2.138  1.00  0.00     0.070 C 
HETATM    2  C   UNL     1      41.261 -14.608  -1.347  1.00  0.00     0.037 C 
HETATM    3  N   UNL     1      41.333 -13.435  -2.093  1.00  0.00    -0.192 N 
HETATM    4  C   UNL     1      41.869 -12.296  -1.608  1.00  0.00     0.725 A 
HETATM    5  N   UNL     1      42.173 -12.209  -0.276  1.00  0.00    -0.084 N 
HETATM    6  N   UNL     1      42.817 -11.054   0.005  1.00  0.00    -0.149 NA
HETATM    7  C   UNL     1      42.798 -10.466  -1.197  1.00  0.00     0.275 A 
HETATM    8  N   UNL     1      42.228 -11.193  -2.211  1.00  0.00    -0.054 NA
HETATM    9  C   UNL     1      41.903 -13.273   0.698  1.00  0.00     0.205 C 
HETATM   10  C   UNL     1      41.507 -14.569  -0.012  1.00  0.00     0.063 C 
HETATM   11  H   UNL     1      41.247 -13.517  -3.103  1.00  0.00     0.184 HD
ENDROOT
BRANCH   9  12
HETATM   12  C   UNL     1      40.852 -12.777   1.695  1.00  0.00     0.005 A 
HETATM   13  C   UNL     1      41.216 -12.472   3.023  1.00  0.00     0.083 A 
HETATM   14  C   UNL     1      40.251 -12.002   3.921  1.00  0.00     0.037 A 
HETATM   15  C   UNL     1      38.938 -11.788   3.502  1.00  0.00     0.003 A 
HETATM   16  C   UNL     1      38.577 -12.044   2.184  1.00  0.00     0.001 A 
HETATM   17  C   UNL     1      39.525 -12.532   1.285  1.00  0.00     0.012 A 
BRANCH  13  18
HETATM   18  O   UNL     1      42.523 -12.688   3.360  1.00  0.00    -0.290 OA
BRANCH  18  19
HETATM   19  C   UNL     1      42.788 -13.517   4.487  1.00  0.00     0.505 C 
HETATM   20  F   UNL     1      42.063 -14.660   4.431  1.00  0.00    -0.184 F 
HETATM   21  F   UNL     1      44.101 -13.853   4.499  1.00  0.00    -0.184 F 
ENDBRANCH  18  19
ENDBRANCH  13  18
ENDBRANCH   9  12
BRANCH  10  22
HETATM   22  C   UNL     1      41.558 -15.776   0.858  1.00  0.00     0.256 C 
HETATM   23  N   UNL     1      42.831 -16.276   1.029  1.00  0.00    -0.323 N 
HETATM   24  H   UNL     1      43.579 -15.817   0.526  1.00  0.00     0.169 HD
HETATM   25  O   UNL     1      40.513 -16.217   1.315  1.00  0.00    -0.267 OA
BRANCH  23  26
HETATM   26  C   UNL     1      43.224 -17.332   1.880  1.00  0.00     0.035 A 
HETATM   27  C   UNL     1      43.522 -17.174   3.234  1.00  0.00     0.029 A 
HETATM   28  C   UNL     1      43.936 -18.267   4.003  1.00  0.00     0.002 A 
HETATM   29  C   UNL     1      44.060 -19.527   3.422  1.00  0.00     0.000 A 
HETATM   30  C   UNL     1      43.762 -19.697   2.073  1.00  0.00     0.002 A 
HETATM   31  C   UNL     1      43.343 -18.606   1.307  1.00  0.00     0.029 A 
ENDBRANCH  23  26
ENDBRANCH  10  22
TORSDOF 5
ENDMDL
MODEL 4
REMARK VINA RESULT:      -7.7      4.057      6.249
REMARK  5 active torsions:
REMARK  status: ('A' for Active; 'I' for Inactive)
REMARK    1  A    between atoms: C_9  and  C_10 
REMARK    2  A    between atoms: C_11  and  O_12 
REMARK    3  A    between atoms: O_12  and  C_13 
REMARK    4  A    between atoms: C_20  and  C_21 
REMARK       I    between atoms: C_21  and  N_22 
REMARK    5  A    between atoms: N_22  and  C_23 
ROOT
HETATM    1  C   UNL     1      40.566 -13.352   4.689  1.00  0.00     0.070 C 
HETATM    2  C   UNL     1      40.210 -13.269   3.227  1.00  0.00     0.037 C 
HETATM    3  N   UNL     1      39.101 -12.483   2.925  1.00  0.00    -0.192 N 
HETATM    4  C   UNL     1      38.466 -12.546   1.737  1.00  0.00     0.725 A 
HETATM    5  N   UNL     1      39.032 -13.248   0.708  1.00  0.00    -0.084 N 
HETATM    6  N   UNL     1      38.201 -13.313  -0.356  1.00  0.00    -0.149 NA
HETATM    7  C   UNL     1      37.184 -12.562   0.083  1.00  0.00     0.275 A 
HETATM    8  N   UNL     1      37.306 -12.075   1.359  1.00  0.00    -0.054 NA
HETATM    9  C   UNL     1      40.339 -13.911   0.789  1.00  0.00     0.205 C 
HETATM   10  C   UNL     1      40.838 -13.949   2.234  1.00  0.00     0.063 C 
HETATM   11  H   UNL     1      38.593 -12.073   3.705  1.00  0.00     0.184 HD
ENDROOT
BRANCH   9  12
HETATM   12  C   UNL     1      41.307 -13.218  -0.174  1.00  0.00     0.005 A 
HETATM   13  C   UNL     1      41.609 -13.798  -1.424  1.00  0.00     0.083 A 
HETATM   14  C   UNL     1      42.481 -13.147  -2.303  1.00  0.00     0.037 A 
HETATM   15  C   UNL     1      43.019 -11.903  -1.975  1.00  0.00     0.003 A 
HETATM   16  C   UNL     1      42.694 -11.300  -0.765  1.00  0.00     0.001 A 
HETATM   17  C   UNL     1      41.843 -11.949   0.128  1.00  0.00     0.012 A 
BRANCH  13  18
HETATM   18  O   UNL     1      41.032 -15.010  -1.687  1.00  0.00    -0.290 OA
BRANCH  18  19
HETATM   19  C   UNL     1      40.646 -15.281  -3.030  1.00  0.00     0.505 C 
HETATM   20  F   UNL     1      40.271 -16.574  -3.176  1.00  0.00    -0.184 F 
HETATM   21  F   UNL     1      39.590 -14.497  -3.361  1.00  0.00    -0.184 F 
ENDBRANCH  18  19
ENDBRANCH  13  18
ENDBRANCH   9  12
BRANCH  10  22
HETATM   22  C   UNL     1      41.964 -14.896   2.460  1.00  0.00     0.256 C 
HETATM   23  N   UNL     1      41.560 -16.206   2.605  1.00  0.00    -0.323 N 
HETATM   24  H   UNL     1      40.566 -16.387   2.590  1.00  0.00     0.169 HD
HETATM   25  O   UNL     1      43.104 -14.453   2.515  1.00  0.00    -0.267 OA
BRANCH  23  26
HETATM   26  C   UNL     1      42.387 -17.345   2.717  1.00  0.00     0.035 A 
HETATM   27  C   UNL     1      42.791 -18.126   1.633  1.00  0.00     0.029 A 
HETATM   28  C   UNL     1      43.586 -19.260   1.831  1.00  0.00     0.002 A 
HETATM   29  C   UNL     1      43.980 -19.625   3.116  1.00  0.00     0.000 A 
HETATM   30  C   UNL     1      43.586 -18.851   4.204  1.00  0.00     0.002 A 
HETATM   31  C   UNL     1      42.798 -17.715   4.005  1.00  0.00     0.029 A 
ENDBRANCH  23  26
ENDBRANCH  10  22
TORSDOF 5
ENDMDL
MODEL 5
REMARK VINA RESULT:      -7.6      1.985      2.786
REMARK  5 active torsions:
REMARK  status: ('A' for Active; 'I' for Inactive)
REMARK    1  A    between atoms: C_9  and  C_10 
REMARK    2  A    between atoms: C_11  and  O_12 
REMARK    3  A    between atoms: O_12  and  C_13 
REMARK    4  A    between atoms: C_20  and  C_21 
REMARK       I    between atoms: C_21  and  N_22 
REMARK    5  A    between atoms: N_22  and  C_23 
ROOT
HETATM    1  C   UNL     1      40.587 -17.544   0.788  1.00  0.00     0.070 C 
HETATM    2  C   UNL     1      40.970 -16.138   1.176  1.00  0.00     0.037 C 
HETATM    3  N   UNL     1      40.660 -15.155   0.240  1.00  0.00    -0.192 N 
HETATM    4  C   UNL     1      41.197 -13.918   0.279  1.00  0.00     0.725 A 
HETATM    5  N   UNL     1      41.915 -13.531   1.377  1.00  0.00    -0.084 N 
HETATM    6  N   UNL     1      42.485 -12.320   1.188  1.00  0.00    -0.149 NA
HETATM    7  C   UNL     1      42.002 -12.010  -0.021  1.00  0.00     0.275 A 
HETATM    8  N   UNL     1      41.212 -12.962  -0.613  1.00  0.00    -0.054 NA
HETATM    9  C   UNL     1      42.104 -14.365   2.570  1.00  0.00     0.205 C 
HETATM   10  C   UNL     1      41.639 -15.799   2.307  1.00  0.00     0.063 C 
HETATM   11  H   UNL     1      40.253 -15.460  -0.641  1.00  0.00     0.184 HD
ENDROOT
BRANCH   9  12
HETATM   12  C   UNL     1      41.396 -13.702   3.755  1.00  0.00     0.005 A 
HETATM   13  C   UNL     1      42.139 -13.237   4.860  1.00  0.00     0.083 A 
HETATM   14  C   UNL     1      41.484 -12.616   5.930  1.00  0.00     0.037 A 
HETATM   15  C   UNL     1      40.105 -12.410   5.893  1.00  0.00     0.003 A 
HETATM   16  C   UNL     1      39.368 -12.826   4.790  1.00  0.00     0.001 A 
HETATM   17  C   UNL     1      40.006 -13.464   3.727  1.00  0.00     0.012 A 
BRANCH  13  18
HETATM   18  O   UNL     1      43.488 -13.455   4.822  1.00  0.00    -0.290 OA
BRANCH  18  19
HETATM   19  C   UNL     1      44.093 -14.067   5.956  1.00  0.00     0.505 C 
HETATM   20  F   UNL     1      44.061 -15.417   5.854  1.00  0.00    -0.184 F 
HETATM   21  F   UNL     1      45.390 -13.683   6.036  1.00  0.00    -0.184 F 
ENDBRANCH  18  19
ENDBRANCH  13  18
ENDBRANCH   9  12
BRANCH  10  22
HETATM   22  C   UNL     1      42.110 -16.783   3.320  1.00  0.00     0.256 C 
HETATM   23  N   UNL     1      43.047 -17.668   2.832  1.00  0.00    -0.323 N 
HETATM   24  H   UNL     1      43.285 -17.596   1.852  1.00  0.00     0.169 HD
HETATM   25  O   UNL     1      41.634 -16.740   4.446  1.00  0.00    -0.267 OA
BRANCH  23  26
HETATM   26  C   UNL     1      43.765 -18.638   3.566  1.00  0.00     0.035 A 
HETATM   27  C   UNL     1      44.242 -18.442   4.863  1.00  0.00     0.029 A 
HETATM   28  C   UNL     1      44.973 -19.444   5.510  1.00  0.00     0.002 A 
HETATM   29  C   UNL     1      45.238 -20.648   4.864  1.00  0.00     0.000 A 
HETATM   30  C   UNL     1      44.764 -20.856   3.571  1.00  0.00     0.002 A 
HETATM   31  C   UNL     1      44.028 -19.858   2.927  1.00  0.00     0.029 A 
ENDBRANCH  23  26
ENDBRANCH  10  22
TORSDOF 5
ENDMDL
MODEL 6
REMARK VINA RESULT:      -7.6      2.872      5.447
REMARK  5 active torsions:
REMARK  status: ('A' for Active; 'I' for Inactive)
REMARK    1  A    between atoms: C_9  and  C_10 
REMARK    2  A    between atoms: C_11  and  O_12 
REMARK    3  A    between atoms: O_12  and  C_13 
REMARK    4  A    between atoms: C_20  and  C_21 
REMARK       I    between atoms: C_21  and  N_22 
REMARK    5  A    between atoms: N_22  and  C_23 
ROOT
HETATM    1  C   UNL     1      39.852 -13.260   5.073  1.00  0.00     0.070 C 
HETATM    2  C   UNL     1      41.206 -13.878   5.314  1.00  0.00     0.037 C 
HETATM    3  N   UNL     1      41.893 -13.398   6.427  1.00  0.00    -0.192 N 
HETATM    4  C   UNL     1      43.213 -13.604   6.612  1.00  0.00     0.725 A 
HETATM    5  N   UNL     1      43.878 -14.479   5.797  1.00  0.00    -0.084 N 
HETATM    6  N   UNL     1      45.208 -14.460   6.040  1.00  0.00    -0.149 NA
HETATM    7  C   UNL     1      45.256 -13.602   7.066  1.00  0.00     0.275 A 
HETATM    8  N   UNL     1      44.057 -13.054   7.446  1.00  0.00    -0.054 NA
HETATM    9  C   UNL     1      43.233 -15.271   4.744  1.00  0.00     0.205 C 
HETATM   10  C   UNL     1      41.803 -14.785   4.499  1.00  0.00     0.063 C 
HETATM   11  H   UNL     1      41.459 -12.645   6.955  1.00  0.00     0.184 HD
ENDROOT
BRANCH   9  12
HETATM   12  C   UNL     1      43.318 -16.754   5.116  1.00  0.00     0.005 A 
HETATM   13  C   UNL     1      43.733 -17.707   4.163  1.00  0.00     0.083 A 
HETATM   14  C   UNL     1      43.825 -19.057   4.520  1.00  0.00     0.037 A 
HETATM   15  C   UNL     1      43.554 -19.465   5.825  1.00  0.00     0.003 A 
HETATM   16  C   UNL     1      43.186 -18.529   6.785  1.00  0.00     0.001 A 
HETATM   17  C   UNL     1      43.071 -17.184   6.437  1.00  0.00     0.012 A 
BRANCH  13  18
HETATM   18  O   UNL     1      44.000 -17.235   2.908  1.00  0.00    -0.290 OA
BRANCH  18  19
HETATM   19  C   UNL     1      43.771 -18.111   1.808  1.00  0.00     0.505 C 
HETATM   20  F   UNL     1      42.449 -18.358   1.651  1.00  0.00    -0.184 F 
HETATM   21  F   UNL     1      44.228 -17.532   0.671  1.00  0.00    -0.184 F 
ENDBRANCH  18  19
ENDBRANCH  13  18
ENDBRANCH   9  12
BRANCH  10  22
HETATM   22  C   UNL     1      41.203 -15.283   3.232  1.00  0.00     0.256 C 
HETATM   23  N   UNL     1      41.353 -14.413   2.173  1.00  0.00    -0.323 N 
HETATM   24  H   UNL     1      41.803 -13.528   2.363  1.00  0.00     0.169 HD
HETATM   25  O   UNL     1      40.634 -16.366   3.236  1.00  0.00    -0.267 OA
BRANCH  23  26
HETATM   26  C   UNL     1      40.999 -14.642   0.826  1.00  0.00     0.035 A 
HETATM   27  C   UNL     1      41.567 -15.636   0.027  1.00  0.00     0.029 A 
HETATM   28  C   UNL     1      41.184 -15.778  -1.311  1.00  0.00     0.002 A 
HETATM   29  C   UNL     1      40.233 -14.923  -1.863  1.00  0.00     0.000 A 
HETATM   30  C   UNL     1      39.657 -13.930  -1.075  1.00  0.00     0.002 A 
HETATM   31  C   UNL     1      40.036 -13.793   0.264  1.00  0.00     0.029 A 
ENDBRANCH  23  26
ENDBRANCH  10  22
TORSDOF 5
ENDMDL
MODEL 7
REMARK VINA RESULT:      -7.5      2.629      4.323
REMARK  5 active torsions:
REMARK  status: ('A' for Active; 'I' for Inactive)
REMARK    1  A    between atoms: C_9  and  C_10 
REMARK    2  A    between atoms: C_11  and  O_12 
REMARK    3  A    between atoms: O_12  and  C_13 
REMARK    4  A    between atoms: C_20  and  C_21 
REMARK       I    between atoms: C_21  and  N_22 
REMARK    5  A    between atoms: N_22  and  C_23 
ROOT
HETATM    1  C   UNL     1      41.551 -16.983   0.344  1.00  0.00     0.070 C 
HETATM    2  C   UNL     1      41.596 -15.490   0.554  1.00  0.00     0.037 C 
HETATM    3  N   UNL     1      41.620 -14.724  -0.609  1.00  0.00    -0.192 N 
HETATM    4  C   UNL     1      41.969 -13.421  -0.614  1.00  0.00     0.725 A 
HETATM    5  N   UNL     1      42.112 -12.758   0.575  1.00  0.00    -0.084 N 
HETATM    6  N   UNL     1      42.590 -11.508   0.383  1.00  0.00    -0.149 NA
HETATM    7  C   UNL     1      42.639 -11.468  -0.953  1.00  0.00     0.275 A 
HETATM    8  N   UNL     1      42.269 -12.618  -1.602  1.00  0.00    -0.054 NA
HETATM    9  C   UNL     1      41.856 -13.363   1.887  1.00  0.00     0.205 C 
HETATM   10  C   UNL     1      41.687 -14.878   1.762  1.00  0.00     0.063 C 
HETATM   11  H   UNL     1      41.656 -15.221  -1.495  1.00  0.00     0.184 HD
ENDROOT
BRANCH   9  12
HETATM   12  C   UNL     1      40.652 -12.664   2.527  1.00  0.00     0.005 A 
HETATM   13  C   UNL     1      40.744 -12.138   3.832  1.00  0.00     0.083 A 
HETATM   14  C   UNL     1      39.644 -11.485   4.400  1.00  0.00     0.037 A 
HETATM   15  C   UNL     1      38.469 -11.310   3.670  1.00  0.00     0.003 A 
HETATM   16  C   UNL     1      38.381 -11.787   2.366  1.00  0.00     0.001 A 
HETATM   17  C   UNL     1      39.464 -12.457   1.797  1.00  0.00     0.012 A 
BRANCH  13  18
HETATM   18  O   UNL     1      41.931 -12.329   4.484  1.00  0.00    -0.290 OA
BRANCH  18  19
HETATM   19  C   UNL     1      41.880 -12.680   5.863  1.00  0.00     0.505 C 
HETATM   20  F   UNL     1      41.195 -13.835   6.045  1.00  0.00    -0.184 F 
HETATM   21  F   UNL     1      43.141 -12.862   6.326  1.00  0.00    -0.184 F 
ENDBRANCH  18  19
ENDBRANCH  13  18
ENDBRANCH   9  12
BRANCH  10  22
HETATM   22  C   UNL     1      41.775 -15.605   3.057  1.00  0.00     0.256 C 
HETATM   23  N   UNL     1      43.052 -16.015   3.372  1.00  0.00    -0.323 N 
HETATM   24  H   UNL     1      43.778 -15.828   2.692  1.00  0.00     0.169 HD
HETATM   25  O   UNL     1      40.750 -15.789   3.700  1.00  0.00    -0.267 OA
BRANCH  23  26
HETATM   26  C   UNL     1      43.481 -16.623   4.572  1.00  0.00     0.035 A 
HETATM   27  C   UNL     1      43.649 -15.937   5.777  1.00  0.00     0.029 A 
HETATM   28  C   UNL     1      44.109 -16.607   6.917  1.00  0.00     0.002 A 
HETATM   29  C   UNL     1      44.409 -17.966   6.859  1.00  0.00     0.000 A 
HETATM   30  C   UNL     1      44.241 -18.659   5.664  1.00  0.00     0.002 A 
HETATM   31  C   UNL     1      43.776 -17.992   4.527  1.00  0.00     0.029 A 
ENDBRANCH  23  26
ENDBRANCH  10  22
TORSDOF 5
ENDMDL
MODEL 8
REMARK VINA RESULT:      -7.4      2.700      5.816
REMARK  5 active torsions:
REMARK  status: ('A' for Active; 'I' for Inactive)
REMARK    1  A    between atoms: C_9  and  C_10 
REMARK    2  A    between atoms: C_11  and  O_12 
REMARK    3  A    between atoms: O_12  and  C_13 
REMARK    4  A    between atoms: C_20  and  C_21 
REMARK       I    between atoms: C_21  and  N_22 
REMARK    5  A    between atoms: N_22  and  C_23 
ROOT
HETATM    1  C   UNL     1      43.740 -18.923   1.718  1.00  0.00     0.070 C 
HETATM    2  C   UNL     1      43.552 -18.548   3.167  1.00  0.00     0.037 C 
HETATM    3  N   UNL     1      44.272 -19.314   4.081  1.00  0.00    -0.192 N 
HETATM    4  C   UNL     1      43.991 -19.326   5.400  1.00  0.00     0.725 A 
HETATM    5  N   UNL     1      43.109 -18.412   5.908  1.00  0.00    -0.084 N 
HETATM    6  N   UNL     1      42.850 -18.655   7.213  1.00  0.00    -0.149 NA
HETATM    7  C   UNL     1      43.672 -19.687   7.436  1.00  0.00     0.275 A 
HETATM    8  N   UNL     1      44.387 -20.130   6.353  1.00  0.00    -0.054 NA
HETATM    9  C   UNL     1      42.469 -17.359   5.112  1.00  0.00     0.205 C 
HETATM   10  C   UNL     1      42.698 -17.595   3.618  1.00  0.00     0.063 C 
HETATM   11  H   UNL     1      44.820 -20.087   3.713  1.00  0.00     0.184 HD
ENDROOT
BRANCH   9  12
HETATM   12  C   UNL     1      42.970 -15.996   5.600  1.00  0.00     0.005 A 
HETATM   13  C   UNL     1      42.086 -14.900   5.686  1.00  0.00     0.083 A 
HETATM   14  C   UNL     1      42.550 -13.664   6.150  1.00  0.00     0.037 A 
HETATM   15  C   UNL     1      43.871 -13.517   6.573  1.00  0.00     0.003 A 
HETATM   16  C   UNL     1      44.741 -14.602   6.533  1.00  0.00     0.001 A 
HETATM   17  C   UNL     1      44.295 -15.832   6.053  1.00  0.00     0.012 A 
BRANCH  13  18
HETATM   18  O   UNL     1      40.801 -15.120   5.273  1.00  0.00    -0.290 OA
BRANCH  18  19
HETATM   19  C   UNL     1      40.093 -14.026   4.701  1.00  0.00     0.505 C 
HETATM   20  F   UNL     1      39.454 -14.401   3.567  1.00  0.00    -0.184 F 
HETATM   21  F   UNL     1      39.162 -13.584   5.581  1.00  0.00    -0.184 F 
ENDBRANCH  18  19
ENDBRANCH  13  18
ENDBRANCH   9  12
BRANCH  10  22
HETATM   22  C   UNL     1      41.806 -16.794   2.736  1.00  0.00     0.256 C 
HETATM   23  N   UNL     1      42.443 -15.731   2.130  1.00  0.00    -0.323 N 
HETATM   24  H   UNL     1      43.413 -15.576   2.370  1.00  0.00     0.169 HD
HETATM   25  O   UNL     1      40.630 -17.116   2.639  1.00  0.00    -0.267 OA
BRANCH  23  26
HETATM   26  C   UNL     1      41.907 -14.859   1.158  1.00  0.00     0.035 A 
HETATM   27  C   UNL     1      41.407 -15.279  -0.077  1.00  0.00     0.029 A 
HETATM   28  C   UNL     1      40.921 -14.346  -1.000  1.00  0.00     0.002 A 
HETATM   29  C   UNL     1      40.936 -12.986  -0.699  1.00  0.00     0.000 A 
HETATM   30  C   UNL     1      41.429 -12.558   0.531  1.00  0.00     0.002 A 
HETATM   31  C   UNL     1      41.907 -13.490   1.456  1.00  0.00     0.029 A 
ENDBRANCH  23  26
ENDBRANCH  10  22
TORSDOF 5
ENDMDL
MODEL 9
REMARK VINA RESULT:      -7.3      3.706      6.355
REMARK  5 active torsions:
REMARK  status: ('A' for Active; 'I' for Inactive)
REMARK    1  A    between atoms: C_9  and  C_10 
REMARK    2  A    between atoms: C_11  and  O_12 
REMARK    3  A    between atoms: O_12  and  C_13 
REMARK    4  A    between atoms: C_20  and  C_21 
REMARK       I    between atoms: C_21  and  N_22 
REMARK    5  A    between atoms: N_22  and  C_23 
ROOT
HETATM    1  C   UNL     1      44.252 -17.451   1.531  1.00  0.00     0.070 C 
HETATM    2  C   UNL     1      43.286 -16.884   2.541  1.00  0.00     0.037 C 
HETATM    3  N   UNL     1      43.652 -17.048   3.875  1.00  0.00    -0.192 N 
HETATM    4  C   UNL     1      42.781 -16.887   4.892  1.00  0.00     0.725 A 
HETATM    5  N   UNL     1      41.547 -16.351   4.644  1.00  0.00    -0.084 N 
HETATM    6  N   UNL     1      40.767 -16.387   5.747  1.00  0.00    -0.149 NA
HETATM    7  C   UNL     1      41.628 -16.892   6.639  1.00  0.00     0.275 A 
HETATM    8  N   UNL     1      42.871 -17.214   6.156  1.00  0.00    -0.054 NA
HETATM    9  C   UNL     1      41.110 -15.875   3.326  1.00  0.00     0.205 C 
HETATM   10  C   UNL     1      42.093 -16.313   2.239  1.00  0.00     0.063 C 
HETATM   11  H   UNL     1      44.502 -17.573   4.066  1.00  0.00     0.184 HD
ENDROOT
BRANCH   9  12
HETATM   12  C   UNL     1      40.905 -14.359   3.390  1.00  0.00     0.005 A 
HETATM   13  C   UNL     1      39.777 -13.765   2.787  1.00  0.00     0.083 A 
HETATM   14  C   UNL     1      39.590 -12.380   2.867  1.00  0.00     0.037 A 
HETATM   15  C   UNL     1      40.488 -11.585   3.579  1.00  0.00     0.003 A 
HETATM   16  C   UNL     1      41.580 -12.164   4.214  1.00  0.00     0.001 A 
HETATM   17  C   UNL     1      41.788 -13.540   4.124  1.00  0.00     0.012 A 
BRANCH  13  18
HETATM   18  O   UNL     1      38.929 -14.606   2.122  1.00  0.00    -0.290 OA
BRANCH  18  19
HETATM   19  C   UNL     1      38.048 -14.035   1.160  1.00  0.00     0.505 C 
HETATM   20  F   UNL     1      38.624 -14.001  -0.065  1.00  0.00    -0.184 F 
HETATM   21  F   UNL     1      36.925 -14.790   1.075  1.00  0.00    -0.184 F 
ENDBRANCH  18  19
ENDBRANCH  13  18
ENDBRANCH   9  12
BRANCH  10  22
HETATM   22  C   UNL     1      41.560 -16.185   0.855  1.00  0.00     0.256 C 
HETATM   23  N   UNL     1      41.810 -14.957   0.281  1.00  0.00    -0.323 N 
HETATM   24  H   UNL     1      42.278 -14.267   0.853  1.00  0.00     0.169 HD
HETATM   25  O   UNL     1      40.953 -17.129   0.368  1.00  0.00    -0.267 OA
BRANCH  23  26
HETATM   26  C   UNL     1      41.537 -14.566  -1.048  1.00  0.00     0.035 A 
HETATM   27  C   UNL     1      40.907 -15.384  -1.988  1.00  0.00     0.029 A 
HETATM   28  C   UNL     1      40.701 -14.933  -3.297  1.00  0.00     0.002 A 
HETATM   29  C   UNL     1      41.128 -13.663  -3.677  1.00  0.00     0.000 A 
HETATM   30  C   UNL     1      41.755 -12.839  -2.746  1.00  0.00     0.002 A 
HETATM   31  C   UNL     1      41.954 -13.286  -1.438  1.00  0.00     0.029 A 
ENDBRANCH  23  26
ENDBRANCH  10  22
TORSDOF 5
ENDMDL
MODEL 10
REMARK VINA RESULT:      -7.3      3.847      5.339
REMARK  5 active torsions:
REMARK  status: ('A' for Active; 'I' for Inactive)
REMARK    1  A    between atoms: C_9  and  C_10 
REMARK    2  A    between atoms: C_11  and  O_12 
REMARK    3  A    between atoms: O_12  and  C_13 
REMARK    4  A    between atoms: C_20  and  C_21 
REMARK       I    between atoms: C_21  and  N_22 
REMARK    5  A    between atoms: N_22  and  C_23 
ROOT
HETATM    1  C   UNL     1      40.917 -15.825  -2.160  1.00  0.00     0.070 C 
HETATM    2  C   UNL     1      41.226 -14.568  -1.385  1.00  0.00     0.037 C 
HETATM    3  N   UNL     1      41.286 -13.400  -2.141  1.00  0.00    -0.192 N 
HETATM    4  C   UNL     1      41.845 -12.263  -1.678  1.00  0.00     0.725 A 
HETATM    5  N   UNL     1      42.190 -12.171  -0.357  1.00  0.00    -0.084 N 
HETATM    6  N   UNL     1      42.852 -11.020  -0.103  1.00  0.00    -0.149 NA
HETATM    7  C   UNL     1      42.802 -10.439  -1.307  1.00  0.00     0.275 A 
HETATM    8  N   UNL     1      42.196 -11.166  -2.299  1.00  0.00    -0.054 NA
HETATM    9  C   UNL     1      41.940 -13.227   0.631  1.00  0.00     0.205 C 
HETATM   10  C   UNL     1      41.512 -14.524  -0.059  1.00  0.00     0.063 C 
HETATM   11  H   UNL     1      41.170 -13.487  -3.147  1.00  0.00     0.184 HD
ENDROOT
BRANCH   9  12
HETATM   12  C   UNL     1      40.923 -12.716   1.656  1.00  0.00     0.005 A 
HETATM   13  C   UNL     1      39.559 -12.609   1.315  1.00  0.00     0.083 A 
HETATM   14  C   UNL     1      38.636 -12.158   2.266  1.00  0.00     0.037 A 
HETATM   15  C   UNL     1      39.046 -11.855   3.564  1.00  0.00     0.003 A 
HETATM   16  C   UNL     1      40.382 -11.998   3.924  1.00  0.00     0.001 A 
HETATM   17  C   UNL     1      41.314 -12.427   2.980  1.00  0.00     0.012 A 
BRANCH  13  18
HETATM   18  O   UNL     1      39.224 -12.939   0.032  1.00  0.00    -0.290 OA
BRANCH  18  19
HETATM   19  C   UNL     1      37.986 -13.609  -0.179  1.00  0.00     0.505 C 
HETATM   20  F   UNL     1      37.919 -14.126  -1.429  1.00  0.00    -0.184 F 
HETATM   21  F   UNL     1      37.872 -14.630   0.705  1.00  0.00    -0.184 F 
ENDBRANCH  18  19
ENDBRANCH  13  18
ENDBRANCH   9  12
BRANCH  10  22
HETATM   22  C   UNL     1      41.579 -15.725   0.817  1.00  0.00     0.256 C 
HETATM   23  N   UNL     1      42.855 -16.224   0.970  1.00  0.00    -0.323 N 
HETATM   24  H   UNL     1      43.594 -15.767   0.452  1.00  0.00     0.169 HD
HETATM   25  O   UNL     1      40.541 -16.165   1.293  1.00  0.00    -0.267 OA
BRANCH  23  26
HETATM   26  C   UNL     1      43.263 -17.275   1.819  1.00  0.00     0.035 A 
HETATM   27  C   UNL     1      43.486 -18.584   1.390  1.00  0.00     0.029 A 
HETATM   28  C   UNL     1      43.859 -19.577   2.303  1.00  0.00     0.002 A 
HETATM   29  C   UNL     1      44.007 -19.270   3.653  1.00  0.00     0.000 A 
HETATM   30  C   UNL     1      43.790 -17.966   4.091  1.00  0.00     0.002 A 
HETATM   31  C   UNL     1      43.425 -16.973   3.178  1.00  0.00     0.029 A 
ENDBRANCH  23  26
ENDBRANCH  10  22
TORSDOF 5
ENDMDL
