MODEL 1
REMARK VINA RESULT:      -9.2      0.000      0.000
REMARK  6 active torsions:
REMARK  status: ('A' for Active; 'I' for Inactive)
REMARK    1  A    between atoms: C_2  and  O_3 
REMARK    2  A    between atoms: C_2  and  C_4 
REMARK    3  A    between atoms: C_2  and  C_11 
REMARK    4  A    between atoms: C_11  and  N_12 
REMARK       I    between atoms: N_12  and  C_13 
REMARK    5  A    between atoms: C_13  and  C_14 
REMARK    6  A    between atoms: C_18  and  C_19 
ROOT
HETATM    1  N   UNL     1      44.426 -13.803   7.719  1.00  0.00    -0.352 N 
HETATM    2  C   UNL     1      45.414 -12.892   8.016  1.00  0.00     0.272 C 
HETATM    3  O   UNL     1      46.490 -12.842   7.428  1.00  0.00    -0.266 OA
HETATM    4  H   UNL     1      43.539 -13.660   8.195  1.00  0.00     0.162 HD
ENDROOT
BRANCH   2   5
HETATM    5  C   UNL     1      45.054 -11.970   9.105  1.00  0.00     0.146 A 
HETATM    6  N   UNL     1      45.646 -10.769   9.257  1.00  0.00    -0.169 NA
HETATM    7  N   UNL     1      45.053 -10.253  10.348  1.00  0.00    -0.277 N 
HETATM    8  H   UNL     1      45.366  -9.346  10.675  1.00  0.00     0.189 HD
HETATM    9  C   UNL     1      44.086 -11.051  10.902  1.00  0.00     0.063 A 
HETATM   10  C   UNL     1      44.082 -12.185  10.115  1.00  0.00     0.071 A 
BRANCH   9  11
HETATM   11  C   UNL     1      43.309 -10.693  12.088  1.00  0.00    -0.008 A 
HETATM   12  C   UNL     1      43.765  -9.718  12.992  1.00  0.00     0.017 A 
HETATM   13  C   UNL     1      43.009  -9.385  14.119  1.00  0.00     0.043 A 
HETATM   14  C   UNL     1      41.796 -10.021  14.346  1.00  0.00     0.116 A 
HETATM   15  F   UNL     1      41.073  -9.699  15.427  1.00  0.00    -0.206 F 
HETATM   16  C   UNL     1      41.321 -10.984  13.465  1.00  0.00     0.043 A 
HETATM   17  C   UNL     1      42.076 -11.317  12.338  1.00  0.00     0.017 A 
ENDBRANCH   9  11
ENDBRANCH   2   5
BRANCH   1  18
HETATM   18  C   UNL     1      44.503 -14.730   6.606  1.00  0.00     0.165 C 
BRANCH  18  19
HETATM   19  C   UNL     1      43.418 -15.844   6.647  1.00  0.00     0.097 C 
HETATM   20  C   UNL     1      42.065 -15.307   6.158  1.00  0.00     0.053 C 
BRANCH  19  21
HETATM   21  O   UNL     1      43.258 -16.215   8.033  1.00  0.00    -0.384 OA
HETATM   22  H   UNL     1      43.805 -15.604   8.557  1.00  0.00     0.211 HD
ENDBRANCH  19  21
BRANCH  19  23
HETATM   23  C   UNL     1      43.787 -17.110   5.863  1.00  0.00    -0.023 A 
HETATM   24  C   UNL     1      44.783 -18.010   6.285  1.00  0.00     0.013 A 
HETATM   25  C   UNL     1      45.090 -19.147   5.530  1.00  0.00     0.043 A 
HETATM   26  C   UNL     1      44.413 -19.392   4.344  1.00  0.00     0.116 A 
HETATM   27  F   UNL     1      44.714 -20.481   3.625  1.00  0.00    -0.206 F 
HETATM   28  C   UNL     1      43.433 -18.522   3.893  1.00  0.00     0.043 A 
HETATM   29  C   UNL     1      43.123 -17.388   4.647  1.00  0.00     0.013 A 
ENDBRANCH  19  23
ENDBRANCH  18  19
ENDBRANCH   1  18
TORSDOF 6
ENDMDL
MODEL 2
REMARK VINA RESULT:      -9.0      2.268     10.457
REMARK  6 active torsions:
REMARK  status: ('A' for Active; 'I' for Inactive)
REMARK    1  A    between atoms: C_2  and  O_3 
REMARK    2  A    between atoms: C_2  and  C_4 
REMARK    3  A    between atoms: C_2  and  C_11 
REMARK    4  A    between atoms: C_11  and  N_12 
REMARK       I    between atoms: N_12  and  C_13 
REMARK    5  A    between atoms: C_13  and  C_14 
REMARK    6  A    between atoms: C_18  and  C_19 
ROOT
HETATM    1  N   UNL     1      43.852 -13.888   7.270  1.00  0.00    -0.352 N 
HETATM    2  C   UNL     1      43.203 -14.396   6.168  1.00  0.00     0.272 C 
HETATM    3  O   UNL     1      42.380 -13.762   5.513  1.00  0.00    -0.266 OA
HETATM    4  H   UNL     1      44.596 -14.469   7.648  1.00  0.00     0.162 HD
ENDROOT
BRANCH   2   5
HETATM    5  C   UNL     1      43.596 -15.775   5.838  1.00  0.00     0.146 A 
HETATM    6  N   UNL     1      44.303 -16.545   6.689  1.00  0.00    -0.169 NA
HETATM    7  N   UNL     1      44.458 -17.702   6.022  1.00  0.00    -0.277 N 
HETATM    8  H   UNL     1      44.996 -18.438   6.466  1.00  0.00     0.189 HD
HETATM    9  C   UNL     1      43.866 -17.732   4.785  1.00  0.00     0.063 A 
HETATM   10  C   UNL     1      43.311 -16.477   4.640  1.00  0.00     0.071 A 
BRANCH   9  11
HETATM   11  C   UNL     1      43.903 -18.885   3.887  1.00  0.00    -0.008 A 
HETATM   12  C   UNL     1      43.211 -18.880   2.665  1.00  0.00     0.017 A 
HETATM   13  C   UNL     1      43.259 -19.989   1.816  1.00  0.00     0.043 A 
HETATM   14  C   UNL     1      43.999 -21.105   2.183  1.00  0.00     0.116 A 
HETATM   15  F   UNL     1      44.043 -22.166   1.367  1.00  0.00    -0.206 F 
HETATM   16  C   UNL     1      44.696 -21.132   3.383  1.00  0.00     0.043 A 
HETATM   17  C   UNL     1      44.650 -20.024   4.232  1.00  0.00     0.017 A 
ENDBRANCH   9  11
ENDBRANCH   2   5
BRANCH   1  18
HETATM   18  C   UNL     1      43.719 -12.512   7.711  1.00  0.00     0.165 C 
BRANCH  18  19
HETATM   19  C   UNL     1      44.356 -12.242   9.105  1.00  0.00     0.097 C 
HETATM   20  C   UNL     1      45.851 -11.918   8.969  1.00  0.00     0.053 C 
BRANCH  19  21
HETATM   21  O   UNL     1      44.248 -13.470   9.855  1.00  0.00    -0.384 OA
HETATM   22  H   UNL     1      44.691 -13.323  10.709  1.00  0.00     0.211 HD
ENDBRANCH  19  21
BRANCH  19  23
HETATM   23  C   UNL     1      43.658 -11.138   9.911  1.00  0.00    -0.023 A 
HETATM   24  C   UNL     1      42.548 -10.422   9.427  1.00  0.00     0.013 A 
HETATM   25  C   UNL     1      41.950  -9.417  10.195  1.00  0.00     0.043 A 
HETATM   26  C   UNL     1      42.460  -9.111  11.449  1.00  0.00     0.116 A 
HETATM   27  F   UNL     1      41.886  -8.147  12.179  1.00  0.00    -0.206 F 
HETATM   28  C   UNL     1      43.559  -9.791  11.953  1.00  0.00     0.043 A 
HETATM   29  C   UNL     1      44.154 -10.796  11.188  1.00  0.00     0.013 A 
ENDBRANCH  19  23
ENDBRANCH  18  19
ENDBRANCH   1  18
TORSDOF 6
ENDMDL
MODEL 3
REMARK VINA RESULT:      -9.0      1.018      1.781
REMARK  6 active torsions:
REMARK  status: ('A' for Active; 'I' for Inactive)
REMARK    1  A    between atoms: C_2  and  O_3 
REMARK    2  A    between atoms: C_2  and  C_4 
REMARK    3  A    between atoms: C_2  and  C_11 
REMARK    4  A    between atoms: C_11  and  N_12 
REMARK       I    between atoms: N_12  and  C_13 
REMARK    5  A    between atoms: C_13  and  C_14 
REMARK    6  A    between atoms: C_18  and  C_19 
ROOT
HETATM    1  N   UNL     1      44.445 -14.059   7.862  1.00  0.00    -0.352 N 
HETATM    2  C   UNL     1      45.350 -13.030   7.992  1.00  0.00     0.272 C 
HETATM    3  O   UNL     1      46.344 -12.907   7.282  1.00  0.00    -0.266 OA
HETATM    4  H   UNL     1      43.604 -13.978   8.429  1.00  0.00     0.162 HD
ENDROOT
BRANCH   2   5
HETATM    5  C   UNL     1      45.009 -12.078   9.060  1.00  0.00     0.146 A 
HETATM    6  N   UNL     1      45.615 -10.881   9.180  1.00  0.00    -0.169 NA
HETATM    7  N   UNL     1      45.036 -10.332  10.262  1.00  0.00    -0.277 N 
HETATM    8  H   UNL     1      45.361  -9.421  10.566  1.00  0.00     0.189 HD
HETATM    9  C   UNL     1      44.063 -11.105  10.842  1.00  0.00     0.063 A 
HETATM   10  C   UNL     1      44.041 -12.258  10.081  1.00  0.00     0.071 A 
BRANCH   9  11
HETATM   11  C   UNL     1      43.298 -10.710  12.023  1.00  0.00    -0.008 A 
HETATM   12  C   UNL     1      42.082 -11.334  12.348  1.00  0.00     0.017 A 
HETATM   13  C   UNL     1      41.364 -10.948  13.483  1.00  0.00     0.043 A 
HETATM   14  C   UNL     1      41.859  -9.939  14.299  1.00  0.00     0.116 A 
HETATM   15  F   UNL     1      41.170  -9.571  15.386  1.00  0.00    -0.206 F 
HETATM   16  C   UNL     1      43.061  -9.311  14.002  1.00  0.00     0.043 A 
HETATM   17  C   UNL     1      43.780  -9.697  12.869  1.00  0.00     0.017 A 
ENDBRANCH   9  11
ENDBRANCH   2   5
BRANCH   1  18
HETATM   18  C   UNL     1      44.506 -15.047   6.802  1.00  0.00     0.165 C 
BRANCH  18  19
HETATM   19  C   UNL     1      43.310 -14.968   5.809  1.00  0.00     0.097 C 
HETATM   20  C   UNL     1      43.395 -13.697   4.952  1.00  0.00     0.053 C 
BRANCH  19  21
HETATM   21  O   UNL     1      42.113 -14.869   6.609  1.00  0.00    -0.384 OA
HETATM   22  H   UNL     1      41.374 -14.703   5.998  1.00  0.00     0.211 HD
ENDBRANCH  19  21
BRANCH  19  23
HETATM   23  C   UNL     1      43.166 -16.197   4.901  1.00  0.00    -0.023 A 
HETATM   24  C   UNL     1      42.448 -16.176   3.691  1.00  0.00     0.013 A 
HETATM   25  C   UNL     1      42.337 -17.324   2.901  1.00  0.00     0.043 A 
HETATM   26  C   UNL     1      42.935 -18.507   3.313  1.00  0.00     0.116 A 
HETATM   27  F   UNL     1      42.823 -19.604   2.554  1.00  0.00    -0.206 F 
HETATM   28  C   UNL     1      43.643 -18.566   4.504  1.00  0.00     0.043 A 
HETATM   29  C   UNL     1      43.756 -17.419   5.293  1.00  0.00     0.013 A 
ENDBRANCH  19  23
ENDBRANCH  18  19
ENDBRANCH   1  18
TORSDOF 6
ENDMDL
MODEL 4
REMARK VINA RESULT:      -8.7      7.360     10.355
REMARK  6 active torsions:
REMARK  status: ('A' for Active; 'I' for Inactive)
REMARK    1  A    between atoms: C_2  and  O_3 
REMARK    2  A    between atoms: C_2  and  C_4 
REMARK    3  A    between atoms: C_2  and  C_11 
REMARK    4  A    between atoms: C_11  and  N_12 
REMARK       I    between atoms: N_12  and  C_13 
REMARK    5  A    between atoms: C_13  and  C_14 
REMARK    6  A    between atoms: C_18  and  C_19 
ROOT
HETATM    1  N   UNL     1      42.733 -15.581   3.532  1.00  0.00    -0.352 N 
HETATM    2  C   UNL     1      43.104 -14.366   3.003  1.00  0.00     0.272 C 
HETATM    3  O   UNL     1      43.953 -13.637   3.506  1.00  0.00    -0.266 OA
HETATM    4  H   UNL     1      42.110 -16.141   2.955  1.00  0.00     0.162 HD
ENDROOT
BRANCH   2   5
HETATM    5  C   UNL     1      42.391 -14.024   1.762  1.00  0.00     0.146 A 
HETATM    6  N   UNL     1      42.321 -12.762   1.296  1.00  0.00    -0.169 NA
HETATM    7  N   UNL     1      41.591 -12.873   0.172  1.00  0.00    -0.277 N 
HETATM    8  H   UNL     1      41.381 -12.026  -0.345  1.00  0.00     0.189 HD
HETATM    9  C   UNL     1      41.200 -14.153  -0.130  1.00  0.00     0.063 A 
HETATM   10  C   UNL     1      41.699 -14.918   0.905  1.00  0.00     0.071 A 
BRANCH   9  11
HETATM   11  C   UNL     1      40.405 -14.511  -1.304  1.00  0.00    -0.008 A 
HETATM   12  C   UNL     1      39.153 -13.921  -1.544  1.00  0.00     0.017 A 
HETATM   13  C   UNL     1      38.406 -14.272  -2.672  1.00  0.00     0.043 A 
HETATM   14  C   UNL     1      38.908 -15.210  -3.564  1.00  0.00     0.116 A 
HETATM   15  F   UNL     1      38.191 -15.544  -4.645  1.00  0.00    -0.206 F 
HETATM   16  C   UNL     1      40.145 -15.803  -3.352  1.00  0.00     0.043 A 
HETATM   17  C   UNL     1      40.893 -15.452  -2.225  1.00  0.00     0.017 A 
ENDBRANCH   9  11
ENDBRANCH   2   5
BRANCH   1  18
HETATM   18  C   UNL     1      43.384 -16.183   4.680  1.00  0.00     0.165 C 
BRANCH  18  19
HETATM   19  C   UNL     1      42.848 -17.603   5.025  1.00  0.00     0.097 C 
HETATM   20  C   UNL     1      41.313 -17.629   4.995  1.00  0.00     0.053 C 
BRANCH  19  21
HETATM   21  O   UNL     1      43.257 -17.882   6.381  1.00  0.00    -0.384 OA
HETATM   22  H   UNL     1      42.555 -18.423   6.785  1.00  0.00     0.211 HD
ENDBRANCH  19  21
BRANCH  19  23
HETATM   23  C   UNL     1      43.403 -18.719   4.129  1.00  0.00    -0.023 A 
HETATM   24  C   UNL     1      42.957 -18.936   2.812  1.00  0.00     0.013 A 
HETATM   25  C   UNL     1      43.487 -19.973   2.036  1.00  0.00     0.043 A 
HETATM   26  C   UNL     1      44.460 -20.806   2.569  1.00  0.00     0.116 A 
HETATM   27  F   UNL     1      44.962 -21.798   1.823  1.00  0.00    -0.206 F 
HETATM   28  C   UNL     1      44.916 -20.626   3.867  1.00  0.00     0.043 A 
HETATM   29  C   UNL     1      44.389 -19.591   4.641  1.00  0.00     0.013 A 
ENDBRANCH  19  23
ENDBRANCH  18  19
ENDBRANCH   1  18
TORSDOF 6
ENDMDL
MODEL 5
REMARK VINA RESULT:      -8.7      2.870     10.359
REMARK  6 active torsions:
REMARK  status: ('A' for Active; 'I' for Inactive)
REMARK    1  A    between atoms: C_2  and  O_3 
REMARK    2  A    between atoms: C_2  and  C_4 
REMARK    3  A    between atoms: C_2  and  C_11 
REMARK    4  A    between atoms: C_11  and  N_12 
REMARK       I    between atoms: N_12  and  C_13 
REMARK    5  A    between atoms: C_13  and  C_14 
REMARK    6  A    between atoms: C_18  and  C_19 
ROOT
HETATM    1  N   UNL     1      43.091 -14.292   5.792  1.00  0.00    -0.352 N 
HETATM    2  C   UNL     1      42.776 -14.307   4.452  1.00  0.00     0.272 C 
HETATM    3  O   UNL     1      42.626 -13.292   3.778  1.00  0.00    -0.266 OA
HETATM    4  H   UNL     1      43.307 -15.197   6.203  1.00  0.00     0.162 HD
ENDROOT
BRANCH   2   5
HETATM    5  C   UNL     1      42.646 -15.663   3.895  1.00  0.00     0.146 A 
HETATM    6  N   UNL     1      41.592 -16.035   3.143  1.00  0.00    -0.169 NA
HETATM    7  N   UNL     1      41.845 -17.321   2.845  1.00  0.00    -0.277 N 
HETATM    8  H   UNL     1      41.158 -17.828   2.299  1.00  0.00     0.189 HD
HETATM    9  C   UNL     1      43.028 -17.801   3.349  1.00  0.00     0.063 A 
HETATM   10  C   UNL     1      43.558 -16.737   4.051  1.00  0.00     0.071 A 
BRANCH   9  11
HETATM   11  C   UNL     1      43.509 -19.167   3.149  1.00  0.00    -0.008 A 
HETATM   12  C   UNL     1      43.183 -19.893   1.992  1.00  0.00     0.017 A 
HETATM   13  C   UNL     1      43.654 -21.196   1.814  1.00  0.00     0.043 A 
HETATM   14  C   UNL     1      44.454 -21.778   2.789  1.00  0.00     0.116 A 
HETATM   15  F   UNL     1      44.904 -23.027   2.616  1.00  0.00    -0.206 F 
HETATM   16  C   UNL     1      44.794 -21.079   3.939  1.00  0.00     0.043 A 
HETATM   17  C   UNL     1      44.325 -19.775   4.117  1.00  0.00     0.017 A 
ENDBRANCH   9  11
ENDBRANCH   2   5
BRANCH   1  18
HETATM   18  C   UNL     1      43.388 -13.078   6.528  1.00  0.00     0.165 C 
BRANCH  18  19
HETATM   19  C   UNL     1      44.434 -13.280   7.663  1.00  0.00     0.097 C 
HETATM   20  C   UNL     1      45.860 -13.294   7.096  1.00  0.00     0.053 C 
BRANCH  19  21
HETATM   21  O   UNL     1      44.183 -14.582   8.231  1.00  0.00    -0.384 OA
HETATM   22  H   UNL     1      44.358 -15.237   7.532  1.00  0.00     0.211 HD
ENDBRANCH  19  21
BRANCH  19  23
HETATM   23  C   UNL     1      44.338 -12.248   8.796  1.00  0.00    -0.023 A 
HETATM   24  C   UNL     1      45.309 -12.128   9.806  1.00  0.00     0.013 A 
HETATM   25  C   UNL     1      45.173 -11.177  10.824  1.00  0.00     0.043 A 
HETATM   26  C   UNL     1      44.064 -10.344  10.847  1.00  0.00     0.116 A 
HETATM   27  F   UNL     1      43.938  -9.438  11.824  1.00  0.00    -0.206 F 
HETATM   28  C   UNL     1      43.083 -10.442   9.871  1.00  0.00     0.043 A 
HETATM   29  C   UNL     1      43.218 -11.388   8.854  1.00  0.00     0.013 A 
ENDBRANCH  19  23
ENDBRANCH  18  19
ENDBRANCH   1  18
TORSDOF 6
ENDMDL
MODEL 6
REMARK VINA RESULT:      -8.5      8.150     10.890
REMARK  6 active torsions:
REMARK  status: ('A' for Active; 'I' for Inactive)
REMARK    1  A    between atoms: C_2  and  O_3 
REMARK    2  A    between atoms: C_2  and  C_4 
REMARK    3  A    between atoms: C_2  and  C_11 
REMARK    4  A    between atoms: C_11  and  N_12 
REMARK       I    between atoms: N_12  and  C_13 
REMARK    5  A    between atoms: C_13  and  C_14 
REMARK    6  A    between atoms: C_18  and  C_19 
ROOT
HETATM    1  N   UNL     1      42.085 -14.512   0.868  1.00  0.00    -0.352 N 
HETATM    2  C   UNL     1      42.697 -14.325   2.087  1.00  0.00     0.272 C 
HETATM    3  O   UNL     1      42.928 -13.219   2.567  1.00  0.00    -0.266 OA
HETATM    4  H   UNL     1      41.842 -15.474   0.642  1.00  0.00     0.162 HD
ENDROOT
BRANCH   2   5
HETATM    5  C   UNL     1      43.040 -15.581   2.771  1.00  0.00     0.146 A 
HETATM    6  N   UNL     1      43.147 -15.666   4.111  1.00  0.00    -0.169 NA
HETATM    7  N   UNL     1      43.476 -16.952   4.328  1.00  0.00    -0.277 N 
HETATM    8  H   UNL     1      43.640 -17.246   5.284  1.00  0.00     0.189 HD
HETATM    9  C   UNL     1      43.566 -17.717   3.193  1.00  0.00     0.063 A 
HETATM   10  C   UNL     1      43.301 -16.836   2.163  1.00  0.00     0.071 A 
BRANCH   9  11
HETATM   11  C   UNL     1      43.906 -19.139   3.189  1.00  0.00    -0.008 A 
HETATM   12  C   UNL     1      44.521 -19.745   4.296  1.00  0.00     0.017 A 
HETATM   13  C   UNL     1      44.836 -21.107   4.278  1.00  0.00     0.043 A 
HETATM   14  C   UNL     1      44.536 -21.867   3.155  1.00  0.00     0.116 A 
HETATM   15  F   UNL     1      44.839 -23.171   3.140  1.00  0.00    -0.206 F 
HETATM   16  C   UNL     1      43.924 -21.291   2.050  1.00  0.00     0.043 A 
HETATM   17  C   UNL     1      43.607 -19.931   2.068  1.00  0.00     0.017 A 
ENDBRANCH   9  11
ENDBRANCH   2   5
BRANCH   1  18
HETATM   18  C   UNL     1      41.547 -13.427   0.070  1.00  0.00     0.165 C 
BRANCH  18  19
HETATM   19  C   UNL     1      40.025 -13.565  -0.221  1.00  0.00     0.097 C 
HETATM   20  C   UNL     1      39.342 -12.190  -0.221  1.00  0.00     0.053 C 
BRANCH  19  21
HETATM   21  O   UNL     1      39.462 -14.325   0.868  1.00  0.00    -0.384 OA
HETATM   22  H   UNL     1      39.685 -13.854   1.690  1.00  0.00     0.211 HD
ENDBRANCH  19  21
BRANCH  19  23
HETATM   23  C   UNL     1      39.699 -14.304  -1.526  1.00  0.00    -0.023 A 
HETATM   24  C   UNL     1      38.464 -14.180  -2.189  1.00  0.00     0.013 A 
HETATM   25  C   UNL     1      38.211 -14.882  -3.373  1.00  0.00     0.043 A 
HETATM   26  C   UNL     1      39.183 -15.720  -3.901  1.00  0.00     0.116 A 
HETATM   27  F   UNL     1      38.934 -16.391  -5.032  1.00  0.00    -0.206 F 
HETATM   28  C   UNL     1      40.407 -15.872  -3.268  1.00  0.00     0.043 A 
HETATM   29  C   UNL     1      40.663 -15.171  -2.088  1.00  0.00     0.013 A 
ENDBRANCH  19  23
ENDBRANCH  18  19
ENDBRANCH   1  18
TORSDOF 6
ENDMDL
MODEL 7
REMARK VINA RESULT:      -8.5      9.087     12.088
REMARK  6 active torsions:
REMARK  status: ('A' for Active; 'I' for Inactive)
REMARK    1  A    between atoms: C_2  and  O_3 
REMARK    2  A    between atoms: C_2  and  C_4 
REMARK    3  A    between atoms: C_2  and  C_11 
REMARK    4  A    between atoms: C_11  and  N_12 
REMARK       I    between atoms: N_12  and  C_13 
REMARK    5  A    between atoms: C_13  and  C_14 
REMARK    6  A    between atoms: C_18  and  C_19 
ROOT
HETATM    1  N   UNL     1      41.756 -15.075  -0.502  1.00  0.00    -0.352 N 
HETATM    2  C   UNL     1      41.874 -14.804   0.842  1.00  0.00     0.272 C 
HETATM    3  O   UNL     1      41.780 -13.676   1.318  1.00  0.00    -0.266 OA
HETATM    4  H   UNL     1      41.732 -16.061  -0.751  1.00  0.00     0.162 HD
ENDROOT
BRANCH   2   5
HETATM    5  C   UNL     1      42.114 -16.001   1.664  1.00  0.00     0.146 A 
HETATM    6  N   UNL     1      41.620 -16.129   2.911  1.00  0.00    -0.169 NA
HETATM    7  N   UNL     1      42.063 -17.335   3.311  1.00  0.00    -0.277 N 
HETATM    8  H   UNL     1      41.834 -17.638   4.250  1.00  0.00     0.189 HD
HETATM    9  C   UNL     1      42.803 -18.009   2.374  1.00  0.00     0.063 A 
HETATM   10  C   UNL     1      42.862 -17.148   1.296  1.00  0.00     0.071 A 
BRANCH   9  11
HETATM   11  C   UNL     1      43.382 -19.335   2.587  1.00  0.00    -0.008 A 
HETATM   12  C   UNL     1      43.148 -20.387   1.685  1.00  0.00     0.017 A 
HETATM   13  C   UNL     1      43.712 -21.647   1.901  1.00  0.00     0.043 A 
HETATM   14  C   UNL     1      44.512 -21.861   3.016  1.00  0.00     0.116 A 
HETATM   15  F   UNL     1      45.051 -23.069   3.219  1.00  0.00    -0.206 F 
HETATM   16  C   UNL     1      44.763 -20.836   3.918  1.00  0.00     0.043 A 
HETATM   17  C   UNL     1      44.201 -19.576   3.703  1.00  0.00     0.017 A 
ENDBRANCH   9  11
ENDBRANCH   2   5
BRANCH   1  18
HETATM   18  C   UNL     1      41.397 -14.075  -1.490  1.00  0.00     0.165 C 
BRANCH  18  19
HETATM   19  C   UNL     1      40.845 -14.678  -2.814  1.00  0.00     0.097 C 
HETATM   20  C   UNL     1      40.807 -16.211  -2.741  1.00  0.00     0.053 C 
BRANCH  19  21
HETATM   21  O   UNL     1      41.779 -14.319  -3.854  1.00  0.00    -0.384 OA
HETATM   22  H   UNL     1      41.270 -13.872  -4.552  1.00  0.00     0.211 HD
ENDBRANCH  19  21
BRANCH  19  23
HETATM   23  C   UNL     1      39.464 -14.144  -3.219  1.00  0.00    -0.023 A 
HETATM   24  C   UNL     1      39.135 -12.776  -3.195  1.00  0.00     0.013 A 
HETATM   25  C   UNL     1      37.859 -12.338  -3.565  1.00  0.00     0.043 A 
HETATM   26  C   UNL     1      36.898 -13.260  -3.954  1.00  0.00     0.116 A 
HETATM   27  F   UNL     1      35.678 -12.836  -4.305  1.00  0.00    -0.206 F 
HETATM   28  C   UNL     1      37.186 -14.617  -3.980  1.00  0.00     0.043 A 
HETATM   29  C   UNL     1      38.460 -15.055  -3.613  1.00  0.00     0.013 A 
ENDBRANCH  19  23
ENDBRANCH  18  19
ENDBRANCH   1  18
TORSDOF 6
ENDMDL
MODEL 8
REMARK VINA RESULT:      -8.3      5.504      9.753
REMARK  6 active torsions:
REMARK  status: ('A' for Active; 'I' for Inactive)
REMARK    1  A    between atoms: C_2  and  O_3 
REMARK    2  A    between atoms: C_2  and  C_4 
REMARK    3  A    between atoms: C_2  and  C_11 
REMARK    4  A    between atoms: C_11  and  N_12 
REMARK       I    between atoms: N_12  and  C_13 
REMARK    5  A    between atoms: C_13  and  C_14 
REMARK    6  A    between atoms: C_18  and  C_19 
ROOT
HETATM    1  N   UNL     1      42.639 -14.413   5.612  1.00  0.00    -0.352 N 
HETATM    2  C   UNL     1      43.608 -15.001   6.394  1.00  0.00     0.272 C 
HETATM    3  O   UNL     1      44.116 -14.455   7.369  1.00  0.00    -0.266 OA
HETATM    4  H   UNL     1      42.216 -15.016   4.911  1.00  0.00     0.162 HD
ENDROOT
BRANCH   2   5
HETATM    5  C   UNL     1      43.973 -16.357   5.956  1.00  0.00     0.146 A 
HETATM    6  N   UNL     1      44.766 -17.162   6.691  1.00  0.00    -0.169 NA
HETATM    7  N   UNL     1      44.860 -18.283   5.953  1.00  0.00    -0.277 N 
HETATM    8  H   UNL     1      45.443 -19.035   6.303  1.00  0.00     0.189 HD
HETATM    9  C   UNL     1      44.147 -18.255   4.782  1.00  0.00     0.063 A 
HETATM   10  C   UNL     1      43.574 -17.000   4.757  1.00  0.00     0.071 A 
BRANCH   9  11
HETATM   11  C   UNL     1      44.100 -19.361   3.826  1.00  0.00    -0.008 A 
HETATM   12  C   UNL     1      44.723 -20.590   4.101  1.00  0.00     0.017 A 
HETATM   13  C   UNL     1      44.666 -21.638   3.178  1.00  0.00     0.043 A 
HETATM   14  C   UNL     1      43.985 -21.464   1.980  1.00  0.00     0.116 A 
HETATM   15  F   UNL     1      43.931 -22.470   1.099  1.00  0.00    -0.206 F 
HETATM   16  C   UNL     1      43.357 -20.261   1.688  1.00  0.00     0.043 A 
HETATM   17  C   UNL     1      43.412 -19.213   2.610  1.00  0.00     0.017 A 
ENDBRANCH   9  11
ENDBRANCH   2   5
BRANCH   1  18
HETATM   18  C   UNL     1      42.034 -13.132   5.920  1.00  0.00     0.165 C 
BRANCH  18  19
HETATM   19  C   UNL     1      40.479 -13.145   5.849  1.00  0.00     0.097 C 
HETATM   20  C   UNL     1      39.889 -11.915   6.552  1.00  0.00     0.053 C 
BRANCH  19  21
HETATM   21  O   UNL     1      40.041 -14.310   6.580  1.00  0.00    -0.384 OA
HETATM   22  H   UNL     1      40.776 -14.948   6.567  1.00  0.00     0.211 HD
ENDBRANCH  19  21
BRANCH  19  23
HETATM   23  C   UNL     1      39.917 -13.247   4.424  1.00  0.00    -0.023 A 
HETATM   24  C   UNL     1      39.335 -12.158   3.751  1.00  0.00     0.013 A 
HETATM   25  C   UNL     1      38.828 -12.302   2.455  1.00  0.00     0.043 A 
HETATM   26  C   UNL     1      38.888 -13.535   1.823  1.00  0.00     0.116 A 
HETATM   27  F   UNL     1      38.398 -13.668   0.584  1.00  0.00    -0.206 F 
HETATM   28  C   UNL     1      39.446 -14.633   2.461  1.00  0.00     0.043 A 
HETATM   29  C   UNL     1      39.955 -14.490   3.753  1.00  0.00     0.013 A 
ENDBRANCH  19  23
ENDBRANCH  18  19
ENDBRANCH   1  18
TORSDOF 6
ENDMDL
MODEL 9
REMARK VINA RESULT:      -8.3      8.230     11.122
REMARK  6 active torsions:
REMARK  status: ('A' for Active; 'I' for Inactive)
REMARK    1  A    between atoms: C_2  and  O_3 
REMARK    2  A    between atoms: C_2  and  C_4 
REMARK    3  A    between atoms: C_2  and  C_11 
REMARK    4  A    between atoms: C_11  and  N_12 
REMARK       I    between atoms: N_12  and  C_13 
REMARK    5  A    between atoms: C_13  and  C_14 
REMARK    6  A    between atoms: C_18  and  C_19 
ROOT
HETATM    1  N   UNL     1      39.782 -14.975   1.486  1.00  0.00    -0.352 N 
HETATM    2  C   UNL     1      40.271 -14.781   2.758  1.00  0.00     0.272 C 
HETATM    3  O   UNL     1      39.946 -13.838   3.473  1.00  0.00    -0.266 OA
HETATM    4  H   UNL     1      40.036 -15.856   1.046  1.00  0.00     0.162 HD
ENDROOT
BRANCH   2   5
HETATM    5  C   UNL     1      41.218 -15.822   3.187  1.00  0.00     0.146 A 
HETATM    6  N   UNL     1      41.924 -15.725   4.331  1.00  0.00    -0.169 NA
HETATM    7  N   UNL     1      42.661 -16.850   4.351  1.00  0.00    -0.277 N 
HETATM    8  H   UNL     1      43.305 -16.984   5.123  1.00  0.00     0.189 HD
HETATM    9  C   UNL     1      42.451 -17.688   3.286  1.00  0.00     0.063 A 
HETATM   10  C   UNL     1      41.524 -17.027   2.506  1.00  0.00     0.071 A 
BRANCH   9  11
HETATM   11  C   UNL     1      43.137 -18.966   3.102  1.00  0.00    -0.008 A 
HETATM   12  C   UNL     1      42.949 -19.734   1.940  1.00  0.00     0.017 A 
HETATM   13  C   UNL     1      43.615 -20.951   1.777  1.00  0.00     0.043 A 
HETATM   14  C   UNL     1      44.471 -21.406   2.771  1.00  0.00     0.116 A 
HETATM   15  F   UNL     1      45.108 -22.573   2.612  1.00  0.00    -0.206 F 
HETATM   16  C   UNL     1      44.677 -20.663   3.926  1.00  0.00     0.043 A 
HETATM   17  C   UNL     1      44.013 -19.445   4.089  1.00  0.00     0.017 A 
ENDBRANCH   9  11
ENDBRANCH   2   5
BRANCH   1  18
HETATM   18  C   UNL     1      38.746 -14.149   0.894  1.00  0.00     0.165 C 
BRANCH  18  19
HETATM   19  C   UNL     1      39.207 -13.399  -0.390  1.00  0.00     0.097 C 
HETATM   20  C   UNL     1      40.606 -12.797  -0.198  1.00  0.00     0.053 C 
BRANCH  19  21
HETATM   21  O   UNL     1      38.288 -12.302  -0.580  1.00  0.00    -0.384 OA
HETATM   22  H   UNL     1      38.671 -11.528  -0.132  1.00  0.00     0.211 HD
ENDBRANCH  19  21
BRANCH  19  23
HETATM   23  C   UNL     1      39.182 -14.258  -1.661  1.00  0.00    -0.023 A 
HETATM   24  C   UNL     1      40.302 -14.970  -2.127  1.00  0.00     0.013 A 
HETATM   25  C   UNL     1      40.233 -15.733  -3.297  1.00  0.00     0.043 A 
HETATM   26  C   UNL     1      39.049 -15.785  -4.019  1.00  0.00     0.116 A 
HETATM   27  F   UNL     1      38.990 -16.515  -5.140  1.00  0.00    -0.206 F 
HETATM   28  C   UNL     1      37.928 -15.088  -3.594  1.00  0.00     0.043 A 
HETATM   29  C   UNL     1      37.995 -14.328  -2.424  1.00  0.00     0.013 A 
ENDBRANCH  19  23
ENDBRANCH  18  19
ENDBRANCH   1  18
TORSDOF 6
ENDMDL
MODEL 10
REMARK VINA RESULT:      -8.2      7.878     10.816
REMARK  6 active torsions:
REMARK  status: ('A' for Active; 'I' for Inactive)
REMARK    1  A    between atoms: C_2  and  O_3 
REMARK    2  A    between atoms: C_2  and  C_4 
REMARK    3  A    between atoms: C_2  and  C_11 
REMARK    4  A    between atoms: C_11  and  N_12 
REMARK       I    between atoms: N_12  and  C_13 
REMARK    5  A    between atoms: C_13  and  C_14 
REMARK    6  A    between atoms: C_18  and  C_19 
ROOT
HETATM    1  N   UNL     1      41.549 -16.578   2.191  1.00  0.00    -0.352 N 
HETATM    2  C   UNL     1      40.548 -15.913   1.520  1.00  0.00     0.272 C 
HETATM    3  O   UNL     1      39.391 -15.840   1.926  1.00  0.00    -0.266 OA
HETATM    4  H   UNL     1      42.485 -16.460   1.812  1.00  0.00     0.162 HD
ENDROOT
BRANCH   2   5
HETATM    5  C   UNL     1      40.997 -15.283   0.269  1.00  0.00     0.146 A 
HETATM    6  N   UNL     1      41.299 -16.002  -0.831  1.00  0.00    -0.169 NA
HETATM    7  N   UNL     1      41.667 -15.073  -1.732  1.00  0.00    -0.277 N 
HETATM    8  H   UNL     1      41.970 -15.391  -2.645  1.00  0.00     0.189 HD
HETATM    9  C   UNL     1      41.597 -13.780  -1.279  1.00  0.00     0.063 A 
HETATM   10  C   UNL     1      41.178 -13.897   0.031  1.00  0.00     0.071 A 
BRANCH   9  11
HETATM   11  C   UNL     1      41.944 -12.611  -2.084  1.00  0.00    -0.008 A 
HETATM   12  C   UNL     1      41.629 -12.547  -3.452  1.00  0.00     0.017 A 
HETATM   13  C   UNL     1      41.965 -11.421  -4.208  1.00  0.00     0.043 A 
HETATM   14  C   UNL     1      42.613 -10.353  -3.600  1.00  0.00     0.116 A 
HETATM   15  F   UNL     1      42.932  -9.275  -4.326  1.00  0.00    -0.206 F 
HETATM   16  C   UNL     1      42.930 -10.390  -2.249  1.00  0.00     0.043 A 
HETATM   17  C   UNL     1      42.594 -11.515  -1.493  1.00  0.00     0.017 A 
ENDBRANCH   9  11
ENDBRANCH   2   5
BRANCH   1  18
HETATM   18  C   UNL     1      41.373 -17.170   3.504  1.00  0.00     0.165 C 
BRANCH  18  19
HETATM   19  C   UNL     1      42.708 -17.613   4.170  1.00  0.00     0.097 C 
HETATM   20  C   UNL     1      42.534 -17.776   5.687  1.00  0.00     0.053 C 
BRANCH  19  21
HETATM   21  O   UNL     1      43.652 -16.542   3.958  1.00  0.00    -0.384 OA
HETATM   22  H   UNL     1      43.988 -16.281   4.833  1.00  0.00     0.211 HD
ENDBRANCH  19  21
BRANCH  19  23
HETATM   23  C   UNL     1      43.311 -18.894   3.577  1.00  0.00    -0.023 A 
HETATM   24  C   UNL     1      42.937 -19.407   2.322  1.00  0.00     0.013 A 
HETATM   25  C   UNL     1      43.508 -20.584   1.827  1.00  0.00     0.043 A 
HETATM   26  C   UNL     1      44.451 -21.265   2.583  1.00  0.00     0.116 A 
HETATM   27  F   UNL     1      44.993 -22.392   2.106  1.00  0.00    -0.206 F 
HETATM   28  C   UNL     1      44.836 -20.793   3.829  1.00  0.00     0.043 A 
HETATM   29  C   UNL     1      44.269 -19.617   4.323  1.00  0.00     0.013 A 
ENDBRANCH  19  23
ENDBRANCH  18  19
ENDBRANCH   1  18
TORSDOF 6
ENDMDL
