MODEL 1
REMARK VINA RESULT:      -9.0      0.000      0.000
REMARK  5 active torsions:
REMARK  status: ('A' for Active; 'I' for Inactive)
REMARK    1  A    between atoms: O_2  and  C_3 
REMARK    2  A    between atoms: C_7  and  C_9 
REMARK    3  A    between atoms: C_9  and  N_11 
REMARK       I    between atoms: N_11  and  C_12 
REMARK    4  A    between atoms: C_12  and  C_14 
REMARK    5  A    between atoms: C_17  and  C_20 
ROOT
HETATM    1  N   UNL     1      42.259 -14.154   1.498  1.00  0.00    -0.349 N 
HETATM    2  C   UNL     1      43.099 -14.428   2.553  1.00  0.00     0.252 C 
HETATM    3  O   UNL     1      43.641 -13.578   3.247  1.00  0.00    -0.268 OA
HETATM    4  H   UNL     1      42.030 -14.901   0.856  1.00  0.00     0.163 HD
ENDROOT
BRANCH   2   5
HETATM    5  C   UNL     1      43.364 -15.870   2.785  1.00  0.00     0.032 A 
HETATM    6  C   UNL     1      43.213 -16.384   4.074  1.00  0.00     0.018 A 
HETATM    7  C   UNL     1      43.497 -17.731   4.326  1.00  0.00     0.013 A 
HETATM    8  C   UNL     1      43.916 -18.596   3.297  1.00  0.00    -0.023 A 
HETATM    9  C   UNL     1      44.028 -18.060   2.000  1.00  0.00     0.013 A 
HETATM   10  C   UNL     1      43.759 -16.712   1.743  1.00  0.00     0.018 A 
BRANCH   8  11
HETATM   11  C   UNL     1      44.226 -20.014   3.567  1.00  0.00     0.016 A 
HETATM   12  C   UNL     1      44.664 -20.434   4.833  1.00  0.00     0.034 A 
HETATM   13  C   UNL     1      44.951 -21.776   5.049  1.00  0.00     0.117 A 
HETATM   14  N   UNL     1      44.833 -22.732   4.104  1.00  0.00    -0.270 NA
HETATM   15  C   UNL     1      44.409 -22.320   2.888  1.00  0.00     0.159 A 
HETATM   16  C   UNL     1      44.101 -21.003   2.583  1.00  0.00     0.144 A 
HETATM   17  F   UNL     1      43.698 -20.702   1.340  1.00  0.00    -0.204 F 
ENDBRANCH   8  11
ENDBRANCH   2   5
BRANCH   1  18
HETATM   18  C   UNL     1      41.955 -12.792   1.089  1.00  0.00     0.114 C 
HETATM   19  C   UNL     1      40.579 -12.353   1.595  1.00  0.00     0.037 C 
BRANCH  18  20
HETATM   20  C   UNL     1      42.059 -12.673  -0.423  1.00  0.00    -0.033 A 
HETATM   21  C   UNL     1      42.580 -11.504  -0.995  1.00  0.00     0.009 A 
HETATM   22  C   UNL     1      42.700 -11.386  -2.379  1.00  0.00     0.003 A 
HETATM   23  C   UNL     1      42.309 -12.441  -3.203  1.00  0.00     0.037 A 
HETATM   24  C   UNL     1      41.800 -13.620  -2.656  1.00  0.00     0.068 A 
HETATM   25  C   UNL     1      41.665 -13.727  -1.271  1.00  0.00     0.046 A 
BRANCH  24  26
HETATM   26  O   UNL     1      41.472 -14.580  -3.573  1.00  0.00    -0.356 OA
HETATM   27  C   UNL     1      40.756 -15.710  -3.091  1.00  0.00     0.210 C 
ENDBRANCH  24  26
ENDBRANCH  18  20
ENDBRANCH   1  18
TORSDOF 5
ENDMDL
MODEL 2
REMARK VINA RESULT:      -8.7      2.088      3.147
REMARK  5 active torsions:
REMARK  status: ('A' for Active; 'I' for Inactive)
REMARK    1  A    between atoms: O_2  and  C_3 
REMARK    2  A    between atoms: C_7  and  C_9 
REMARK    3  A    between atoms: C_9  and  N_11 
REMARK       I    between atoms: N_11  and  C_12 
REMARK    4  A    between atoms: C_12  and  C_14 
REMARK    5  A    between atoms: C_17  and  C_20 
ROOT
HETATM    1  N   UNL     1      40.727 -15.277  -1.082  1.00  0.00    -0.349 N 
HETATM    2  C   UNL     1      40.474 -15.284   0.271  1.00  0.00     0.252 C 
HETATM    3  O   UNL     1      39.684 -14.536   0.832  1.00  0.00    -0.268 OA
HETATM    4  H   UNL     1      41.539 -15.775  -1.423  1.00  0.00     0.163 HD
ENDROOT
BRANCH   2   5
HETATM    5  C   UNL     1      41.280 -16.253   1.055  1.00  0.00     0.032 A 
HETATM    6  C   UNL     1      42.487 -16.712   0.524  1.00  0.00     0.018 A 
HETATM    7  C   UNL     1      43.243 -17.656   1.226  1.00  0.00     0.013 A 
HETATM    8  C   UNL     1      42.825 -18.147   2.478  1.00  0.00    -0.023 A 
HETATM    9  C   UNL     1      41.621 -17.644   3.006  1.00  0.00     0.013 A 
HETATM   10  C   UNL     1      40.852 -16.709   2.305  1.00  0.00     0.018 A 
BRANCH   8  11
HETATM   11  C   UNL     1      43.619 -19.152   3.211  1.00  0.00     0.016 A 
HETATM   12  C   UNL     1      44.076 -18.907   4.516  1.00  0.00     0.034 A 
HETATM   13  C   UNL     1      44.825 -19.875   5.174  1.00  0.00     0.117 A 
HETATM   14  N   UNL     1      45.154 -21.067   4.634  1.00  0.00    -0.270 NA
HETATM   15  C   UNL     1      44.709 -21.295   3.377  1.00  0.00     0.159 A 
HETATM   16  C   UNL     1      43.957 -20.389   2.647  1.00  0.00     0.144 A 
HETATM   17  F   UNL     1      43.576 -20.714   1.403  1.00  0.00    -0.204 F 
ENDBRANCH   8  11
ENDBRANCH   2   5
BRANCH   1  18
HETATM   18  C   UNL     1      40.079 -14.338  -1.983  1.00  0.00     0.114 C 
HETATM   19  C   UNL     1      39.533 -15.045  -3.225  1.00  0.00     0.037 C 
BRANCH  18  20
HETATM   20  C   UNL     1      41.048 -13.226  -2.352  1.00  0.00    -0.033 A 
HETATM   21  C   UNL     1      41.083 -12.740  -3.667  1.00  0.00     0.009 A 
HETATM   22  C   UNL     1      41.951 -11.709  -4.018  1.00  0.00     0.003 A 
HETATM   23  C   UNL     1      42.787 -11.146  -3.054  1.00  0.00     0.037 A 
HETATM   24  C   UNL     1      42.761 -11.602  -1.736  1.00  0.00     0.068 A 
HETATM   25  C   UNL     1      41.902 -12.648  -1.392  1.00  0.00     0.046 A 
BRANCH  24  26
HETATM   26  O   UNL     1      43.617 -10.953  -0.889  1.00  0.00    -0.356 OA
HETATM   27  C   UNL     1      43.868  -9.580  -1.159  1.00  0.00     0.210 C 
ENDBRANCH  24  26
ENDBRANCH  18  20
ENDBRANCH   1  18
TORSDOF 5
ENDMDL
MODEL 3
REMARK VINA RESULT:      -8.4      3.728      8.716
REMARK  5 active torsions:
REMARK  status: ('A' for Active; 'I' for Inactive)
REMARK    1  A    between atoms: O_2  and  C_3 
REMARK    2  A    between atoms: C_7  and  C_9 
REMARK    3  A    between atoms: C_9  and  N_11 
REMARK       I    between atoms: N_11  and  C_12 
REMARK    4  A    between atoms: C_12  and  C_14 
REMARK    5  A    between atoms: C_17  and  C_20 
ROOT
HETATM    1  N   UNL     1      42.850 -17.379   5.002  1.00  0.00    -0.349 N 
HETATM    2  C   UNL     1      41.550 -16.942   5.121  1.00  0.00     0.252 C 
HETATM    3  O   UNL     1      40.844 -17.130   6.103  1.00  0.00    -0.268 OA
HETATM    4  H   UNL     1      43.280 -17.368   4.087  1.00  0.00     0.163 HD
ENDROOT
BRANCH   2   5
HETATM    5  C   UNL     1      41.011 -16.244   3.927  1.00  0.00     0.032 A 
HETATM    6  C   UNL     1      41.070 -16.885   2.689  1.00  0.00     0.018 A 
HETATM    7  C   UNL     1      40.605 -16.231   1.542  1.00  0.00     0.013 A 
HETATM    8  C   UNL     1      40.054 -14.937   1.609  1.00  0.00    -0.023 A 
HETATM    9  C   UNL     1      39.976 -14.327   2.875  1.00  0.00     0.013 A 
HETATM   10  C   UNL     1      40.450 -14.969   4.024  1.00  0.00     0.018 A 
BRANCH   8  11
HETATM   11  C   UNL     1      39.575 -14.245   0.397  1.00  0.00     0.016 A 
HETATM   12  C   UNL     1      40.474 -13.744  -0.558  1.00  0.00     0.034 A 
HETATM   13  C   UNL     1      39.987 -13.093  -1.685  1.00  0.00     0.117 A 
HETATM   14  N   UNL     1      38.675 -12.905  -1.936  1.00  0.00    -0.270 NA
HETATM   15  C   UNL     1      37.815 -13.392  -1.012  1.00  0.00     0.159 A 
HETATM   16  C   UNL     1      38.212 -14.053   0.140  1.00  0.00     0.144 A 
HETATM   17  F   UNL     1      37.274 -14.487   0.995  1.00  0.00    -0.204 F 
ENDBRANCH   8  11
ENDBRANCH   2   5
BRANCH   1  18
HETATM   18  C   UNL     1      43.505 -18.146   6.050  1.00  0.00     0.114 C 
HETATM   19  C   UNL     1      44.665 -17.362   6.669  1.00  0.00     0.037 C 
BRANCH  18  20
HETATM   20  C   UNL     1      43.966 -19.485   5.498  1.00  0.00    -0.033 A 
HETATM   21  C   UNL     1      44.069 -20.592   6.351  1.00  0.00     0.009 A 
HETATM   22  C   UNL     1      44.472 -21.831   5.858  1.00  0.00     0.003 A 
HETATM   23  C   UNL     1      44.765 -21.978   4.503  1.00  0.00     0.037 A 
HETATM   24  C   UNL     1      44.655 -20.895   3.630  1.00  0.00     0.068 A 
HETATM   25  C   UNL     1      44.269 -19.650   4.131  1.00  0.00     0.046 A 
BRANCH  24  26
HETATM   26  O   UNL     1      44.955 -21.179   2.326  1.00  0.00    -0.356 OA
HETATM   27  C   UNL     1      43.942 -21.819   1.560  1.00  0.00     0.210 C 
ENDBRANCH  24  26
ENDBRANCH  18  20
ENDBRANCH   1  18
TORSDOF 5
ENDMDL
MODEL 4
REMARK VINA RESULT:      -8.4      2.375      3.265
REMARK  5 active torsions:
REMARK  status: ('A' for Active; 'I' for Inactive)
REMARK    1  A    between atoms: O_2  and  C_3 
REMARK    2  A    between atoms: C_7  and  C_9 
REMARK    3  A    between atoms: C_9  and  N_11 
REMARK       I    between atoms: N_11  and  C_12 
REMARK    4  A    between atoms: C_12  and  C_14 
REMARK    5  A    between atoms: C_17  and  C_20 
ROOT
HETATM    1  N   UNL     1      41.796 -15.074  -1.004  1.00  0.00    -0.349 N 
HETATM    2  C   UNL     1      41.139 -15.464   0.141  1.00  0.00     0.252 C 
HETATM    3  O   UNL     1      40.097 -14.966   0.545  1.00  0.00    -0.268 OA
HETATM    4  H   UNL     1      42.746 -15.388  -1.146  1.00  0.00     0.163 HD
ENDROOT
BRANCH   2   5
HETATM    5  C   UNL     1      41.814 -16.533   0.919  1.00  0.00     0.032 A 
HETATM    6  C   UNL     1      41.189 -17.030   2.063  1.00  0.00     0.018 A 
HETATM    7  C   UNL     1      41.825 -18.009   2.835  1.00  0.00     0.013 A 
HETATM    8  C   UNL     1      43.084 -18.525   2.473  1.00  0.00    -0.023 A 
HETATM    9  C   UNL     1      43.677 -18.030   1.296  1.00  0.00     0.013 A 
HETATM   10  C   UNL     1      43.054 -17.042   0.526  1.00  0.00     0.018 A 
BRANCH   8  11
HETATM   11  C   UNL     1      43.758 -19.549   3.295  1.00  0.00     0.016 A 
HETATM   12  C   UNL     1      44.089 -19.302   4.637  1.00  0.00     0.034 A 
HETATM   13  C   UNL     1      44.727 -20.287   5.380  1.00  0.00     0.117 A 
HETATM   14  N   UNL     1      45.059 -21.500   4.890  1.00  0.00    -0.270 NA
HETATM   15  C   UNL     1      44.735 -21.731   3.598  1.00  0.00     0.159 A 
HETATM   16  C   UNL     1      44.100 -20.807   2.784  1.00  0.00     0.144 A 
HETATM   17  F   UNL     1      43.834 -21.137   1.511  1.00  0.00    -0.204 F 
ENDBRANCH   8  11
ENDBRANCH   2   5
BRANCH   1  18
HETATM   18  C   UNL     1      41.309 -13.988  -1.841  1.00  0.00     0.114 C 
HETATM   19  C   UNL     1      40.933 -12.765  -1.002  1.00  0.00     0.037 C 
BRANCH  18  20
HETATM   20  C   UNL     1      40.140 -14.471  -2.683  1.00  0.00    -0.033 A 
HETATM   21  C   UNL     1      40.191 -15.735  -3.286  1.00  0.00     0.009 A 
HETATM   22  C   UNL     1      39.119 -16.200  -4.046  1.00  0.00     0.003 A 
HETATM   23  C   UNL     1      37.981 -15.410  -4.200  1.00  0.00     0.037 A 
HETATM   24  C   UNL     1      37.900 -14.154  -3.597  1.00  0.00     0.068 A 
HETATM   25  C   UNL     1      38.983 -13.683  -2.852  1.00  0.00     0.046 A 
BRANCH  24  26
HETATM   26  O   UNL     1      36.724 -13.491  -3.814  1.00  0.00    -0.356 OA
HETATM   27  C   UNL     1      35.858 -14.027  -4.807  1.00  0.00     0.210 C 
ENDBRANCH  24  26
ENDBRANCH  18  20
ENDBRANCH   1  18
TORSDOF 5
ENDMDL
MODEL 5
REMARK VINA RESULT:      -8.3      2.538      3.324
REMARK  5 active torsions:
REMARK  status: ('A' for Active; 'I' for Inactive)
REMARK    1  A    between atoms: O_2  and  C_3 
REMARK    2  A    between atoms: C_7  and  C_9 
REMARK    3  A    between atoms: C_9  and  N_11 
REMARK       I    between atoms: N_11  and  C_12 
REMARK    4  A    between atoms: C_12  and  C_14 
REMARK    5  A    between atoms: C_17  and  C_20 
ROOT
HETATM    1  N   UNL     1      41.315 -14.024   3.735  1.00  0.00    -0.349 N 
HETATM    2  C   UNL     1      42.636 -14.304   3.466  1.00  0.00     0.252 C 
HETATM    3  O   UNL     1      43.506 -13.457   3.315  1.00  0.00    -0.268 OA
HETATM    4  H   UNL     1      40.634 -14.765   3.633  1.00  0.00     0.163 HD
ENDROOT
BRANCH   2   5
HETATM    5  C   UNL     1      42.953 -15.746   3.315  1.00  0.00     0.032 A 
HETATM    6  C   UNL     1      42.530 -16.637   4.303  1.00  0.00     0.018 A 
HETATM    7  C   UNL     1      42.853 -17.995   4.203  1.00  0.00     0.013 A 
HETATM    8  C   UNL     1      43.584 -18.495   3.108  1.00  0.00    -0.023 A 
HETATM    9  C   UNL     1      43.969 -17.582   2.109  1.00  0.00     0.013 A 
HETATM   10  C   UNL     1      43.662 -16.220   2.208  1.00  0.00     0.018 A 
BRANCH   8  11
HETATM   11  C   UNL     1      43.933 -19.926   3.010  1.00  0.00     0.016 A 
HETATM   12  C   UNL     1      43.674 -20.659   1.841  1.00  0.00     0.034 A 
HETATM   13  C   UNL     1      44.012 -22.006   1.787  1.00  0.00     0.117 A 
HETATM   14  N   UNL     1      44.588 -22.678   2.805  1.00  0.00    -0.270 NA
HETATM   15  C   UNL     1      44.835 -21.964   3.927  1.00  0.00     0.159 A 
HETATM   16  C   UNL     1      44.532 -20.620   4.070  1.00  0.00     0.144 A 
HETATM   17  F   UNL     1      44.811 -20.010   5.231  1.00  0.00    -0.204 F 
ENDBRANCH   8  11
ENDBRANCH   2   5
BRANCH   1  18
HETATM   18  C   UNL     1      40.821 -12.660   3.839  1.00  0.00     0.114 C 
HETATM   19  C   UNL     1      40.454 -12.310   5.282  1.00  0.00     0.037 C 
BRANCH  18  20
HETATM   20  C   UNL     1      39.643 -12.466   2.899  1.00  0.00    -0.033 A 
HETATM   21  C   UNL     1      38.798 -11.359   3.061  1.00  0.00     0.009 A 
HETATM   22  C   UNL     1      37.724 -11.156   2.196  1.00  0.00     0.003 A 
HETATM   23  C   UNL     1      37.491 -12.052   1.154  1.00  0.00     0.037 A 
HETATM   24  C   UNL     1      38.326 -13.154   0.963  1.00  0.00     0.068 A 
HETATM   25  C   UNL     1      39.391 -13.364   1.842  1.00  0.00     0.046 A 
BRANCH  24  26
HETATM   26  O   UNL     1      37.997 -13.943  -0.104  1.00  0.00    -0.356 OA
HETATM   27  C   UNL     1      38.903 -13.949  -1.201  1.00  0.00     0.210 C 
ENDBRANCH  24  26
ENDBRANCH  18  20
ENDBRANCH   1  18
TORSDOF 5
ENDMDL
MODEL 6
REMARK VINA RESULT:      -8.1      1.874      2.542
REMARK  5 active torsions:
REMARK  status: ('A' for Active; 'I' for Inactive)
REMARK    1  A    between atoms: O_2  and  C_3 
REMARK    2  A    between atoms: C_7  and  C_9 
REMARK    3  A    between atoms: C_9  and  N_11 
REMARK       I    between atoms: N_11  and  C_12 
REMARK    4  A    between atoms: C_12  and  C_14 
REMARK    5  A    between atoms: C_17  and  C_20 
ROOT
HETATM    1  N   UNL     1      41.543 -14.234   2.714  1.00  0.00    -0.349 N 
HETATM    2  C   UNL     1      42.858 -14.453   3.056  1.00  0.00     0.252 C 
HETATM    3  O   UNL     1      43.699 -13.572   3.174  1.00  0.00    -0.268 OA
HETATM    4  H   UNL     1      40.979 -15.026   2.434  1.00  0.00     0.163 HD
ENDROOT
BRANCH   2   5
HETATM    5  C   UNL     1      43.230 -15.879   3.236  1.00  0.00     0.032 A 
HETATM    6  C   UNL     1      43.646 -16.612   2.123  1.00  0.00     0.018 A 
HETATM    7  C   UNL     1      43.963 -17.968   2.259  1.00  0.00     0.013 A 
HETATM    8  C   UNL     1      43.892 -18.615   3.508  1.00  0.00    -0.023 A 
HETATM    9  C   UNL     1      43.503 -17.845   4.620  1.00  0.00     0.013 A 
HETATM   10  C   UNL     1      43.172 -16.492   4.490  1.00  0.00     0.018 A 
BRANCH   8  11
HETATM   11  C   UNL     1      44.216 -20.048   3.647  1.00  0.00     0.016 A 
HETATM   12  C   UNL     1      44.693 -20.572   4.860  1.00  0.00     0.034 A 
HETATM   13  C   UNL     1      44.993 -21.925   4.953  1.00  0.00     0.117 A 
HETATM   14  N   UNL     1      44.852 -22.798   3.933  1.00  0.00    -0.270 NA
HETATM   15  C   UNL     1      44.391 -22.286   2.769  1.00  0.00     0.159 A 
HETATM   16  C   UNL     1      44.068 -20.951   2.587  1.00  0.00     0.144 A 
HETATM   17  F   UNL     1      43.628 -20.547   1.386  1.00  0.00    -0.204 F 
ENDBRANCH   8  11
ENDBRANCH   2   5
BRANCH   1  18
HETATM   18  C   UNL     1      41.032 -12.903   2.428  1.00  0.00     0.114 C 
HETATM   19  C   UNL     1      40.609 -12.182   3.710  1.00  0.00     0.037 C 
BRANCH  18  20
HETATM   20  C   UNL     1      39.887 -12.994   1.433  1.00  0.00    -0.033 A 
HETATM   21  C   UNL     1      38.609 -12.549   1.799  1.00  0.00     0.009 A 
HETATM   22  C   UNL     1      37.552 -12.608   0.893  1.00  0.00     0.003 A 
HETATM   23  C   UNL     1      37.765 -13.101  -0.393  1.00  0.00     0.037 A 
HETATM   24  C   UNL     1      39.031 -13.537  -0.787  1.00  0.00     0.068 A 
HETATM   25  C   UNL     1      40.084 -13.494   0.130  1.00  0.00     0.046 A 
BRANCH  24  26
HETATM   26  O   UNL     1      39.107 -13.981  -2.078  1.00  0.00    -0.356 OA
HETATM   27  C   UNL     1      37.901 -14.449  -2.668  1.00  0.00     0.210 C 
ENDBRANCH  24  26
ENDBRANCH  18  20
ENDBRANCH   1  18
TORSDOF 5
ENDMDL
MODEL 7
REMARK VINA RESULT:      -7.8      2.276      2.506
REMARK  5 active torsions:
REMARK  status: ('A' for Active; 'I' for Inactive)
REMARK    1  A    between atoms: O_2  and  C_3 
REMARK    2  A    between atoms: C_7  and  C_9 
REMARK    3  A    between atoms: C_9  and  N_11 
REMARK       I    between atoms: N_11  and  C_12 
REMARK    4  A    between atoms: C_12  and  C_14 
REMARK    5  A    between atoms: C_17  and  C_20 
ROOT
HETATM    1  N   UNL     1      39.460 -14.672   1.004  1.00  0.00    -0.349 N 
HETATM    2  C   UNL     1      39.828 -14.689   2.330  1.00  0.00     0.252 C 
HETATM    3  O   UNL     1      39.511 -13.836   3.148  1.00  0.00    -0.268 OA
HETATM    4  H   UNL     1      39.936 -15.291   0.362  1.00  0.00     0.163 HD
ENDROOT
BRANCH   2   5
HETATM    5  C   UNL     1      40.709 -15.818   2.722  1.00  0.00     0.032 A 
HETATM    6  C   UNL     1      41.287 -15.812   3.992  1.00  0.00     0.018 A 
HETATM    7  C   UNL     1      42.152 -16.845   4.369  1.00  0.00     0.013 A 
HETATM    8  C   UNL     1      42.443 -17.913   3.498  1.00  0.00    -0.023 A 
HETATM    9  C   UNL     1      41.820 -17.912   2.236  1.00  0.00     0.013 A 
HETATM   10  C   UNL     1      40.964 -16.876   1.846  1.00  0.00     0.018 A 
BRANCH   8  11
HETATM   11  C   UNL     1      43.365 -18.995   3.894  1.00  0.00     0.016 A 
HETATM   12  C   UNL     1      43.628 -19.267   5.246  1.00  0.00     0.034 A 
HETATM   13  C   UNL     1      44.506 -20.291   5.582  1.00  0.00     0.117 A 
HETATM   14  N   UNL     1      45.139 -21.065   4.676  1.00  0.00    -0.270 NA
HETATM   15  C   UNL     1      44.880 -20.797   3.376  1.00  0.00     0.159 A 
HETATM   16  C   UNL     1      44.020 -19.796   2.951  1.00  0.00     0.144 A 
HETATM   17  F   UNL     1      43.842 -19.610   1.635  1.00  0.00    -0.204 F 
ENDBRANCH   8  11
ENDBRANCH   2   5
BRANCH   1  18
HETATM   18  C   UNL     1      38.662 -13.595   0.439  1.00  0.00     0.114 C 
HETATM   19  C   UNL     1      37.166 -13.901   0.535  1.00  0.00     0.037 C 
BRANCH  18  20
HETATM   20  C   UNL     1      39.090 -13.336  -0.997  1.00  0.00    -0.033 A 
HETATM   21  C   UNL     1      39.338 -12.023  -1.423  1.00  0.00     0.009 A 
HETATM   22  C   UNL     1      39.748 -11.770  -2.730  1.00  0.00     0.003 A 
HETATM   23  C   UNL     1      39.926 -12.827  -3.621  1.00  0.00     0.037 A 
HETATM   24  C   UNL     1      39.699 -14.143  -3.217  1.00  0.00     0.068 A 
HETATM   25  C   UNL     1      39.270 -14.392  -1.911  1.00  0.00     0.046 A 
BRANCH  24  26
HETATM   26  O   UNL     1      39.926 -15.085  -4.182  1.00  0.00    -0.356 OA
HETATM   27  C   UNL     1      39.036 -16.195  -4.218  1.00  0.00     0.210 C 
ENDBRANCH  24  26
ENDBRANCH  18  20
ENDBRANCH   1  18
TORSDOF 5
ENDMDL
MODEL 8
REMARK VINA RESULT:      -7.7      3.859      8.938
REMARK  5 active torsions:
REMARK  status: ('A' for Active; 'I' for Inactive)
REMARK    1  A    between atoms: O_2  and  C_3 
REMARK    2  A    between atoms: C_7  and  C_9 
REMARK    3  A    between atoms: C_9  and  N_11 
REMARK       I    between atoms: N_11  and  C_12 
REMARK    4  A    between atoms: C_12  and  C_14 
REMARK    5  A    between atoms: C_17  and  C_20 
ROOT
HETATM    1  N   UNL     1      41.826 -14.775   2.123  1.00  0.00    -0.349 N 
HETATM    2  C   UNL     1      40.459 -14.679   2.244  1.00  0.00     0.252 C 
HETATM    3  O   UNL     1      39.839 -14.877   3.280  1.00  0.00    -0.268 OA
HETATM    4  H   UNL     1      42.228 -14.805   1.196  1.00  0.00     0.163 HD
ENDROOT
BRANCH   2   5
HETATM    5  C   UNL     1      39.739 -14.356   0.986  1.00  0.00     0.032 A 
HETATM    6  C   UNL     1      38.371 -14.084   1.043  1.00  0.00     0.018 A 
HETATM    7  C   UNL     1      37.664 -13.818  -0.135  1.00  0.00     0.013 A 
HETATM    8  C   UNL     1      38.307 -13.797  -1.387  1.00  0.00    -0.023 A 
HETATM    9  C   UNL     1      39.692 -14.042  -1.413  1.00  0.00     0.013 A 
HETATM   10  C   UNL     1      40.405 -14.322  -0.242  1.00  0.00     0.018 A 
BRANCH   8  11
HETATM   11  C   UNL     1      37.555 -13.527  -2.629  1.00  0.00     0.016 A 
HETATM   12  C   UNL     1      37.166 -12.223  -2.974  1.00  0.00     0.034 A 
HETATM   13  C   UNL     1      36.455 -12.007  -4.148  1.00  0.00     0.117 A 
HETATM   14  N   UNL     1      36.105 -12.988  -5.006  1.00  0.00    -0.270 NA
HETATM   15  C   UNL     1      36.485 -14.241  -4.667  1.00  0.00     0.159 A 
HETATM   16  C   UNL     1      37.194 -14.548  -3.517  1.00  0.00     0.144 A 
HETATM   17  F   UNL     1      37.512 -15.828  -3.272  1.00  0.00    -0.204 F 
ENDBRANCH   8  11
ENDBRANCH   2   5
BRANCH   1  18
HETATM   18  C   UNL     1      42.674 -15.157   3.242  1.00  0.00     0.114 C 
HETATM   19  C   UNL     1      43.830 -14.171   3.425  1.00  0.00     0.037 C 
BRANCH  18  20
HETATM   20  C   UNL     1      43.176 -16.578   3.046  1.00  0.00    -0.033 A 
HETATM   21  C   UNL     1      43.436 -17.053   1.753  1.00  0.00     0.009 A 
HETATM   22  C   UNL     1      43.914 -18.347   1.557  1.00  0.00     0.003 A 
HETATM   23  C   UNL     1      44.148 -19.176   2.654  1.00  0.00     0.037 A 
HETATM   24  C   UNL     1      43.910 -18.722   3.951  1.00  0.00     0.068 A 
HETATM   25  C   UNL     1      43.413 -17.431   4.143  1.00  0.00     0.046 A 
BRANCH  24  26
HETATM   26  O   UNL     1      44.195 -19.627   4.936  1.00  0.00    -0.356 OA
HETATM   27  C   UNL     1      45.095 -20.677   4.601  1.00  0.00     0.210 C 
ENDBRANCH  24  26
ENDBRANCH  18  20
ENDBRANCH   1  18
TORSDOF 5
ENDMDL
MODEL 9
REMARK VINA RESULT:      -7.7      2.334      4.088
REMARK  5 active torsions:
REMARK  status: ('A' for Active; 'I' for Inactive)
REMARK    1  A    between atoms: O_2  and  C_3 
REMARK    2  A    between atoms: C_7  and  C_9 
REMARK    3  A    between atoms: C_9  and  N_11 
REMARK       I    between atoms: N_11  and  C_12 
REMARK    4  A    between atoms: C_12  and  C_14 
REMARK    5  A    between atoms: C_17  and  C_20 
ROOT
HETATM    1  N   UNL     1      41.634 -14.403   1.446  1.00  0.00    -0.349 N 
HETATM    2  C   UNL     1      41.696 -15.557   0.699  1.00  0.00     0.252 C 
HETATM    3  O   UNL     1      41.274 -15.665  -0.445  1.00  0.00    -0.268 OA
HETATM    4  H   UNL     1      41.809 -14.462   2.440  1.00  0.00     0.163 HD
ENDROOT
BRANCH   2   5
HETATM    5  C   UNL     1      42.282 -16.727   1.399  1.00  0.00     0.032 A 
HETATM    6  C   UNL     1      43.410 -17.344   0.854  1.00  0.00     0.018 A 
HETATM    7  C   UNL     1      43.956 -18.473   1.474  1.00  0.00     0.013 A 
HETATM    8  C   UNL     1      43.403 -18.998   2.658  1.00  0.00    -0.023 A 
HETATM    9  C   UNL     1      42.286 -18.338   3.205  1.00  0.00     0.013 A 
HETATM   10  C   UNL     1      41.727 -17.216   2.584  1.00  0.00     0.018 A 
BRANCH   8  11
HETATM   11  C   UNL     1      43.974 -20.196   3.304  1.00  0.00     0.016 A 
HETATM   12  C   UNL     1      44.468 -20.149   4.617  1.00  0.00     0.034 A 
HETATM   13  C   UNL     1      45.002 -21.296   5.191  1.00  0.00     0.117 A 
HETATM   14  N   UNL     1      45.081 -22.485   4.560  1.00  0.00    -0.270 NA
HETATM   15  C   UNL     1      44.602 -22.523   3.296  1.00  0.00     0.159 A 
HETATM   16  C   UNL     1      44.053 -21.430   2.645  1.00  0.00     0.144 A 
HETATM   17  F   UNL     1      43.616 -21.576   1.386  1.00  0.00    -0.204 F 
ENDBRANCH   8  11
ENDBRANCH   2   5
BRANCH   1  18
HETATM   18  C   UNL     1      41.021 -13.186   0.937  1.00  0.00     0.114 C 
HETATM   19  C   UNL     1      42.078 -12.197   0.439  1.00  0.00     0.037 C 
BRANCH  18  20
HETATM   20  C   UNL     1      40.136 -12.569   2.007  1.00  0.00    -0.033 A 
HETATM   21  C   UNL     1      40.405 -12.814   3.361  1.00  0.00     0.009 A 
HETATM   22  C   UNL     1      39.615 -12.240   4.355  1.00  0.00     0.003 A 
HETATM   23  C   UNL     1      38.554 -11.407   4.005  1.00  0.00     0.037 A 
HETATM   24  C   UNL     1      38.274 -11.136   2.665  1.00  0.00     0.068 A 
HETATM   25  C   UNL     1      39.057 -11.727   1.671  1.00  0.00     0.046 A 
BRANCH  24  26
HETATM   26  O   UNL     1      37.218 -10.291   2.460  1.00  0.00    -0.356 OA
HETATM   27  C   UNL     1      36.357 -10.592   1.370  1.00  0.00     0.210 C 
ENDBRANCH  24  26
ENDBRANCH  18  20
ENDBRANCH   1  18
TORSDOF 5
ENDMDL
MODEL 10
REMARK VINA RESULT:      -7.7      5.836      8.404
REMARK  5 active torsions:
REMARK  status: ('A' for Active; 'I' for Inactive)
REMARK    1  A    between atoms: O_2  and  C_3 
REMARK    2  A    between atoms: C_7  and  C_9 
REMARK    3  A    between atoms: C_9  and  N_11 
REMARK       I    between atoms: N_11  and  C_12 
REMARK    4  A    between atoms: C_12  and  C_14 
REMARK    5  A    between atoms: C_17  and  C_20 
ROOT
HETATM    1  N   UNL     1      41.905 -12.113   6.934  1.00  0.00    -0.349 N 
HETATM    2  C   UNL     1      41.002 -12.790   6.147  1.00  0.00     0.252 C 
HETATM    3  O   UNL     1      39.833 -12.459   5.992  1.00  0.00    -0.268 OA
HETATM    4  H   UNL     1      42.776 -12.569   7.171  1.00  0.00     0.163 HD
ENDROOT
BRANCH   2   5
HETATM    5  C   UNL     1      41.526 -14.023   5.509  1.00  0.00     0.032 A 
HETATM    6  C   UNL     1      40.878 -15.235   5.750  1.00  0.00     0.018 A 
HETATM    7  C   UNL     1      41.378 -16.417   5.192  1.00  0.00     0.013 A 
HETATM    8  C   UNL     1      42.520 -16.413   4.368  1.00  0.00    -0.023 A 
HETATM    9  C   UNL     1      43.135 -15.173   4.113  1.00  0.00     0.013 A 
HETATM   10  C   UNL     1      42.649 -13.988   4.678  1.00  0.00     0.018 A 
BRANCH   8  11
HETATM   11  C   UNL     1      43.051 -17.662   3.790  1.00  0.00     0.016 A 
HETATM   12  C   UNL     1      42.585 -18.150   2.559  1.00  0.00     0.034 A 
HETATM   13  C   UNL     1      43.105 -19.333   2.048  1.00  0.00     0.117 A 
HETATM   14  N   UNL     1      44.055 -20.065   2.666  1.00  0.00    -0.270 NA
HETATM   15  C   UNL     1      44.500 -19.588   3.850  1.00  0.00     0.159 A 
HETATM   16  C   UNL     1      44.038 -18.419   4.435  1.00  0.00     0.144 A 
HETATM   17  F   UNL     1      44.542 -18.042   5.619  1.00  0.00    -0.204 F 
ENDBRANCH   8  11
ENDBRANCH   2   5
BRANCH   1  18
HETATM   18  C   UNL     1      41.533 -10.928   7.690  1.00  0.00     0.114 C 
HETATM   19  C   UNL     1      41.627  -9.666   6.829  1.00  0.00     0.037 C 
BRANCH  18  20
HETATM   20  C   UNL     1      42.397 -10.820   8.936  1.00  0.00    -0.033 A 
HETATM   21  C   UNL     1      43.726 -11.266   8.904  1.00  0.00     0.009 A 
HETATM   22  C   UNL     1      44.536 -11.157  10.032  1.00  0.00     0.003 A 
HETATM   23  C   UNL     1      44.030 -10.591  11.201  1.00  0.00     0.037 A 
HETATM   24  C   UNL     1      42.714 -10.127  11.254  1.00  0.00     0.068 A 
HETATM   25  C   UNL     1      41.899 -10.254  10.127  1.00  0.00     0.046 A 
BRANCH  24  26
HETATM   26  O   UNL     1      42.349  -9.580  12.453  1.00  0.00    -0.356 OA
HETATM   27  C   UNL     1      43.366  -9.462  13.441  1.00  0.00     0.210 C 
ENDBRANCH  24  26
ENDBRANCH  18  20
ENDBRANCH   1  18
TORSDOF 5
ENDMDL
