MODEL 1
REMARK VINA RESULT:     -11.0      0.000      0.000
REMARK  6 active torsions:
REMARK  status: ('A' for Active; 'I' for Inactive)
REMARK    1  A    between atoms: C_6  and  N_7 
REMARK       I    between atoms: N_7  and  C_8 
REMARK    2  A    between atoms: C_8  and  C_9 
REMARK    3  A    between atoms: C_11  and  N_12 
REMARK    4  A    between atoms: N_12  and  N_13 
REMARK       I    between atoms: N_13  and  C_14 
REMARK    5  A    between atoms: C_14  and  C_15 
REMARK    6  A    between atoms: C_16  and  C_17 
ROOT
HETATM    1  C   UNL     1      43.225 -15.390   6.097  1.00  0.00     0.151 A 
HETATM    2  N   UNL     1      44.226 -15.002   6.951  1.00  0.00    -0.210 NA
HETATM    3  C   UNL     1      44.302 -13.702   7.252  1.00  0.00     0.220 A 
HETATM    4  N   UNL     1      43.442 -12.779   6.783  1.00  0.00    -0.228 NA
HETATM    5  C   UNL     1      42.466 -13.208   5.954  1.00  0.00     0.146 A 
HETATM    6  C   UNL     1      42.299 -14.517   5.562  1.00  0.00     0.086 A 
HETATM    7 CL   UNL     1      41.005 -14.889   4.499  1.00  0.00    -0.080 Cl
ENDROOT
BRANCH   3   8
HETATM    8  N   UNL     1      45.349 -13.287   8.085  1.00  0.00    -0.169 NA
HETATM    9  H   UNL     1      45.966 -14.076   8.287  1.00  0.00     0.156 HD
BRANCH   8  10
HETATM   10  N   UNL     1      44.907 -12.608   9.235  1.00  0.00    -0.281 N 
HETATM   11  C   UNL     1      45.476 -11.391   9.525  1.00  0.00     0.255 C 
HETATM   12  O   UNL     1      46.302 -10.836   8.809  1.00  0.00    -0.267 OA
HETATM   13  H   UNL     1      44.296 -13.136   9.854  1.00  0.00     0.184 HD
BRANCH  11  14
HETATM   14  C   UNL     1      44.994 -10.822  10.810  1.00  0.00     0.076 C 
HETATM   15  C   UNL     1      43.721 -11.018  11.189  1.00  0.00     0.017 C 
BRANCH  15  16
HETATM   16  C   UNL     1      43.103 -10.500  12.422  1.00  0.00    -0.036 A 
HETATM   17  C   UNL     1      41.878 -11.049  12.833  1.00  0.00     0.013 A 
HETATM   18  C   UNL     1      41.249 -10.611  14.003  1.00  0.00     0.024 A 
HETATM   19  C   UNL     1      41.844  -9.620  14.777  1.00  0.00     0.034 A 
HETATM   20 CL   UNL     1      41.072  -9.076  16.214  1.00  0.00    -0.084 Cl
HETATM   21  C   UNL     1      43.065  -9.071  14.395  1.00  0.00     0.024 A 
HETATM   22  C   UNL     1      43.694  -9.514  13.226  1.00  0.00     0.013 A 
ENDBRANCH  15  16
ENDBRANCH  11  14
ENDBRANCH   8  10
ENDBRANCH   3   8
BRANCH   1  23
HETATM   23  C   UNL     1      43.240 -16.866   5.784  1.00  0.00     0.276 C 
HETATM   24  N   UNL     1      43.779 -17.148   4.538  1.00  0.00    -0.322 N 
HETATM   25  H   UNL     1      44.098 -16.333   4.021  1.00  0.00     0.169 HD
HETATM   26  O   UNL     1      42.808 -17.687   6.580  1.00  0.00    -0.266 OA
BRANCH  24  27
HETATM   27  C   UNL     1      43.931 -18.403   3.918  1.00  0.00     0.035 A 
HETATM   28  C   UNL     1      44.424 -19.539   4.562  1.00  0.00     0.037 A 
HETATM   29  C   UNL     1      44.543 -20.769   3.888  1.00  0.00    -0.054 A 
HETATM   30  C   UNL     1      44.190 -20.851   2.528  1.00  0.00    -0.056 A 
HETATM   31  C   UNL     1      45.089 -21.957   4.636  1.00  0.00     0.049 C 
HETATM   32  C   UNL     1      44.310 -22.137   1.757  1.00  0.00     0.049 C 
HETATM   33  C   UNL     1      43.685 -19.712   1.889  1.00  0.00     0.009 A 
HETATM   34  C   UNL     1      43.556 -18.502   2.576  1.00  0.00     0.030 A 
ENDBRANCH  24  27
ENDBRANCH   1  23
TORSDOF 6
ENDMDL
MODEL 2
REMARK VINA RESULT:      -9.5      2.696      3.131
REMARK  6 active torsions:
REMARK  status: ('A' for Active; 'I' for Inactive)
REMARK    1  A    between atoms: C_6  and  N_7 
REMARK       I    between atoms: N_7  and  C_8 
REMARK    2  A    between atoms: C_8  and  C_9 
REMARK    3  A    between atoms: C_11  and  N_12 
REMARK    4  A    between atoms: N_12  and  N_13 
REMARK       I    between atoms: N_13  and  C_14 
REMARK    5  A    between atoms: C_14  and  C_15 
REMARK    6  A    between atoms: C_16  and  C_17 
ROOT
HETATM    1  C   UNL     1      41.528 -14.786   5.001  1.00  0.00     0.151 A 
HETATM    2  N   UNL     1      40.480 -14.460   5.825  1.00  0.00    -0.210 NA
HETATM    3  C   UNL     1      40.280 -13.162   6.072  1.00  0.00     0.220 A 
HETATM    4  N   UNL     1      41.030 -12.180   5.540  1.00  0.00    -0.228 NA
HETATM    5  C   UNL     1      42.043 -12.547   4.726  1.00  0.00     0.146 A 
HETATM    6  C   UNL     1      42.354 -13.850   4.412  1.00  0.00     0.086 A 
HETATM    7 CL   UNL     1      43.678 -14.141   3.362  1.00  0.00    -0.080 Cl
ENDROOT
BRANCH   3   8
HETATM    8  N   UNL     1      39.243 -12.820   6.950  1.00  0.00    -0.169 NA
HETATM    9  H   UNL     1      38.520 -12.300   6.449  1.00  0.00     0.156 HD
BRANCH   8  10
HETATM   10  N   UNL     1      39.694 -12.175   8.116  1.00  0.00    -0.281 N 
HETATM   11  C   UNL     1      39.425 -10.834   8.257  1.00  0.00     0.255 C 
HETATM   12  O   UNL     1      38.765 -10.183   7.455  1.00  0.00    -0.267 OA
HETATM   13  H   UNL     1      40.317 -12.718   8.710  1.00  0.00     0.184 HD
BRANCH  11  14
HETATM   14  C   UNL     1      40.033 -10.251   9.480  1.00  0.00     0.076 C 
HETATM   15  C   UNL     1      40.241 -11.027  10.556  1.00  0.00     0.017 C 
BRANCH  15  16
HETATM   16  C   UNL     1      40.816 -10.583  11.837  1.00  0.00    -0.036 A 
HETATM   17  C   UNL     1      40.129  -9.602  12.569  1.00  0.00     0.013 A 
HETATM   18  C   UNL     1      40.616  -9.150  13.801  1.00  0.00     0.024 A 
HETATM   19  C   UNL     1      41.794  -9.682  14.314  1.00  0.00     0.034 A 
HETATM   20 CL   UNL     1      42.398  -9.127  15.826  1.00  0.00    -0.084 Cl
HETATM   21  C   UNL     1      42.484 -10.665  13.611  1.00  0.00     0.024 A 
HETATM   22  C   UNL     1      41.993 -11.118  12.381  1.00  0.00     0.013 A 
ENDBRANCH  15  16
ENDBRANCH  11  14
ENDBRANCH   8  10
ENDBRANCH   3   8
BRANCH   1  23
HETATM   23  C   UNL     1      41.702 -16.273   4.809  1.00  0.00     0.276 C 
HETATM   24  N   UNL     1      42.735 -16.588   3.940  1.00  0.00    -0.322 N 
HETATM   25  H   UNL     1      43.234 -15.784   3.567  1.00  0.00     0.169 HD
HETATM   26  O   UNL     1      40.980 -17.075   5.383  1.00  0.00    -0.266 OA
BRANCH  24  27
HETATM   27  C   UNL     1      43.164 -17.862   3.519  1.00  0.00     0.035 A 
HETATM   28  C   UNL     1      43.909 -18.736   4.310  1.00  0.00     0.037 A 
HETATM   29  C   UNL     1      44.299 -20.003   3.834  1.00  0.00    -0.054 A 
HETATM   30  C   UNL     1      43.959 -20.385   2.523  1.00  0.00    -0.056 A 
HETATM   31  C   UNL     1      45.110 -20.898   4.733  1.00  0.00     0.049 C 
HETATM   32  C   UNL     1      44.362 -21.720   1.960  1.00  0.00     0.049 C 
HETATM   33  C   UNL     1      43.201 -19.508   1.737  1.00  0.00     0.009 A 
HETATM   34  C   UNL     1      42.807 -18.262   2.230  1.00  0.00     0.030 A 
ENDBRANCH  24  27
ENDBRANCH   1  23
TORSDOF 6
ENDMDL
MODEL 3
REMARK VINA RESULT:      -9.4      3.065      5.118
REMARK  6 active torsions:
REMARK  status: ('A' for Active; 'I' for Inactive)
REMARK    1  A    between atoms: C_6  and  N_7 
REMARK       I    between atoms: N_7  and  C_8 
REMARK    2  A    between atoms: C_8  and  C_9 
REMARK    3  A    between atoms: C_11  and  N_12 
REMARK    4  A    between atoms: N_12  and  N_13 
REMARK       I    between atoms: N_13  and  C_14 
REMARK    5  A    between atoms: C_14  and  C_15 
REMARK    6  A    between atoms: C_16  and  C_17 
ROOT
HETATM    1  C   UNL     1      43.037 -15.021   5.404  1.00  0.00     0.151 A 
HETATM    2  N   UNL     1      43.854 -14.034   5.895  1.00  0.00    -0.210 NA
HETATM    3  C   UNL     1      44.483 -14.279   7.048  1.00  0.00     0.220 A 
HETATM    4  N   UNL     1      44.373 -15.439   7.722  1.00  0.00    -0.228 NA
HETATM    5  C   UNL     1      43.568 -16.387   7.195  1.00  0.00     0.146 A 
HETATM    6  C   UNL     1      42.858 -16.241   6.025  1.00  0.00     0.086 A 
HETATM    7 CL   UNL     1      41.878 -17.546   5.500  1.00  0.00    -0.080 Cl
ENDROOT
BRANCH   3   8
HETATM    8  N   UNL     1      45.282 -13.260   7.583  1.00  0.00    -0.169 NA
HETATM    9  H   UNL     1      46.263 -13.544   7.569  1.00  0.00     0.156 HD
BRANCH   8  10
HETATM   10  N   UNL     1      44.842 -12.816   8.844  1.00  0.00    -0.281 N 
HETATM   11  C   UNL     1      45.412 -11.677   9.361  1.00  0.00     0.255 C 
HETATM   12  O   UNL     1      46.235 -10.994   8.762  1.00  0.00    -0.267 OA
HETATM   13  H   UNL     1      44.233 -13.454   9.351  1.00  0.00     0.184 HD
BRANCH  11  14
HETATM   14  C   UNL     1      44.933 -11.366  10.733  1.00  0.00     0.076 C 
HETATM   15  C   UNL     1      43.679 -10.925  10.917  1.00  0.00     0.017 C 
BRANCH  15  16
HETATM   16  C   UNL     1      43.077 -10.563  12.211  1.00  0.00    -0.036 A 
HETATM   17  C   UNL     1      43.711  -9.579  12.987  1.00  0.00     0.013 A 
HETATM   18  C   UNL     1      43.180  -9.180  14.218  1.00  0.00     0.024 A 
HETATM   19  C   UNL     1      42.003  -9.760  14.682  1.00  0.00     0.034 A 
HETATM   20 CL   UNL     1      41.349  -9.275  16.198  1.00  0.00    -0.084 Cl
HETATM   21  C   UNL     1      41.351 -10.727  13.923  1.00  0.00     0.024 A 
HETATM   22  C   UNL     1      41.883 -11.122  12.690  1.00  0.00     0.013 A 
ENDBRANCH  15  16
ENDBRANCH  11  14
ENDBRANCH   8  10
ENDBRANCH   3   8
BRANCH   1  23
HETATM   23  C   UNL     1      42.339 -14.642   4.121  1.00  0.00     0.276 C 
HETATM   24  N   UNL     1      41.002 -14.325   4.307  1.00  0.00    -0.322 N 
HETATM   25  H   UNL     1      40.685 -14.379   5.272  1.00  0.00     0.169 HD
HETATM   26  O   UNL     1      42.935 -14.632   3.054  1.00  0.00    -0.266 OA
BRANCH  24  27
HETATM   27  C   UNL     1      40.052 -13.949   3.339  1.00  0.00     0.035 A 
HETATM   28  C   UNL     1      39.566 -12.650   3.184  1.00  0.00     0.037 A 
HETATM   29  C   UNL     1      38.621 -12.336   2.188  1.00  0.00    -0.054 A 
HETATM   30  C   UNL     1      38.131 -13.356   1.351  1.00  0.00    -0.056 A 
HETATM   31  C   UNL     1      38.129 -10.917   2.076  1.00  0.00     0.049 C 
HETATM   32  C   UNL     1      37.112 -13.077   0.281  1.00  0.00     0.049 C 
HETATM   33  C   UNL     1      38.630 -14.655   1.503  1.00  0.00     0.009 A 
HETATM   34  C   UNL     1      39.581 -14.948   2.485  1.00  0.00     0.030 A 
ENDBRANCH  24  27
ENDBRANCH   1  23
TORSDOF 6
ENDMDL
MODEL 4
REMARK VINA RESULT:      -9.4      2.974      4.222
REMARK  6 active torsions:
REMARK  status: ('A' for Active; 'I' for Inactive)
REMARK    1  A    between atoms: C_6  and  N_7 
REMARK       I    between atoms: N_7  and  C_8 
REMARK    2  A    between atoms: C_8  and  C_9 
REMARK    3  A    between atoms: C_11  and  N_12 
REMARK    4  A    between atoms: N_12  and  N_13 
REMARK       I    between atoms: N_13  and  C_14 
REMARK    5  A    between atoms: C_14  and  C_15 
REMARK    6  A    between atoms: C_16  and  C_17 
ROOT
HETATM    1  C   UNL     1      42.833 -14.908   5.594  1.00  0.00     0.151 A 
HETATM    2  N   UNL     1      43.749 -13.971   5.999  1.00  0.00    -0.210 NA
HETATM    3  C   UNL     1      44.451 -14.240   7.103  1.00  0.00     0.220 A 
HETATM    4  N   UNL     1      44.320 -15.379   7.808  1.00  0.00    -0.228 NA
HETATM    5  C   UNL     1      43.413 -16.278   7.367  1.00  0.00     0.146 A 
HETATM    6  C   UNL     1      42.623 -16.103   6.254  1.00  0.00     0.086 A 
HETATM    7 CL   UNL     1      41.520 -17.347   5.835  1.00  0.00    -0.080 Cl
ENDROOT
BRANCH   3   8
HETATM    8  N   UNL     1      45.356 -13.269   7.553  1.00  0.00    -0.169 NA
HETATM    9  H   UNL     1      46.289 -13.677   7.638  1.00  0.00     0.156 HD
BRANCH   8  10
HETATM   10  N   UNL     1      44.923 -12.603   8.714  1.00  0.00    -0.281 N 
HETATM   11  C   UNL     1      45.634 -11.502   9.129  1.00  0.00     0.255 C 
HETATM   12  O   UNL     1      46.584 -11.032   8.514  1.00  0.00    -0.267 OA
HETATM   13  H   UNL     1      44.196 -13.073   9.249  1.00  0.00     0.184 HD
BRANCH  11  14
HETATM   14  C   UNL     1      45.135 -10.947  10.413  1.00  0.00     0.076 C 
HETATM   15  C   UNL     1      43.878 -11.204  10.807  1.00  0.00     0.017 C 
BRANCH  15  16
HETATM   16  C   UNL     1      43.246 -10.708  12.042  1.00  0.00    -0.036 A 
HETATM   17  C   UNL     1      42.031 -11.283  12.445  1.00  0.00     0.013 A 
HETATM   18  C   UNL     1      41.390 -10.866  13.616  1.00  0.00     0.024 A 
HETATM   19  C   UNL     1      41.964  -9.870  14.399  1.00  0.00     0.034 A 
HETATM   20 CL   UNL     1      41.177  -9.351  15.838  1.00  0.00    -0.084 Cl
HETATM   21  C   UNL     1      43.174  -9.294  14.025  1.00  0.00     0.024 A 
HETATM   22  C   UNL     1      43.816  -9.716  12.855  1.00  0.00     0.013 A 
ENDBRANCH  15  16
ENDBRANCH  11  14
ENDBRANCH   8  10
ENDBRANCH   3   8
BRANCH   1  23
HETATM   23  C   UNL     1      42.060 -14.503   4.363  1.00  0.00     0.276 C 
HETATM   24  N   UNL     1      42.634 -14.966   3.189  1.00  0.00    -0.322 N 
HETATM   25  H   UNL     1      43.477 -15.518   3.320  1.00  0.00     0.169 HD
HETATM   26  O   UNL     1      41.041 -13.834   4.446  1.00  0.00    -0.266 OA
BRANCH  24  27
HETATM   27  C   UNL     1      42.198 -14.763   1.866  1.00  0.00     0.035 A 
HETATM   28  C   UNL     1      42.133 -13.513   1.247  1.00  0.00     0.037 A 
HETATM   29  C   UNL     1      41.696 -13.377  -0.085  1.00  0.00    -0.054 A 
HETATM   30  C   UNL     1      41.286 -14.519  -0.799  1.00  0.00    -0.056 A 
HETATM   31  C   UNL     1      41.640 -12.001  -0.693  1.00  0.00     0.049 C 
HETATM   32  C   UNL     1      40.799 -14.428  -2.219  1.00  0.00     0.049 C 
HETATM   33  C   UNL     1      41.365 -15.772  -0.178  1.00  0.00     0.009 A 
HETATM   34  C   UNL     1      41.817 -15.892   1.139  1.00  0.00     0.030 A 
ENDBRANCH  24  27
ENDBRANCH   1  23
TORSDOF 6
ENDMDL
MODEL 5
REMARK VINA RESULT:      -9.2      7.106     11.593
REMARK  6 active torsions:
REMARK  status: ('A' for Active; 'I' for Inactive)
REMARK    1  A    between atoms: C_6  and  N_7 
REMARK       I    between atoms: N_7  and  C_8 
REMARK    2  A    between atoms: C_8  and  C_9 
REMARK    3  A    between atoms: C_11  and  N_12 
REMARK    4  A    between atoms: N_12  and  N_13 
REMARK       I    between atoms: N_13  and  C_14 
REMARK    5  A    between atoms: C_14  and  C_15 
REMARK    6  A    between atoms: C_16  and  C_17 
ROOT
HETATM    1  C   UNL     1      42.019 -15.212   2.162  1.00  0.00     0.151 A 
HETATM    2  N   UNL     1      42.060 -15.262   0.792  1.00  0.00    -0.210 NA
HETATM    3  C   UNL     1      41.956 -14.103   0.135  1.00  0.00     0.220 A 
HETATM    4  N   UNL     1      41.842 -12.910   0.747  1.00  0.00    -0.228 NA
HETATM    5  C   UNL     1      41.818 -12.908   2.098  1.00  0.00     0.146 A 
HETATM    6  C   UNL     1      41.900 -14.038   2.879  1.00  0.00     0.086 A 
HETATM    7 CL   UNL     1      41.851 -13.855   4.583  1.00  0.00    -0.080 Cl
ENDROOT
BRANCH   3   8
HETATM    8  N   UNL     1      41.948 -14.146  -1.266  1.00  0.00    -0.169 NA
HETATM    9  H   UNL     1      42.556 -13.415  -1.639  1.00  0.00     0.156 HD
BRANCH   8  10
HETATM   10  N   UNL     1      40.652 -14.135  -1.813  1.00  0.00    -0.281 N 
HETATM   11  C   UNL     1      40.440 -14.825  -2.984  1.00  0.00     0.255 C 
HETATM   12  O   UNL     1      41.299 -15.495  -3.545  1.00  0.00    -0.267 OA
HETATM   13  H   UNL     1      39.992 -13.495  -1.377  1.00  0.00     0.184 HD
BRANCH  11  14
HETATM   14  C   UNL     1      39.060 -14.659  -3.507  1.00  0.00     0.076 C 
HETATM   15  C   UNL     1      38.416 -13.495  -3.330  1.00  0.00     0.017 C 
BRANCH  15  16
HETATM   16  C   UNL     1      37.044 -13.196  -3.777  1.00  0.00    -0.036 A 
HETATM   17  C   UNL     1      36.497 -11.946  -3.451  1.00  0.00     0.013 A 
HETATM   18  C   UNL     1      35.205 -11.596  -3.860  1.00  0.00     0.024 A 
HETATM   19  C   UNL     1      34.451 -12.496  -4.606  1.00  0.00     0.034 A 
HETATM   20 CL   UNL     1      32.861 -12.072  -5.108  1.00  0.00    -0.084 Cl
HETATM   21  C   UNL     1      34.979 -13.736  -4.951  1.00  0.00     0.024 A 
HETATM   22  C   UNL     1      36.273 -14.082  -4.544  1.00  0.00     0.013 A 
ENDBRANCH  15  16
ENDBRANCH  11  14
ENDBRANCH   8  10
ENDBRANCH   3   8
BRANCH   1  23
HETATM   23  C   UNL     1      42.104 -16.569   2.816  1.00  0.00     0.276 C 
HETATM   24  N   UNL     1      43.369 -17.130   2.734  1.00  0.00    -0.322 N 
HETATM   25  H   UNL     1      44.058 -16.552   2.262  1.00  0.00     0.169 HD
HETATM   26  O   UNL     1      41.128 -17.078   3.349  1.00  0.00    -0.266 OA
BRANCH  24  27
HETATM   27  C   UNL     1      43.801 -18.382   3.214  1.00  0.00     0.035 A 
HETATM   28  C   UNL     1      43.912 -19.526   2.423  1.00  0.00     0.037 A 
HETATM   29  C   UNL     1      44.360 -20.748   2.961  1.00  0.00    -0.054 A 
HETATM   30  C   UNL     1      44.672 -20.828   4.331  1.00  0.00    -0.056 A 
HETATM   31  C   UNL     1      44.450 -21.950   2.058  1.00  0.00     0.049 C 
HETATM   32  C   UNL     1      45.142 -22.111   4.960  1.00  0.00     0.049 C 
HETATM   33  C   UNL     1      44.571 -19.674   5.118  1.00  0.00     0.009 A 
HETATM   34  C   UNL     1      44.141 -18.465   4.565  1.00  0.00     0.030 A 
ENDBRANCH  24  27
ENDBRANCH   1  23
TORSDOF 6
ENDMDL
MODEL 6
REMARK VINA RESULT:      -9.2      3.393      4.494
REMARK  6 active torsions:
REMARK  status: ('A' for Active; 'I' for Inactive)
REMARK    1  A    between atoms: C_6  and  N_7 
REMARK       I    between atoms: N_7  and  C_8 
REMARK    2  A    between atoms: C_8  and  C_9 
REMARK    3  A    between atoms: C_11  and  N_12 
REMARK    4  A    between atoms: N_12  and  N_13 
REMARK       I    between atoms: N_13  and  C_14 
REMARK    5  A    between atoms: C_14  and  C_15 
REMARK    6  A    between atoms: C_16  and  C_17 
ROOT
HETATM    1  C   UNL     1      41.716 -15.003   1.804  1.00  0.00     0.151 A 
HETATM    2  N   UNL     1      41.791 -13.878   2.587  1.00  0.00    -0.210 NA
HETATM    3  C   UNL     1      41.687 -12.697   1.970  1.00  0.00     0.220 A 
HETATM    4  N   UNL     1      41.492 -12.566   0.645  1.00  0.00    -0.228 NA
HETATM    5  C   UNL     1      41.413 -13.700  -0.084  1.00  0.00     0.146 A 
HETATM    6  C   UNL     1      41.522 -14.969   0.438  1.00  0.00     0.086 A 
HETATM    7 CL   UNL     1      41.401 -16.303  -0.632  1.00  0.00    -0.080 Cl
ENDROOT
BRANCH   3   8
HETATM    8  N   UNL     1      41.810 -11.541   2.752  1.00  0.00    -0.169 NA
HETATM    9  H   UNL     1      42.535 -10.935   2.364  1.00  0.00     0.156 HD
BRANCH   8  10
HETATM   10  N   UNL     1      41.977 -11.814   4.122  1.00  0.00    -0.281 N 
HETATM   11  C   UNL     1      41.060 -11.289   5.001  1.00  0.00     0.255 C 
HETATM   12  O   UNL     1      40.074 -10.648   4.656  1.00  0.00    -0.267 OA
HETATM   13  H   UNL     1      42.852 -12.264   4.380  1.00  0.00     0.184 HD
BRANCH  11  14
HETATM   14  C   UNL     1      41.398 -11.568   6.420  1.00  0.00     0.076 C 
HETATM   15  C   UNL     1      41.651 -10.550   7.258  1.00  0.00     0.017 C 
BRANCH  15  16
HETATM   16  C   UNL     1      42.015 -10.678   8.679  1.00  0.00    -0.036 A 
HETATM   17  C   UNL     1      41.014 -10.478   9.643  1.00  0.00     0.013 A 
HETATM   18  C   UNL     1      41.294 -10.601  11.008  1.00  0.00     0.024 A 
HETATM   19  C   UNL     1      42.580 -10.932  11.422  1.00  0.00     0.034 A 
HETATM   20 CL   UNL     1      42.930 -11.079  13.100  1.00  0.00    -0.084 Cl
HETATM   21  C   UNL     1      43.585 -11.146  10.483  1.00  0.00     0.024 A 
HETATM   22  C   UNL     1      43.302 -11.027   9.117  1.00  0.00     0.013 A 
ENDBRANCH  15  16
ENDBRANCH  11  14
ENDBRANCH   8  10
ENDBRANCH   3   8
BRANCH   1  23
HETATM   23  C   UNL     1      41.882 -16.287   2.580  1.00  0.00     0.276 C 
HETATM   24  N   UNL     1      43.098 -16.908   2.341  1.00  0.00    -0.322 N 
HETATM   25  H   UNL     1      43.707 -16.412   1.696  1.00  0.00     0.169 HD
HETATM   26  O   UNL     1      41.004 -16.695   3.326  1.00  0.00    -0.266 OA
BRANCH  24  27
HETATM   27  C   UNL     1      43.578 -18.120   2.874  1.00  0.00     0.035 A 
HETATM   28  C   UNL     1      43.649 -19.315   2.156  1.00  0.00     0.037 A 
HETATM   29  C   UNL     1      44.149 -20.493   2.744  1.00  0.00    -0.054 A 
HETATM   30  C   UNL     1      44.555 -20.477   4.091  1.00  0.00    -0.056 A 
HETATM   31  C   UNL     1      44.193 -21.753   1.920  1.00  0.00     0.049 C 
HETATM   32  C   UNL     1      45.083 -21.710   4.771  1.00  0.00     0.049 C 
HETATM   33  C   UNL     1      44.493 -19.273   4.804  1.00  0.00     0.009 A 
HETATM   34  C   UNL     1      44.011 -18.107   4.201  1.00  0.00     0.030 A 
ENDBRANCH  24  27
ENDBRANCH   1  23
TORSDOF 6
ENDMDL
MODEL 7
REMARK VINA RESULT:      -9.2      3.083     10.924
REMARK  6 active torsions:
REMARK  status: ('A' for Active; 'I' for Inactive)
REMARK    1  A    between atoms: C_6  and  N_7 
REMARK       I    between atoms: N_7  and  C_8 
REMARK    2  A    between atoms: C_8  and  C_9 
REMARK    3  A    between atoms: C_11  and  N_12 
REMARK    4  A    between atoms: N_12  and  N_13 
REMARK       I    between atoms: N_13  and  C_14 
REMARK    5  A    between atoms: C_14  and  C_15 
REMARK    6  A    between atoms: C_16  and  C_17 
ROOT
HETATM    1  C   UNL     1      41.267 -11.639   6.468  1.00  0.00     0.151 A 
HETATM    2  N   UNL     1      42.129 -11.780   5.410  1.00  0.00    -0.210 NA
HETATM    3  C   UNL     1      41.769 -12.624   4.438  1.00  0.00     0.220 A 
HETATM    4  N   UNL     1      40.611 -13.308   4.439  1.00  0.00    -0.228 NA
HETATM    5  C   UNL     1      39.788 -13.129   5.495  1.00  0.00     0.146 A 
HETATM    6  C   UNL     1      40.059 -12.301   6.560  1.00  0.00     0.086 A 
HETATM    7 CL   UNL     1      38.903 -12.193   7.822  1.00  0.00    -0.080 Cl
ENDROOT
BRANCH   3   8
HETATM    8  N   UNL     1      42.664 -12.812   3.376  1.00  0.00    -0.169 NA
HETATM    9  H   UNL     1      42.203 -12.594   2.491  1.00  0.00     0.156 HD
BRANCH   8  10
HETATM   10  N   UNL     1      43.284 -14.074   3.392  1.00  0.00    -0.281 N 
HETATM   11  C   UNL     1      42.887 -15.001   2.456  1.00  0.00     0.255 C 
HETATM   12  O   UNL     1      42.067 -14.770   1.574  1.00  0.00    -0.267 OA
HETATM   13  H   UNL     1      43.885 -14.263   4.190  1.00  0.00     0.184 HD
BRANCH  11  14
HETATM   14  C   UNL     1      43.546 -16.319   2.636  1.00  0.00     0.076 C 
HETATM   15  C   UNL     1      43.152 -17.132   3.629  1.00  0.00     0.017 C 
BRANCH  15  16
HETATM   16  C   UNL     1      43.725 -18.453   3.936  1.00  0.00    -0.036 A 
HETATM   17  C   UNL     1      43.868 -18.819   5.284  1.00  0.00     0.013 A 
HETATM   18  C   UNL     1      44.391 -20.067   5.640  1.00  0.00     0.024 A 
HETATM   19  C   UNL     1      44.770 -20.965   4.647  1.00  0.00     0.034 A 
HETATM   20 CL   UNL     1      45.417 -22.498   5.080  1.00  0.00    -0.084 Cl
HETATM   21  C   UNL     1      44.625 -20.628   3.305  1.00  0.00     0.024 A 
HETATM   22  C   UNL     1      44.098 -19.380   2.951  1.00  0.00     0.013 A 
ENDBRANCH  15  16
ENDBRANCH  11  14
ENDBRANCH   8  10
ENDBRANCH   3   8
BRANCH   1  23
HETATM   23  C   UNL     1      41.772 -10.698   7.534  1.00  0.00     0.276 C 
HETATM   24  N   UNL     1      41.815 -11.280   8.791  1.00  0.00    -0.322 N 
HETATM   25  H   UNL     1      41.518 -12.251   8.818  1.00  0.00     0.169 HD
HETATM   26  O   UNL     1      42.095  -9.550   7.265  1.00  0.00    -0.266 OA
BRANCH  24  27
HETATM   27  C   UNL     1      42.212 -10.696  10.010  1.00  0.00     0.035 A 
HETATM   28  C   UNL     1      41.479  -9.718  10.683  1.00  0.00     0.037 A 
HETATM   29  C   UNL     1      41.926  -9.180  11.905  1.00  0.00    -0.054 A 
HETATM   30  C   UNL     1      43.152  -9.611  12.445  1.00  0.00    -0.056 A 
HETATM   31  C   UNL     1      41.093  -8.122  12.580  1.00  0.00     0.049 C 
HETATM   32  C   UNL     1      43.682  -9.059  13.740  1.00  0.00     0.049 C 
HETATM   33  C   UNL     1      43.879 -10.601  11.772  1.00  0.00     0.009 A 
HETATM   34  C   UNL     1      43.413 -11.138  10.568  1.00  0.00     0.030 A 
ENDBRANCH  24  27
ENDBRANCH   1  23
TORSDOF 6
ENDMDL
MODEL 8
REMARK VINA RESULT:      -9.0      2.981      3.872
REMARK  6 active torsions:
REMARK  status: ('A' for Active; 'I' for Inactive)
REMARK    1  A    between atoms: C_6  and  N_7 
REMARK       I    between atoms: N_7  and  C_8 
REMARK    2  A    between atoms: C_8  and  C_9 
REMARK    3  A    between atoms: C_11  and  N_12 
REMARK    4  A    between atoms: N_12  and  N_13 
REMARK       I    between atoms: N_13  and  C_14 
REMARK    5  A    between atoms: C_14  and  C_15 
REMARK    6  A    between atoms: C_16  and  C_17 
ROOT
HETATM    1  C   UNL     1      41.327 -13.613   4.228  1.00  0.00     0.151 A 
HETATM    2  N   UNL     1      40.512 -13.717   5.327  1.00  0.00    -0.210 NA
HETATM    3  C   UNL     1      39.522 -12.826   5.439  1.00  0.00     0.220 A 
HETATM    4  N   UNL     1      39.279 -11.867   4.527  1.00  0.00    -0.228 NA
HETATM    5  C   UNL     1      40.099 -11.811   3.455  1.00  0.00     0.146 A 
HETATM    6  C   UNL     1      41.159 -12.662   3.242  1.00  0.00     0.086 A 
HETATM    7 CL   UNL     1      42.103 -12.448   1.827  1.00  0.00    -0.080 Cl
ENDROOT
BRANCH   3   8
HETATM    8  N   UNL     1      38.713 -12.892   6.582  1.00  0.00    -0.169 NA
HETATM    9  H   UNL     1      37.870 -12.333   6.443  1.00  0.00     0.156 HD
BRANCH   8  10
HETATM   10  N   UNL     1      39.404 -12.585   7.768  1.00  0.00    -0.281 N 
HETATM   11  C   UNL     1      39.389 -11.281   8.205  1.00  0.00     0.255 C 
HETATM   12  O   UNL     1      38.760 -10.385   7.653  1.00  0.00    -0.267 OA
HETATM   13  H   UNL     1      39.991 -13.326   8.144  1.00  0.00     0.184 HD
BRANCH  11  14
HETATM   14  C   UNL     1      40.229 -11.069   9.411  1.00  0.00     0.076 C 
HETATM   15  C   UNL     1      39.690 -10.518  10.510  1.00  0.00     0.017 C 
BRANCH  15  16
HETATM   16  C   UNL     1      40.403 -10.232  11.766  1.00  0.00    -0.036 A 
HETATM   17  C   UNL     1      39.995  -9.125  12.526  1.00  0.00     0.013 A 
HETATM   18  C   UNL     1      40.623  -8.811  13.736  1.00  0.00     0.024 A 
HETATM   19  C   UNL     1      41.664  -9.608  14.201  1.00  0.00     0.034 A 
HETATM   20 CL   UNL     1      42.441  -9.224  15.686  1.00  0.00    -0.084 Cl
HETATM   21  C   UNL     1      42.076 -10.718  13.470  1.00  0.00     0.024 A 
HETATM   22  C   UNL     1      41.444 -11.033  12.261  1.00  0.00     0.013 A 
ENDBRANCH  15  16
ENDBRANCH  11  14
ENDBRANCH   8  10
ENDBRANCH   3   8
BRANCH   1  23
HETATM   23  C   UNL     1      42.438 -14.634   4.205  1.00  0.00     0.276 C 
HETATM   24  N   UNL     1      41.972 -15.940   4.202  1.00  0.00    -0.322 N 
HETATM   25  H   UNL     1      40.960 -16.027   4.202  1.00  0.00     0.169 HD
HETATM   26  O   UNL     1      43.612 -14.293   4.192  1.00  0.00    -0.266 OA
BRANCH  24  27
HETATM   27  C   UNL     1      42.720 -17.133   4.201  1.00  0.00     0.035 A 
HETATM   28  C   UNL     1      42.793 -18.009   3.118  1.00  0.00     0.037 A 
HETATM   29  C   UNL     1      43.568 -19.183   3.177  1.00  0.00    -0.054 A 
HETATM   30  C   UNL     1      44.259 -19.499   4.362  1.00  0.00    -0.056 A 
HETATM   31  C   UNL     1      43.600 -20.093   1.977  1.00  0.00     0.049 C 
HETATM   32  C   UNL     1      45.089 -20.747   4.483  1.00  0.00     0.049 C 
HETATM   33  C   UNL     1      44.192 -18.610   5.442  1.00  0.00     0.009 A 
HETATM   34  C   UNL     1      43.433 -17.440   5.363  1.00  0.00     0.030 A 
ENDBRANCH  24  27
ENDBRANCH   1  23
TORSDOF 6
ENDMDL
MODEL 9
REMARK VINA RESULT:      -8.9      5.780      9.717
REMARK  6 active torsions:
REMARK  status: ('A' for Active; 'I' for Inactive)
REMARK    1  A    between atoms: C_6  and  N_7 
REMARK       I    between atoms: N_7  and  C_8 
REMARK    2  A    between atoms: C_8  and  C_9 
REMARK    3  A    between atoms: C_11  and  N_12 
REMARK    4  A    between atoms: N_12  and  N_13 
REMARK       I    between atoms: N_13  and  C_14 
REMARK    5  A    between atoms: C_14  and  C_15 
REMARK    6  A    between atoms: C_16  and  C_17 
ROOT
HETATM    1  C   UNL     1      39.876 -12.031   3.681  1.00  0.00     0.151 A 
HETATM    2  N   UNL     1      39.992 -13.143   4.477  1.00  0.00    -0.210 NA
HETATM    3  C   UNL     1      39.677 -13.005   5.768  1.00  0.00     0.220 A 
HETATM    4  N   UNL     1      39.237 -11.852   6.307  1.00  0.00    -0.228 NA
HETATM    5  C   UNL     1      39.128 -10.787   5.484  1.00  0.00     0.146 A 
HETATM    6  C   UNL     1      39.438 -10.806   4.143  1.00  0.00     0.086 A 
HETATM    7 CL   UNL     1      39.244  -9.360   3.242  1.00  0.00    -0.080 Cl
ENDROOT
BRANCH   3   8
HETATM    8  N   UNL     1      39.837 -14.121   6.600  1.00  0.00    -0.169 NA
HETATM    9  H   UNL     1      40.493 -13.902   7.352  1.00  0.00     0.156 HD
BRANCH   8  10
HETATM   10  N   UNL     1      40.159 -15.295   5.896  1.00  0.00    -0.281 N 
HETATM   11  C   UNL     1      41.461 -15.734   5.933  1.00  0.00     0.255 C 
HETATM   12  O   UNL     1      42.343 -15.195   6.592  1.00  0.00    -0.267 OA
HETATM   13  H   UNL     1      39.430 -15.660   5.287  1.00  0.00     0.184 HD
BRANCH  11  14
HETATM   14  C   UNL     1      41.691 -16.926   5.077  1.00  0.00     0.076 C 
HETATM   15  C   UNL     1      42.939 -17.388   4.900  1.00  0.00     0.017 C 
BRANCH  15  16
HETATM   16  C   UNL     1      43.317 -18.544   4.069  1.00  0.00    -0.036 A 
HETATM   17  C   UNL     1      42.764 -18.647   2.783  1.00  0.00     0.013 A 
HETATM   18  C   UNL     1      43.096 -19.712   1.939  1.00  0.00     0.024 A 
HETATM   19  C   UNL     1      43.992 -20.684   2.375  1.00  0.00     0.034 A 
HETATM   20 CL   UNL     1      44.400 -21.998   1.342  1.00  0.00    -0.084 Cl
HETATM   21  C   UNL     1      44.561 -20.595   3.641  1.00  0.00     0.024 A 
HETATM   22  C   UNL     1      44.230 -19.525   4.482  1.00  0.00     0.013 A 
ENDBRANCH  15  16
ENDBRANCH  11  14
ENDBRANCH   8  10
ENDBRANCH   3   8
BRANCH   1  23
HETATM   23  C   UNL     1      40.288 -12.270   2.250  1.00  0.00     0.276 C 
HETATM   24  N   UNL     1      39.631 -13.345   1.671  1.00  0.00    -0.322 N 
HETATM   25  H   UNL     1      38.961 -13.808   2.279  1.00  0.00     0.169 HD
HETATM   26  O   UNL     1      41.122 -11.562   1.703  1.00  0.00    -0.266 OA
BRANCH  24  27
HETATM   27  C   UNL     1      39.780 -13.861   0.369  1.00  0.00     0.035 A 
HETATM   28  C   UNL     1      38.951 -13.529  -0.703  1.00  0.00     0.037 A 
HETATM   29  C   UNL     1      39.159 -14.073  -1.985  1.00  0.00    -0.054 A 
HETATM   30  C   UNL     1      40.204 -14.994  -2.186  1.00  0.00    -0.056 A 
HETATM   31  C   UNL     1      38.224 -13.682  -3.100  1.00  0.00     0.049 C 
HETATM   32  C   UNL     1      40.461 -15.614  -3.531  1.00  0.00     0.049 C 
HETATM   33  C   UNL     1      41.041 -15.315  -1.110  1.00  0.00     0.009 A 
HETATM   34  C   UNL     1      40.832 -14.754   0.153  1.00  0.00     0.030 A 
ENDBRANCH  24  27
ENDBRANCH   1  23
TORSDOF 6
ENDMDL
MODEL 10
REMARK VINA RESULT:      -8.9      2.583      3.409
REMARK  6 active torsions:
REMARK  status: ('A' for Active; 'I' for Inactive)
REMARK    1  A    between atoms: C_6  and  N_7 
REMARK       I    between atoms: N_7  and  C_8 
REMARK    2  A    between atoms: C_8  and  C_9 
REMARK    3  A    between atoms: C_11  and  N_12 
REMARK    4  A    between atoms: N_12  and  N_13 
REMARK       I    between atoms: N_13  and  C_14 
REMARK    5  A    between atoms: C_14  and  C_15 
REMARK    6  A    between atoms: C_16  and  C_17 
ROOT
HETATM    1  C   UNL     1      40.724 -14.436   3.917  1.00  0.00     0.151 A 
HETATM    2  N   UNL     1      41.223 -13.375   4.629  1.00  0.00    -0.210 NA
HETATM    3  C   UNL     1      40.840 -12.152   4.251  1.00  0.00     0.220 A 
HETATM    4  N   UNL     1      39.984 -11.921   3.238  1.00  0.00    -0.228 NA
HETATM    5  C   UNL     1      39.510 -12.997   2.572  1.00  0.00     0.146 A 
HETATM    6  C   UNL     1      39.845 -14.300   2.861  1.00  0.00     0.086 A 
HETATM    7 CL   UNL     1      39.152 -15.548   1.911  1.00  0.00    -0.080 Cl
ENDROOT
BRANCH   3   8
HETATM    8  N   UNL     1      41.380 -11.058   4.940  1.00  0.00    -0.169 NA
HETATM    9  H   UNL     1      42.327 -10.870   4.606  1.00  0.00     0.156 HD
BRANCH   8  10
HETATM   10  N   UNL     1      41.292 -11.186   6.338  1.00  0.00    -0.281 N 
HETATM   11  C   UNL     1      41.622 -10.096   7.108  1.00  0.00     0.255 C 
HETATM   12  O   UNL     1      41.930  -9.003   6.646  1.00  0.00    -0.267 OA
HETATM   13  H   UNL     1      41.128 -12.127   6.688  1.00  0.00     0.184 HD
BRANCH  11  14
HETATM   14  C   UNL     1      41.578 -10.385   8.564  1.00  0.00     0.076 C 
HETATM   15  C   UNL     1      41.915  -9.429   9.444  1.00  0.00     0.017 C 
BRANCH  15  16
HETATM   16  C   UNL     1      41.936  -9.579  10.909  1.00  0.00    -0.036 A 
HETATM   17  C   UNL     1      43.177  -9.542  11.564  1.00  0.00     0.013 A 
HETATM   18  C   UNL     1      43.262  -9.662  12.955  1.00  0.00     0.024 A 
HETATM   19  C   UNL     1      42.101  -9.816  13.706  1.00  0.00     0.034 A 
HETATM   20 CL   UNL     1      42.200  -9.969  15.416  1.00  0.00    -0.084 Cl
HETATM   21  C   UNL     1      40.859  -9.843  13.079  1.00  0.00     0.024 A 
HETATM   22  C   UNL     1      40.776  -9.718  11.687  1.00  0.00     0.013 A 
ENDBRANCH  15  16
ENDBRANCH  11  14
ENDBRANCH   8  10
ENDBRANCH   3   8
BRANCH   1  23
HETATM   23  C   UNL     1      41.240 -15.773   4.389  1.00  0.00     0.276 C 
HETATM   24  N   UNL     1      42.267 -16.265   3.598  1.00  0.00    -0.322 N 
HETATM   25  H   UNL     1      42.535 -15.659   2.828  1.00  0.00     0.169 HD
HETATM   26  O   UNL     1      40.767 -16.325   5.372  1.00  0.00    -0.266 OA
BRANCH  24  27
HETATM   27  C   UNL     1      42.965 -17.481   3.732  1.00  0.00     0.035 A 
HETATM   28  C   UNL     1      42.959 -18.495   2.773  1.00  0.00     0.037 A 
HETATM   29  C   UNL     1      43.687 -19.686   2.962  1.00  0.00    -0.054 A 
HETATM   30  C   UNL     1      44.409 -19.874   4.155  1.00  0.00    -0.056 A 
HETATM   31  C   UNL     1      43.634 -20.746   1.893  1.00  0.00     0.049 C 
HETATM   32  C   UNL     1      45.192 -21.132   4.413  1.00  0.00     0.049 C 
HETATM   33  C   UNL     1      44.422 -18.849   5.109  1.00  0.00     0.009 A 
HETATM   34  C   UNL     1      43.708 -17.666   4.899  1.00  0.00     0.030 A 
ENDBRANCH  24  27
ENDBRANCH   1  23
TORSDOF 6
ENDMDL
