MODEL 1
REMARK VINA RESULT:      -8.1      0.000      0.000
REMARK  6 active torsions:
REMARK  status: ('A' for Active; 'I' for Inactive)
REMARK    1  A    between atoms: C_2  and  N_3 
REMARK    2  A    between atoms: C_2  and  C_25 
REMARK    3  A    between atoms: C_7  and  N_8 
REMARK       I    between atoms: N_8  and  C_9 
REMARK       I    between atoms: C_9  and  N_10 
REMARK    4  A    between atoms: N_10  and  C_11 
REMARK    5  A    between atoms: C_11  and  C_12 
REMARK    6  A    between atoms: C_20  and  O_21 
ROOT
HETATM    1  N   UNL     1      42.817 -15.008   5.537  1.00  0.00    -0.293 N 
HETATM    2  C   UNL     1      41.974 -15.862   6.290  1.00  0.00     0.322 C 
HETATM    3  N   UNL     1      42.617 -16.541   7.276  1.00  0.00    -0.337 N 
HETATM    4  O   UNL     1      40.773 -15.943   6.111  1.00  0.00    -0.247 OA
HETATM    5  H   UNL     1      43.754 -14.854   5.875  1.00  0.00     0.172 HD
HETATM    6  H   UNL     1      41.975 -17.172   7.741  1.00  0.00     0.164 HD
ENDROOT
BRANCH   3   7
HETATM    7  C   UNL     1      44.000 -16.953   7.271  1.00  0.00     0.181 C 
BRANCH   7   8
HETATM    8  C   UNL     1      44.170 -18.172   6.441  1.00  0.00     0.028 A 
HETATM    9  N   UNL     1      44.155 -19.446   6.964  1.00  0.00    -0.357 N 
HETATM   10  H   UNL     1      44.035 -19.674   7.942  1.00  0.00     0.166 HD
HETATM   11  C   UNL     1      44.321 -20.377   5.966  1.00  0.00     0.043 A 
HETATM   12  C   UNL     1      44.402 -19.683   4.762  1.00  0.00    -0.005 A 
HETATM   13  C   UNL     1      44.387 -21.772   6.034  1.00  0.00     0.033 A 
HETATM   14  C   UNL     1      44.308 -18.299   5.072  1.00  0.00     0.040 A 
HETATM   15  C   UNL     1      44.534 -20.412   3.567  1.00  0.00     0.050 A 
HETATM   16  C   UNL     1      44.570 -21.813   3.605  1.00  0.00     0.069 A 
HETATM   17  C   UNL     1      44.513 -22.477   4.830  1.00  0.00     0.039 A 
BRANCH  16  18
HETATM   18  O   UNL     1      44.675 -22.410   2.378  1.00  0.00    -0.356 OA
HETATM   19  C   UNL     1      43.897 -21.848   1.328  1.00  0.00     0.210 C 
ENDBRANCH  16  18
ENDBRANCH   7   8
ENDBRANCH   3   7
BRANCH   1  20
HETATM   20  C   UNL     1      42.405 -14.312   4.405  1.00  0.00     0.129 A 
HETATM   21  N   UNL     1      42.118 -14.846   3.163  1.00  0.00    -0.249 N 
HETATM   22  N   UNL     1      41.718 -13.917   2.269  1.00  0.00    -0.183 NA
HETATM   23  C   UNL     1      41.756 -12.774   2.951  1.00  0.00     0.142 A 
HETATM   24  C   UNL     1      42.173 -12.960   4.279  1.00  0.00     0.071 A 
BRANCH  21  25
HETATM   25  C   UNL     1      42.218 -16.236   2.706  1.00  0.00     0.111 C 
HETATM   26  C   UNL     1      40.864 -16.937   2.859  1.00  0.00     0.035 C 
BRANCH  25  27
HETATM   27  C   UNL     1      42.839 -16.365   1.288  1.00  0.00     0.002 C 
HETATM   28  C   UNL     1      43.970 -17.402   1.254  1.00  0.00     0.011 C 
HETATM   29  C   UNL     1      41.790 -16.746   0.237  1.00  0.00     0.011 C 
ENDBRANCH  25  27
ENDBRANCH  21  25
ENDBRANCH   1  20
TORSDOF 6
ENDMDL
MODEL 2
REMARK VINA RESULT:      -7.8      6.193      9.690
REMARK  6 active torsions:
REMARK  status: ('A' for Active; 'I' for Inactive)
REMARK    1  A    between atoms: C_2  and  N_3 
REMARK    2  A    between atoms: C_2  and  C_25 
REMARK    3  A    between atoms: C_7  and  N_8 
REMARK       I    between atoms: N_8  and  C_9 
REMARK       I    between atoms: C_9  and  N_10 
REMARK    4  A    between atoms: N_10  and  C_11 
REMARK    5  A    between atoms: C_11  and  C_12 
REMARK    6  A    between atoms: C_20  and  O_21 
ROOT
HETATM    1  N   UNL     1      43.224 -13.457   6.635  1.00  0.00    -0.293 N 
HETATM    2  C   UNL     1      44.310 -13.502   7.544  1.00  0.00     0.322 C 
HETATM    3  N   UNL     1      44.178 -12.660   8.603  1.00  0.00    -0.337 N 
HETATM    4  O   UNL     1      45.252 -14.262   7.422  1.00  0.00    -0.247 OA
HETATM    5  H   UNL     1      42.400 -12.946   6.912  1.00  0.00     0.172 HD
HETATM    6  H   UNL     1      45.007 -12.699   9.184  1.00  0.00     0.164 HD
ENDROOT
BRANCH   3   7
HETATM    7  C   UNL     1      43.466 -11.405   8.616  1.00  0.00     0.181 C 
BRANCH   7   8
HETATM    8  C   UNL     1      43.140 -11.014  10.011  1.00  0.00     0.028 A 
HETATM    9  N   UNL     1      42.020 -11.463  10.675  1.00  0.00    -0.357 N 
HETATM   10  H   UNL     1      41.322 -12.083  10.287  1.00  0.00     0.166 HD
HETATM   11  C   UNL     1      41.981 -10.953  11.951  1.00  0.00     0.043 A 
HETATM   12  C   UNL     1      43.132 -10.189  12.126  1.00  0.00    -0.005 A 
HETATM   13  C   UNL     1      41.032 -11.122  12.963  1.00  0.00     0.033 A 
HETATM   14  C   UNL     1      43.852 -10.233  10.901  1.00  0.00     0.040 A 
HETATM   15  C   UNL     1      43.359  -9.582  13.374  1.00  0.00     0.050 A 
HETATM   16  C   UNL     1      42.437  -9.763  14.415  1.00  0.00     0.069 A 
HETATM   17  C   UNL     1      41.281 -10.512  14.199  1.00  0.00     0.039 A 
BRANCH  16  18
HETATM   18  O   UNL     1      42.780  -9.145  15.588  1.00  0.00    -0.356 OA
HETATM   19  C   UNL     1      41.752  -8.409  16.243  1.00  0.00     0.210 C 
ENDBRANCH  16  18
ENDBRANCH   7   8
ENDBRANCH   3   7
BRANCH   1  20
HETATM   20  C   UNL     1      43.198 -14.136   5.422  1.00  0.00     0.129 A 
HETATM   21  N   UNL     1      42.775 -15.434   5.209  1.00  0.00    -0.249 N 
HETATM   22  N   UNL     1      42.847 -15.807   3.913  1.00  0.00    -0.183 NA
HETATM   23  C   UNL     1      43.328 -14.731   3.293  1.00  0.00     0.142 A 
HETATM   24  C   UNL     1      43.563 -13.666   4.179  1.00  0.00     0.071 A 
BRANCH  21  25
HETATM   25  C   UNL     1      42.303 -16.427   6.179  1.00  0.00     0.111 C 
HETATM   26  C   UNL     1      41.183 -17.273   5.564  1.00  0.00     0.035 C 
BRANCH  25  27
HETATM   27  C   UNL     1      43.456 -17.262   6.802  1.00  0.00     0.002 C 
HETATM   28  C   UNL     1      43.418 -17.230   8.336  1.00  0.00     0.011 C 
HETATM   29  C   UNL     1      43.416 -18.724   6.338  1.00  0.00     0.011 C 
ENDBRANCH  25  27
ENDBRANCH  21  25
ENDBRANCH   1  20
TORSDOF 6
ENDMDL
MODEL 3
REMARK VINA RESULT:      -7.7      3.884      5.872
REMARK  6 active torsions:
REMARK  status: ('A' for Active; 'I' for Inactive)
REMARK    1  A    between atoms: C_2  and  N_3 
REMARK    2  A    between atoms: C_2  and  C_25 
REMARK    3  A    between atoms: C_7  and  N_8 
REMARK       I    between atoms: N_8  and  C_9 
REMARK       I    between atoms: C_9  and  N_10 
REMARK    4  A    between atoms: N_10  and  C_11 
REMARK    5  A    between atoms: C_11  and  C_12 
REMARK    6  A    between atoms: C_20  and  O_21 
ROOT
HETATM    1  N   UNL     1      44.333 -13.884   7.985  1.00  0.00    -0.293 N 
HETATM    2  C   UNL     1      43.527 -13.976   6.824  1.00  0.00     0.322 C 
HETATM    3  N   UNL     1      42.905 -15.175   6.678  1.00  0.00    -0.337 N 
HETATM    4  O   UNL     1      43.358 -13.049   6.053  1.00  0.00    -0.247 OA
HETATM    5  H   UNL     1      44.263 -14.623   8.666  1.00  0.00     0.172 HD
HETATM    6  H   UNL     1      42.389 -15.197   5.807  1.00  0.00     0.164 HD
ENDROOT
BRANCH   3   7
HETATM    7  C   UNL     1      43.385 -16.452   7.149  1.00  0.00     0.181 C 
BRANCH   7   8
HETATM    8  C   UNL     1      43.538 -17.394   6.011  1.00  0.00     0.028 A 
HETATM    9  N   UNL     1      43.240 -17.055   4.710  1.00  0.00    -0.357 N 
HETATM   10  H   UNL     1      42.891 -16.156   4.407  1.00  0.00     0.166 HD
HETATM   11  C   UNL     1      43.489 -18.114   3.869  1.00  0.00     0.043 A 
HETATM   12  C   UNL     1      44.002 -19.148   4.647  1.00  0.00    -0.005 A 
HETATM   13  C   UNL     1      43.317 -18.228   2.486  1.00  0.00     0.033 A 
HETATM   14  C   UNL     1      44.027 -18.686   5.991  1.00  0.00     0.040 A 
HETATM   15  C   UNL     1      44.382 -20.346   4.016  1.00  0.00     0.050 A 
HETATM   16  C   UNL     1      44.250 -20.475   2.626  1.00  0.00     0.069 A 
HETATM   17  C   UNL     1      43.707 -19.429   1.879  1.00  0.00     0.039 A 
BRANCH  16  18
HETATM   18  O   UNL     1      44.676 -21.675   2.126  1.00  0.00    -0.356 OA
HETATM   19  C   UNL     1      44.769 -22.753   3.050  1.00  0.00     0.210 C 
ENDBRANCH  16  18
ENDBRANCH   7   8
ENDBRANCH   3   7
BRANCH   1  20
HETATM   20  C   UNL     1      45.156 -12.801   8.275  1.00  0.00     0.129 A 
HETATM   21  N   UNL     1      44.880 -11.759   9.139  1.00  0.00    -0.249 N 
HETATM   22  N   UNL     1      45.889 -10.866   9.229  1.00  0.00    -0.183 NA
HETATM   23  C   UNL     1      46.820 -11.346   8.406  1.00  0.00     0.142 A 
HETATM   24  C   UNL     1      46.420 -12.543   7.789  1.00  0.00     0.071 A 
BRANCH  21  25
HETATM   25  C   UNL     1      43.665 -11.496   9.916  1.00  0.00     0.111 C 
HETATM   26  C   UNL     1      44.002 -11.426  11.410  1.00  0.00     0.035 C 
BRANCH  25  27
HETATM   27  C   UNL     1      42.861 -10.275   9.392  1.00  0.00     0.002 C 
HETATM   28  C   UNL     1      42.030 -10.630   8.152  1.00  0.00     0.011 C 
HETATM   29  C   UNL     1      41.927  -9.704  10.465  1.00  0.00     0.011 C 
ENDBRANCH  25  27
ENDBRANCH  21  25
ENDBRANCH   1  20
TORSDOF 6
ENDMDL
MODEL 4
REMARK VINA RESULT:      -7.6      1.995      3.679
REMARK  6 active torsions:
REMARK  status: ('A' for Active; 'I' for Inactive)
REMARK    1  A    between atoms: C_2  and  N_3 
REMARK    2  A    between atoms: C_2  and  C_25 
REMARK    3  A    between atoms: C_7  and  N_8 
REMARK       I    between atoms: N_8  and  C_9 
REMARK       I    between atoms: C_9  and  N_10 
REMARK    4  A    between atoms: N_10  and  C_11 
REMARK    5  A    between atoms: C_11  and  C_12 
REMARK    6  A    between atoms: C_20  and  O_21 
ROOT
HETATM    1  N   UNL     1      41.798 -13.655   2.304  1.00  0.00    -0.293 N 
HETATM    2  C   UNL     1      40.805 -13.630   3.315  1.00  0.00     0.322 C 
HETATM    3  N   UNL     1      41.237 -13.121   4.499  1.00  0.00    -0.337 N 
HETATM    4  O   UNL     1      39.654 -13.979   3.130  1.00  0.00    -0.247 OA
HETATM    5  H   UNL     1      42.662 -13.169   2.482  1.00  0.00     0.172 HD
HETATM    6  H   UNL     1      40.501 -13.180   5.193  1.00  0.00     0.164 HD
ENDROOT
BRANCH   3   7
HETATM    7  C   UNL     1      42.584 -13.175   5.014  1.00  0.00     0.181 C 
BRANCH   7   8
HETATM    8  C   UNL     1      42.923 -14.562   5.420  1.00  0.00     0.028 A 
HETATM    9  N   UNL     1      42.756 -15.032   6.704  1.00  0.00    -0.357 N 
HETATM   10  H   UNL     1      42.400 -14.492   7.481  1.00  0.00     0.166 HD
HETATM   11  C   UNL     1      43.138 -16.350   6.787  1.00  0.00     0.043 A 
HETATM   12  C   UNL     1      43.520 -16.751   5.509  1.00  0.00    -0.005 A 
HETATM   13  C   UNL     1      43.156 -17.218   7.883  1.00  0.00     0.033 A 
HETATM   14  C   UNL     1      43.384 -15.620   4.659  1.00  0.00     0.040 A 
HETATM   15  C   UNL     1      43.921 -18.084   5.309  1.00  0.00     0.050 A 
HETATM   16  C   UNL     1      43.918 -18.982   6.386  1.00  0.00     0.069 A 
HETATM   17  C   UNL     1      43.554 -18.542   7.658  1.00  0.00     0.039 A 
BRANCH  16  18
HETATM   18  O   UNL     1      44.302 -20.255   6.062  1.00  0.00    -0.356 OA
HETATM   19  C   UNL     1      44.880 -20.437   4.774  1.00  0.00     0.210 C 
ENDBRANCH  16  18
ENDBRANCH   7   8
ENDBRANCH   3   7
BRANCH   1  20
HETATM   20  C   UNL     1      41.620 -14.242   1.056  1.00  0.00     0.129 A 
HETATM   21  N   UNL     1      41.575 -15.594   0.776  1.00  0.00    -0.249 N 
HETATM   22  N   UNL     1      41.365 -15.856  -0.532  1.00  0.00    -0.183 NA
HETATM   23  C   UNL     1      41.280 -14.651  -1.093  1.00  0.00     0.142 A 
HETATM   24  C   UNL     1      41.429 -13.615  -0.156  1.00  0.00     0.071 A 
BRANCH  21  25
HETATM   25  C   UNL     1      41.749 -16.735   1.681  1.00  0.00     0.111 C 
HETATM   26  C   UNL     1      40.394 -17.395   1.961  1.00  0.00     0.035 C 
BRANCH  25  27
HETATM   27  C   UNL     1      42.847 -17.725   1.206  1.00  0.00     0.002 C 
HETATM   28  C   UNL     1      44.256 -17.153   1.409  1.00  0.00     0.011 C 
HETATM   29  C   UNL     1      42.753 -19.073   1.931  1.00  0.00     0.011 C 
ENDBRANCH  25  27
ENDBRANCH  21  25
ENDBRANCH   1  20
TORSDOF 6
ENDMDL
MODEL 5
REMARK VINA RESULT:      -7.5      3.736      5.357
REMARK  6 active torsions:
REMARK  status: ('A' for Active; 'I' for Inactive)
REMARK    1  A    between atoms: C_2  and  N_3 
REMARK    2  A    between atoms: C_2  and  C_25 
REMARK    3  A    between atoms: C_7  and  N_8 
REMARK       I    between atoms: N_8  and  C_9 
REMARK       I    between atoms: C_9  and  N_10 
REMARK    4  A    between atoms: N_10  and  C_11 
REMARK    5  A    between atoms: C_11  and  C_12 
REMARK    6  A    between atoms: C_20  and  O_21 
ROOT
HETATM    1  N   UNL     1      41.744 -14.410  -0.483  1.00  0.00    -0.293 N 
HETATM    2  C   UNL     1      42.033 -13.746   0.735  1.00  0.00     0.322 C 
HETATM    3  N   UNL     1      41.960 -14.547   1.831  1.00  0.00    -0.337 N 
HETATM    4  O   UNL     1      42.370 -12.578   0.795  1.00  0.00    -0.247 OA
HETATM    5  H   UNL     1      41.666 -15.414  -0.464  1.00  0.00     0.172 HD
HETATM    6  H   UNL     1      42.123 -14.004   2.670  1.00  0.00     0.164 HD
ENDROOT
BRANCH   3   7
HETATM    7  C   UNL     1      41.112 -15.703   1.991  1.00  0.00     0.181 C 
BRANCH   7   8
HETATM    8  C   UNL     1      41.920 -16.879   2.400  1.00  0.00     0.028 A 
HETATM    9  N   UNL     1      42.144 -17.960   1.576  1.00  0.00    -0.357 N 
HETATM   10  H   UNL     1      41.785 -18.062   0.636  1.00  0.00     0.166 HD
HETATM   11  C   UNL     1      42.934 -18.891   2.208  1.00  0.00     0.043 A 
HETATM   12  C   UNL     1      43.263 -18.373   3.458  1.00  0.00    -0.005 A 
HETATM   13  C   UNL     1      43.395 -20.134   1.766  1.00  0.00     0.033 A 
HETATM   14  C   UNL     1      42.619 -17.111   3.569  1.00  0.00     0.040 A 
HETATM   15  C   UNL     1      44.107 -19.119   4.300  1.00  0.00     0.050 A 
HETATM   16  C   UNL     1      44.609 -20.355   3.867  1.00  0.00     0.069 A 
HETATM   17  C   UNL     1      44.239 -20.857   2.619  1.00  0.00     0.039 A 
BRANCH  16  18
HETATM   18  O   UNL     1      45.439 -20.974   4.761  1.00  0.00    -0.356 OA
HETATM   19  C   UNL     1      45.080 -22.294   5.155  1.00  0.00     0.210 C 
ENDBRANCH  16  18
ENDBRANCH   7   8
ENDBRANCH   3   7
BRANCH   1  20
HETATM   20  C   UNL     1      41.637 -13.766  -1.711  1.00  0.00     0.129 A 
HETATM   21  N   UNL     1      40.541 -13.764  -2.552  1.00  0.00    -0.249 N 
HETATM   22  N   UNL     1      40.733 -13.027  -3.667  1.00  0.00    -0.183 NA
HETATM   23  C   UNL     1      41.972 -12.557  -3.535  1.00  0.00     0.142 A 
HETATM   24  C   UNL     1      42.578 -12.982  -2.342  1.00  0.00     0.071 A 
BRANCH  21  25
HETATM   25  C   UNL     1      39.258 -14.458  -2.405  1.00  0.00     0.111 C 
HETATM   26  C   UNL     1      38.293 -13.608  -1.573  1.00  0.00     0.035 C 
BRANCH  25  27
HETATM   27  C   UNL     1      38.668 -14.938  -3.760  1.00  0.00     0.002 C 
HETATM   28  C   UNL     1      39.111 -16.368  -4.100  1.00  0.00     0.011 C 
HETATM   29  C   UNL     1      37.136 -14.881  -3.768  1.00  0.00     0.011 C 
ENDBRANCH  25  27
ENDBRANCH  21  25
ENDBRANCH   1  20
TORSDOF 6
ENDMDL
MODEL 6
REMARK VINA RESULT:      -7.2      2.840      3.896
REMARK  6 active torsions:
REMARK  status: ('A' for Active; 'I' for Inactive)
REMARK    1  A    between atoms: C_2  and  N_3 
REMARK    2  A    between atoms: C_2  and  C_25 
REMARK    3  A    between atoms: C_7  and  N_8 
REMARK       I    between atoms: N_8  and  C_9 
REMARK       I    between atoms: C_9  and  N_10 
REMARK    4  A    between atoms: N_10  and  C_11 
REMARK    5  A    between atoms: C_11  and  C_12 
REMARK    6  A    between atoms: C_20  and  O_21 
ROOT
HETATM    1  N   UNL     1      41.128 -14.342   1.916  1.00  0.00    -0.293 N 
HETATM    2  C   UNL     1      42.263 -13.514   2.098  1.00  0.00     0.322 C 
HETATM    3  N   UNL     1      43.126 -13.961   3.047  1.00  0.00    -0.337 N 
HETATM    4  O   UNL     1      42.478 -12.519   1.429  1.00  0.00    -0.247 OA
HETATM    5  H   UNL     1      41.126 -15.242   2.370  1.00  0.00     0.172 HD
HETATM    6  H   UNL     1      43.885 -13.301   3.167  1.00  0.00     0.164 HD
ENDROOT
BRANCH   3   7
HETATM    7  C   UNL     1      42.788 -14.740   4.214  1.00  0.00     0.181 C 
BRANCH   7   8
HETATM    8  C   UNL     1      43.274 -16.134   4.059  1.00  0.00     0.028 A 
HETATM    9  N   UNL     1      43.662 -16.917   5.124  1.00  0.00    -0.357 N 
HETATM   10  H   UNL     1      43.660 -16.627   6.093  1.00  0.00     0.166 HD
HETATM   11  C   UNL     1      44.052 -18.162   4.689  1.00  0.00     0.043 A 
HETATM   12  C   UNL     1      43.867 -18.193   3.308  1.00  0.00    -0.005 A 
HETATM   13  C   UNL     1      44.532 -19.260   5.407  1.00  0.00     0.033 A 
HETATM   14  C   UNL     1      43.381 -16.914   2.924  1.00  0.00     0.040 A 
HETATM   15  C   UNL     1      44.156 -19.381   2.613  1.00  0.00     0.050 A 
HETATM   16  C   UNL     1      44.609 -20.507   3.315  1.00  0.00     0.069 A 
HETATM   17  C   UNL     1      44.807 -20.435   4.694  1.00  0.00     0.039 A 
BRANCH  16  18
HETATM   18  O   UNL     1      44.830 -21.609   2.535  1.00  0.00    -0.356 OA
HETATM   19  C   UNL     1      43.869 -21.872   1.518  1.00  0.00     0.210 C 
ENDBRANCH  16  18
ENDBRANCH   7   8
ENDBRANCH   3   7
BRANCH   1  20
HETATM   20  C   UNL     1      40.056 -14.020   1.091  1.00  0.00     0.129 A 
HETATM   21  N   UNL     1      40.044 -14.025  -0.291  1.00  0.00    -0.249 N 
HETATM   22  N   UNL     1      38.843 -13.688  -0.809  1.00  0.00    -0.183 NA
HETATM   23  C   UNL     1      38.082 -13.460   0.259  1.00  0.00     0.142 A 
HETATM   24  C   UNL     1      38.781 -13.652   1.462  1.00  0.00     0.071 A 
BRANCH  21  25
HETATM   25  C   UNL     1      41.135 -14.312  -1.227  1.00  0.00     0.111 C 
HETATM   26  C   UNL     1      40.917 -15.677  -1.886  1.00  0.00     0.035 C 
BRANCH  25  27
HETATM   27  C   UNL     1      41.389 -13.157  -2.234  1.00  0.00     0.002 C 
HETATM   28  C   UNL     1      42.828 -12.632  -2.147  1.00  0.00     0.011 C 
HETATM   29  C   UNL     1      41.108 -13.588  -3.679  1.00  0.00     0.011 C 
ENDBRANCH  25  27
ENDBRANCH  21  25
ENDBRANCH   1  20
TORSDOF 6
ENDMDL
MODEL 7
REMARK VINA RESULT:      -7.2      2.042      3.141
REMARK  6 active torsions:
REMARK  status: ('A' for Active; 'I' for Inactive)
REMARK    1  A    between atoms: C_2  and  N_3 
REMARK    2  A    between atoms: C_2  and  C_25 
REMARK    3  A    between atoms: C_7  and  N_8 
REMARK       I    between atoms: N_8  and  C_9 
REMARK       I    between atoms: C_9  and  N_10 
REMARK    4  A    between atoms: N_10  and  C_11 
REMARK    5  A    between atoms: C_11  and  C_12 
REMARK    6  A    between atoms: C_20  and  O_21 
ROOT
HETATM    1  N   UNL     1      40.918 -13.267   4.174  1.00  0.00    -0.293 N 
HETATM    2  C   UNL     1      40.649 -14.043   5.329  1.00  0.00     0.322 C 
HETATM    3  N   UNL     1      41.748 -14.305   6.085  1.00  0.00    -0.337 N 
HETATM    4  O   UNL     1      39.531 -14.400   5.649  1.00  0.00    -0.247 OA
HETATM    5  H   UNL     1      41.832 -12.852   4.089  1.00  0.00     0.172 HD
HETATM    6  H   UNL     1      41.501 -14.905   6.862  1.00  0.00     0.164 HD
ENDROOT
BRANCH   3   7
HETATM    7  C   UNL     1      43.105 -14.427   5.610  1.00  0.00     0.181 C 
BRANCH   7   8
HETATM    8  C   UNL     1      43.287 -15.719   4.902  1.00  0.00     0.028 A 
HETATM    9  N   UNL     1      43.250 -15.835   3.530  1.00  0.00    -0.357 N 
HETATM   10  H   UNL     1      43.094 -15.073   2.884  1.00  0.00     0.166 HD
HETATM   11  C   UNL     1      43.461 -17.140   3.152  1.00  0.00     0.043 A 
HETATM   12  C   UNL     1      43.683 -17.876   4.314  1.00  0.00    -0.005 A 
HETATM   13  C   UNL     1      43.491 -17.719   1.880  1.00  0.00     0.033 A 
HETATM   14  C   UNL     1      43.569 -16.974   5.406  1.00  0.00     0.040 A 
HETATM   15  C   UNL     1      43.968 -19.248   4.202  1.00  0.00     0.050 A 
HETATM   16  C   UNL     1      44.035 -19.846   2.936  1.00  0.00     0.069 A 
HETATM   17  C   UNL     1      43.782 -19.087   1.794  1.00  0.00     0.039 A 
BRANCH  16  18
HETATM   18  O   UNL     1      44.345 -21.179   2.954  1.00  0.00    -0.356 OA
HETATM   19  C   UNL     1      44.227 -21.877   1.720  1.00  0.00     0.210 C 
ENDBRANCH  16  18
ENDBRANCH   7   8
ENDBRANCH   3   7
BRANCH   1  20
HETATM   20  C   UNL     1      39.973 -12.983   3.194  1.00  0.00     0.129 A 
HETATM   21  N   UNL     1      39.784 -13.661   2.005  1.00  0.00    -0.249 N 
HETATM   22  N   UNL     1      38.769 -13.161   1.268  1.00  0.00    -0.183 NA
HETATM   23  C   UNL     1      38.309 -12.146   1.997  1.00  0.00     0.142 A 
HETATM   24  C   UNL     1      39.016 -11.991   3.200  1.00  0.00     0.071 A 
BRANCH  21  25
HETATM   25  C   UNL     1      40.536 -14.792   1.452  1.00  0.00     0.111 C 
HETATM   26  C   UNL     1      39.921 -16.113   1.924  1.00  0.00     0.035 C 
BRANCH  25  27
HETATM   27  C   UNL     1      40.729 -14.699  -0.086  1.00  0.00     0.002 C 
HETATM   28  C   UNL     1      41.665 -13.547  -0.475  1.00  0.00     0.011 C 
HETATM   29  C   UNL     1      41.284 -16.003  -0.671  1.00  0.00     0.011 C 
ENDBRANCH  25  27
ENDBRANCH  21  25
ENDBRANCH   1  20
TORSDOF 6
ENDMDL
MODEL 8
REMARK VINA RESULT:      -7.2      1.456      3.081
REMARK  6 active torsions:
REMARK  status: ('A' for Active; 'I' for Inactive)
REMARK    1  A    between atoms: C_2  and  N_3 
REMARK    2  A    between atoms: C_2  and  C_25 
REMARK    3  A    between atoms: C_7  and  N_8 
REMARK       I    between atoms: N_8  and  C_9 
REMARK       I    between atoms: C_9  and  N_10 
REMARK    4  A    between atoms: N_10  and  C_11 
REMARK    5  A    between atoms: C_11  and  C_12 
REMARK    6  A    between atoms: C_20  and  O_21 
ROOT
HETATM    1  N   UNL     1      41.827 -15.553   4.926  1.00  0.00    -0.293 N 
HETATM    2  C   UNL     1      41.477 -16.206   6.133  1.00  0.00     0.322 C 
HETATM    3  N   UNL     1      42.521 -16.388   6.984  1.00  0.00    -0.337 N 
HETATM    4  O   UNL     1      40.337 -16.527   6.413  1.00  0.00    -0.247 OA
HETATM    5  H   UNL     1      42.748 -15.149   4.859  1.00  0.00     0.172 HD
HETATM    6  H   UNL     1      42.218 -16.905   7.801  1.00  0.00     0.164 HD
ENDROOT
BRANCH   3   7
HETATM    7  C   UNL     1      43.906 -16.558   6.617  1.00  0.00     0.181 C 
BRANCH   7   8
HETATM    8  C   UNL     1      44.103 -17.872   5.954  1.00  0.00     0.028 A 
HETATM    9  N   UNL     1      44.166 -19.061   6.646  1.00  0.00    -0.357 N 
HETATM   10  H   UNL     1      44.092 -19.156   7.650  1.00  0.00     0.166 HD
HETATM   11  C   UNL     1      44.340 -20.114   5.779  1.00  0.00     0.043 A 
HETATM   12  C   UNL     1      44.345 -19.589   4.489  1.00  0.00    -0.005 A 
HETATM   13  C   UNL     1      44.473 -21.481   6.034  1.00  0.00     0.033 A 
HETATM   14  C   UNL     1      44.198 -18.181   4.611  1.00  0.00     0.040 A 
HETATM   15  C   UNL     1      44.470 -20.470   3.400  1.00  0.00     0.050 A 
HETATM   16  C   UNL     1      44.573 -21.850   3.628  1.00  0.00     0.069 A 
HETATM   17  C   UNL     1      44.590 -22.340   4.933  1.00  0.00     0.039 A 
BRANCH  16  18
HETATM   18  O   UNL     1      44.662 -22.606   2.490  1.00  0.00    -0.356 OA
HETATM   19  C   UNL     1      44.110 -22.042   1.306  1.00  0.00     0.210 C 
ENDBRANCH  16  18
ENDBRANCH   7   8
ENDBRANCH   3   7
BRANCH   1  20
HETATM   20  C   UNL     1      40.952 -15.372   3.860  1.00  0.00     0.129 A 
HETATM   21  N   UNL     1      40.319 -14.198   3.499  1.00  0.00    -0.249 N 
HETATM   22  N   UNL     1      39.546 -14.331   2.400  1.00  0.00    -0.183 NA
HETATM   23  C   UNL     1      39.686 -15.611   2.059  1.00  0.00     0.142 A 
HETATM   24  C   UNL     1      40.547 -16.302   2.927  1.00  0.00     0.071 A 
BRANCH  21  25
HETATM   25  C   UNL     1      40.356 -12.885   4.152  1.00  0.00     0.111 C 
HETATM   26  C   UNL     1      39.179 -12.028   3.675  1.00  0.00     0.035 C 
BRANCH  25  27
HETATM   27  C   UNL     1      40.484 -12.979   5.697  1.00  0.00     0.002 C 
HETATM   28  C   UNL     1      41.642 -12.122   6.226  1.00  0.00     0.011 C 
HETATM   29  C   UNL     1      39.192 -12.552   6.404  1.00  0.00     0.011 C 
ENDBRANCH  25  27
ENDBRANCH  21  25
ENDBRANCH   1  20
TORSDOF 6
ENDMDL
MODEL 9
REMARK VINA RESULT:      -7.1      2.234      4.359
REMARK  6 active torsions:
REMARK  status: ('A' for Active; 'I' for Inactive)
REMARK    1  A    between atoms: C_2  and  N_3 
REMARK    2  A    between atoms: C_2  and  C_25 
REMARK    3  A    between atoms: C_7  and  N_8 
REMARK       I    between atoms: N_8  and  C_9 
REMARK       I    between atoms: C_9  and  N_10 
REMARK    4  A    between atoms: N_10  and  C_11 
REMARK    5  A    between atoms: C_11  and  C_12 
REMARK    6  A    between atoms: C_20  and  O_21 
ROOT
HETATM    1  N   UNL     1      40.994 -13.934   3.333  1.00  0.00    -0.293 N 
HETATM    2  C   UNL     1      41.918 -14.047   2.264  1.00  0.00     0.322 C 
HETATM    3  N   UNL     1      41.573 -14.975   1.333  1.00  0.00    -0.337 N 
HETATM    4  O   UNL     1      42.904 -13.342   2.156  1.00  0.00    -0.247 OA
HETATM    5  H   UNL     1      40.112 -14.413   3.244  1.00  0.00     0.172 HD
HETATM    6  H   UNL     1      42.296 -15.046   0.627  1.00  0.00     0.164 HD
ENDROOT
BRANCH   3   7
HETATM    7  C   UNL     1      40.808 -16.176   1.563  1.00  0.00     0.181 C 
BRANCH   7   8
HETATM    8  C   UNL     1      41.689 -17.256   2.074  1.00  0.00     0.028 A 
HETATM    9  N   UNL     1      42.093 -18.324   1.303  1.00  0.00    -0.357 N 
HETATM   10  H   UNL     1      41.832 -18.479   0.338  1.00  0.00     0.166 HD
HETATM   11  C   UNL     1      42.912 -19.158   2.027  1.00  0.00     0.043 A 
HETATM   12  C   UNL     1      43.073 -18.585   3.287  1.00  0.00    -0.005 A 
HETATM   13  C   UNL     1      43.532 -20.355   1.662  1.00  0.00     0.033 A 
HETATM   14  C   UNL     1      42.300 -17.394   3.306  1.00  0.00     0.040 A 
HETATM   15  C   UNL     1      43.908 -19.226   4.220  1.00  0.00     0.050 A 
HETATM   16  C   UNL     1      44.567 -20.412   3.866  1.00  0.00     0.069 A 
HETATM   17  C   UNL     1      44.363 -20.973   2.606  1.00  0.00     0.039 A 
BRANCH  16  18
HETATM   18  O   UNL     1      45.371 -20.927   4.847  1.00  0.00    -0.356 OA
HETATM   19  C   UNL     1      45.101 -22.263   5.256  1.00  0.00     0.210 C 
ENDBRANCH  16  18
ENDBRANCH   7   8
ENDBRANCH   3   7
BRANCH   1  20
HETATM   20  C   UNL     1      41.201 -13.142   4.457  1.00  0.00     0.129 A 
HETATM   21  N   UNL     1      42.075 -13.393   5.497  1.00  0.00    -0.249 N 
HETATM   22  N   UNL     1      42.069 -12.423   6.437  1.00  0.00    -0.183 NA
HETATM   23  C   UNL     1      41.174 -11.545   5.990  1.00  0.00     0.142 A 
HETATM   24  C   UNL     1      40.606 -11.938   4.767  1.00  0.00     0.071 A 
BRANCH  21  25
HETATM   25  C   UNL     1      42.952 -14.548   5.714  1.00  0.00     0.111 C 
HETATM   26  C   UNL     1      44.366 -14.075   6.069  1.00  0.00     0.035 C 
BRANCH  25  27
HETATM   27  C   UNL     1      42.361 -15.580   6.713  1.00  0.00     0.002 C 
HETATM   28  C   UNL     1      41.020 -16.142   6.225  1.00  0.00     0.011 C 
HETATM   29  C   UNL     1      43.324 -16.746   6.964  1.00  0.00     0.011 C 
ENDBRANCH  25  27
ENDBRANCH  21  25
ENDBRANCH   1  20
TORSDOF 6
ENDMDL
MODEL 10
REMARK VINA RESULT:      -7.1      2.860      7.798
REMARK  6 active torsions:
REMARK  status: ('A' for Active; 'I' for Inactive)
REMARK    1  A    between atoms: C_2  and  N_3 
REMARK    2  A    between atoms: C_2  and  C_25 
REMARK    3  A    between atoms: C_7  and  N_8 
REMARK       I    between atoms: N_8  and  C_9 
REMARK       I    between atoms: C_9  and  N_10 
REMARK    4  A    between atoms: N_10  and  C_11 
REMARK    5  A    between atoms: C_11  and  C_12 
REMARK    6  A    between atoms: C_20  and  O_21 
ROOT
HETATM    1  N   UNL     1      44.362 -19.311   3.037  1.00  0.00    -0.293 N 
HETATM    2  C   UNL     1      43.516 -19.522   1.920  1.00  0.00     0.322 C 
HETATM    3  N   UNL     1      43.498 -18.488   1.039  1.00  0.00    -0.337 N 
HETATM    4  O   UNL     1      42.901 -20.556   1.733  1.00  0.00    -0.247 OA
HETATM    5  H   UNL     1      44.980 -18.516   3.015  1.00  0.00     0.172 HD
HETATM    6  H   UNL     1      42.837 -18.676   0.294  1.00  0.00     0.164 HD
ENDROOT
BRANCH   3   7
HETATM    7  C   UNL     1      43.706 -17.094   1.350  1.00  0.00     0.181 C 
BRANCH   7   8
HETATM    8  C   UNL     1      42.465 -16.320   1.092  1.00  0.00     0.028 A 
HETATM    9  N   UNL     1      42.168 -15.763  -0.131  1.00  0.00    -0.357 N 
HETATM   10  H   UNL     1      42.751 -15.818  -0.955  1.00  0.00     0.166 HD
HETATM   11  C   UNL     1      40.954 -15.118  -0.084  1.00  0.00     0.043 A 
HETATM   12  C   UNL     1      40.438 -15.304   1.197  1.00  0.00    -0.005 A 
HETATM   13  C   UNL     1      40.270 -14.405  -1.073  1.00  0.00     0.033 A 
HETATM   14  C   UNL     1      41.395 -16.058   1.927  1.00  0.00     0.040 A 
HETATM   15  C   UNL     1      39.171 -14.772   1.500  1.00  0.00     0.050 A 
HETATM   16  C   UNL     1      38.451 -14.081   0.515  1.00  0.00     0.069 A 
HETATM   17  C   UNL     1      39.008 -13.889  -0.749  1.00  0.00     0.039 A 
BRANCH  16  18
HETATM   18  O   UNL     1      37.223 -13.634   0.921  1.00  0.00    -0.356 OA
HETATM   19  C   UNL     1      36.903 -12.282   0.611  1.00  0.00     0.210 C 
ENDBRANCH  16  18
ENDBRANCH   7   8
ENDBRANCH   3   7
BRANCH   1  20
HETATM   20  C   UNL     1      44.443 -20.176   4.123  1.00  0.00     0.129 A 
HETATM   21  N   UNL     1      44.172 -19.875   5.444  1.00  0.00    -0.249 N 
HETATM   22  N   UNL     1      44.319 -20.935   6.268  1.00  0.00    -0.183 NA
HETATM   23  C   UNL     1      44.694 -21.924   5.459  1.00  0.00     0.142 A 
HETATM   24  C   UNL     1      44.786 -21.511   4.120  1.00  0.00     0.071 A 
BRANCH  21  25
HETATM   25  C   UNL     1      43.788 -18.593   6.043  1.00  0.00     0.111 C 
HETATM   26  C   UNL     1      45.015 -17.914   6.661  1.00  0.00     0.035 C 
BRANCH  25  27
HETATM   27  C   UNL     1      42.986 -17.684   5.071  1.00  0.00     0.002 C 
HETATM   28  C   UNL     1      41.482 -17.983   5.123  1.00  0.00     0.011 C 
HETATM   29  C   UNL     1      43.205 -16.196   5.369  1.00  0.00     0.011 C 
ENDBRANCH  25  27
ENDBRANCH  21  25
ENDBRANCH   1  20
TORSDOF 6
ENDMDL
