MODEL 1
REMARK VINA RESULT:      -8.1      0.000      0.000
REMARK  7 active torsions:
REMARK  status: ('A' for Active; 'I' for Inactive)
REMARK    1  A    between atoms: C_2  and  C_3 
REMARK    2  A    between atoms: C_3  and  N_4 
REMARK    3  A    between atoms: C_3  and  C_20 
REMARK       I    between atoms: N_4  and  C_5 
REMARK       I    between atoms: C_5  and  N_6 
REMARK    4  A    between atoms: N_6  and  C_7 
REMARK    5  A    between atoms: C_7  and  C_8 
REMARK    6  A    between atoms: C_10  and  O_11 
REMARK    7  A    between atoms: O_11  and  C_12 
ROOT
HETATM    1  N   UNL     1      43.832 -17.022   6.084  1.00  0.00    -0.334 N 
HETATM    2  C   UNL     1      43.501 -16.631   7.339  1.00  0.00     0.316 C 
HETATM    3  N   UNL     1      43.904 -15.395   7.718  1.00  0.00    -0.339 N 
HETATM    4  O   UNL     1      42.877 -17.328   8.133  1.00  0.00    -0.247 OA
HETATM    5  H   UNL     1      44.460 -16.455   5.541  1.00  0.00     0.165 HD
HETATM    6  H   UNL     1      43.645 -15.181   8.673  1.00  0.00     0.164 HD
ENDROOT
BRANCH   3   7
HETATM    7  C   UNL     1      44.487 -14.329   6.934  1.00  0.00     0.163 C 
BRANCH   7   8
HETATM    8  C   UNL     1      44.957 -13.143   7.737  1.00  0.00    -0.035 A 
HETATM    9  C   UNL     1      44.110 -12.369   8.539  1.00  0.00     0.066 A 
HETATM   10  C   UNL     1      44.638 -11.268   9.200  1.00  0.00     0.164 A 
HETATM   11  N   UNL     1      45.933 -10.899   9.139  1.00  0.00    -0.237 NA
HETATM   12  C   UNL     1      46.739 -11.662   8.376  1.00  0.00     0.120 A 
HETATM   13  C   UNL     1      46.305 -12.773   7.667  1.00  0.00     0.028 A 
BRANCH  10  14
HETATM   14  O   UNL     1      43.758 -10.517   9.954  1.00  0.00    -0.329 OA
BRANCH  14  15
HETATM   15  C   UNL     1      43.984 -10.525  11.381  1.00  0.00     0.130 C 
HETATM   16  C   UNL     1      43.257  -9.431  12.210  1.00  0.00     0.032 C 
HETATM   17  C   UNL     1      42.996 -10.503  13.282  1.00  0.00     0.005 C 
HETATM   18  C   UNL     1      43.135 -11.556  12.170  1.00  0.00     0.032 C 
ENDBRANCH  14  15
ENDBRANCH  10  14
ENDBRANCH   7   8
ENDBRANCH   3   7
BRANCH   1  19
HETATM   19  C   UNL     1      43.372 -18.278   5.511  1.00  0.00     0.119 C 
BRANCH  19  20
HETATM   20  C   UNL     1      44.414 -19.393   5.704  1.00  0.00     0.025 C 
HETATM   21  C   UNL     1      43.887 -20.535   6.563  1.00  0.00     0.007 C 
ENDBRANCH  19  20
BRANCH  19  22
HETATM   22  C   UNL     1      43.045 -18.090   4.039  1.00  0.00    -0.033 A 
HETATM   23  C   UNL     1      41.884 -17.407   3.659  1.00  0.00     0.028 A 
HETATM   24  C   UNL     1      41.600 -17.264   2.310  1.00  0.00     0.116 A 
HETATM   25  N   UNL     1      42.384 -17.745   1.322  1.00  0.00    -0.273 NA
HETATM   26  C   UNL     1      43.504 -18.394   1.703  1.00  0.00     0.116 A 
HETATM   27  C   UNL     1      43.871 -18.592   3.025  1.00  0.00     0.028 A 
ENDBRANCH  19  22
ENDBRANCH   1  19
TORSDOF 7
ENDMDL
MODEL 2
REMARK VINA RESULT:      -7.9      1.756      2.454
REMARK  7 active torsions:
REMARK  status: ('A' for Active; 'I' for Inactive)
REMARK    1  A    between atoms: C_2  and  C_3 
REMARK    2  A    between atoms: C_3  and  N_4 
REMARK    3  A    between atoms: C_3  and  C_20 
REMARK       I    between atoms: N_4  and  C_5 
REMARK       I    between atoms: C_5  and  N_6 
REMARK    4  A    between atoms: N_6  and  C_7 
REMARK    5  A    between atoms: C_7  and  C_8 
REMARK    6  A    between atoms: C_10  and  O_11 
REMARK    7  A    between atoms: O_11  and  C_12 
ROOT
HETATM    1  N   UNL     1      42.984 -16.104   5.329  1.00  0.00    -0.334 N 
HETATM    2  C   UNL     1      43.437 -14.927   4.830  1.00  0.00     0.316 C 
HETATM    3  N   UNL     1      44.101 -14.117   5.688  1.00  0.00    -0.339 N 
HETATM    4  O   UNL     1      43.272 -14.565   3.669  1.00  0.00    -0.247 OA
HETATM    5  H   UNL     1      43.036 -16.272   6.319  1.00  0.00     0.165 HD
HETATM    6  H   UNL     1      44.386 -13.248   5.254  1.00  0.00     0.164 HD
ENDROOT
BRANCH   3   7
HETATM    7  C   UNL     1      44.574 -14.376   7.030  1.00  0.00     0.163 C 
BRANCH   7   8
HETATM    8  C   UNL     1      45.111 -13.166   7.751  1.00  0.00    -0.035 A 
HETATM    9  C   UNL     1      44.339 -12.369   8.603  1.00  0.00     0.066 A 
HETATM   10  C   UNL     1      44.921 -11.248   9.179  1.00  0.00     0.164 A 
HETATM   11  N   UNL     1      46.204 -10.880   8.990  1.00  0.00    -0.237 NA
HETATM   12  C   UNL     1      46.940 -11.666   8.180  1.00  0.00     0.120 A 
HETATM   13  C   UNL     1      46.447 -12.798   7.547  1.00  0.00     0.028 A 
BRANCH  10  14
HETATM   14  O   UNL     1      44.111 -10.475   9.988  1.00  0.00    -0.329 OA
BRANCH  14  15
HETATM   15  C   UNL     1      44.110 -10.817  11.392  1.00  0.00     0.130 C 
HETATM   16  C   UNL     1      43.711  -9.690  12.384  1.00  0.00     0.032 C 
HETATM   17  C   UNL     1      42.931 -10.751  13.180  1.00  0.00     0.005 C 
HETATM   18  C   UNL     1      42.843 -11.567  11.879  1.00  0.00     0.032 C 
ENDBRANCH  14  15
ENDBRANCH  10  14
ENDBRANCH   7   8
ENDBRANCH   3   7
BRANCH   1  19
HETATM   19  C   UNL     1      42.352 -17.114   4.495  1.00  0.00     0.119 C 
BRANCH  19  20
HETATM   20  C   UNL     1      41.014 -17.577   5.099  1.00  0.00     0.025 C 
HETATM   21  C   UNL     1      40.650 -16.803   6.360  1.00  0.00     0.007 C 
ENDBRANCH  19  20
BRANCH  19  22
HETATM   22  C   UNL     1      43.293 -18.291   4.296  1.00  0.00    -0.033 A 
HETATM   23  C   UNL     1      43.917 -18.883   5.400  1.00  0.00     0.028 A 
HETATM   24  C   UNL     1      44.784 -19.944   5.190  1.00  0.00     0.116 A 
HETATM   25  N   UNL     1      45.068 -20.455   3.973  1.00  0.00    -0.273 NA
HETATM   26  C   UNL     1      44.452 -19.878   2.920  1.00  0.00     0.116 A 
HETATM   27  C   UNL     1      43.574 -18.811   3.026  1.00  0.00     0.028 A 
ENDBRANCH  19  22
ENDBRANCH   1  19
TORSDOF 7
ENDMDL
MODEL 3
REMARK VINA RESULT:      -7.7      3.127      8.552
REMARK  7 active torsions:
REMARK  status: ('A' for Active; 'I' for Inactive)
REMARK    1  A    between atoms: C_2  and  C_3 
REMARK    2  A    between atoms: C_3  and  N_4 
REMARK    3  A    between atoms: C_3  and  C_20 
REMARK       I    between atoms: N_4  and  C_5 
REMARK       I    between atoms: C_5  and  N_6 
REMARK    4  A    between atoms: N_6  and  C_7 
REMARK    5  A    between atoms: C_7  and  C_8 
REMARK    6  A    between atoms: C_10  and  O_11 
REMARK    7  A    between atoms: O_11  and  C_12 
ROOT
HETATM    1  N   UNL     1      43.422 -14.314   5.206  1.00  0.00    -0.334 N 
HETATM    2  C   UNL     1      42.342 -13.572   4.857  1.00  0.00     0.316 C 
HETATM    3  N   UNL     1      42.131 -13.388   3.532  1.00  0.00    -0.339 N 
HETATM    4  O   UNL     1      41.568 -13.065   5.664  1.00  0.00    -0.247 OA
HETATM    5  H   UNL     1      44.085 -14.581   4.500  1.00  0.00     0.165 HD
HETATM    6  H   UNL     1      41.325 -12.806   3.348  1.00  0.00     0.164 HD
ENDROOT
BRANCH   3   7
HETATM    7  C   UNL     1      42.776 -14.009   2.396  1.00  0.00     0.163 C 
BRANCH   7   8
HETATM    8  C   UNL     1      42.349 -15.430   2.131  1.00  0.00    -0.035 A 
HETATM    9  C   UNL     1      43.250 -16.485   1.946  1.00  0.00     0.066 A 
HETATM   10  C   UNL     1      42.750 -17.747   1.659  1.00  0.00     0.164 A 
HETATM   11  N   UNL     1      41.436 -18.038   1.565  1.00  0.00    -0.237 NA
HETATM   12  C   UNL     1      40.581 -17.016   1.761  1.00  0.00     0.120 A 
HETATM   13  C   UNL     1      40.982 -15.717   2.039  1.00  0.00     0.028 A 
BRANCH  10  14
HETATM   14  O   UNL     1      43.678 -18.750   1.454  1.00  0.00    -0.329 OA
BRANCH  14  15
HETATM   15  C   UNL     1      43.568 -19.899   2.324  1.00  0.00     0.130 C 
HETATM   16  C   UNL     1      43.467 -21.288   1.636  1.00  0.00     0.032 C 
HETATM   17  C   UNL     1      44.394 -21.832   2.737  1.00  0.00     0.005 C 
HETATM   18  C   UNL     1      44.911 -20.395   2.921  1.00  0.00     0.032 C 
ENDBRANCH  14  15
ENDBRANCH  10  14
ENDBRANCH   7   8
ENDBRANCH   3   7
BRANCH   1  19
HETATM   19  C   UNL     1      43.705 -14.680   6.586  1.00  0.00     0.119 C 
BRANCH  19  20
HETATM   20  C   UNL     1      45.047 -14.089   7.054  1.00  0.00     0.025 C 
HETATM   21  C   UNL     1      44.870 -13.056   8.159  1.00  0.00     0.007 C 
ENDBRANCH  19  20
BRANCH  19  22
HETATM   22  C   UNL     1      43.697 -16.192   6.737  1.00  0.00    -0.033 A 
HETATM   23  C   UNL     1      43.750 -17.010   5.602  1.00  0.00     0.028 A 
HETATM   24  C   UNL     1      43.724 -18.386   5.766  1.00  0.00     0.116 A 
HETATM   25  N   UNL     1      43.653 -18.999   6.966  1.00  0.00    -0.273 NA
HETATM   26  C   UNL     1      43.610 -18.198   8.051  1.00  0.00     0.116 A 
HETATM   27  C   UNL     1      43.626 -16.813   7.990  1.00  0.00     0.028 A 
ENDBRANCH  19  22
ENDBRANCH   1  19
TORSDOF 7
ENDMDL
MODEL 4
REMARK VINA RESULT:      -7.5      3.915      6.211
REMARK  7 active torsions:
REMARK  status: ('A' for Active; 'I' for Inactive)
REMARK    1  A    between atoms: C_2  and  C_3 
REMARK    2  A    between atoms: C_3  and  N_4 
REMARK    3  A    between atoms: C_3  and  C_20 
REMARK       I    between atoms: N_4  and  C_5 
REMARK       I    between atoms: C_5  and  N_6 
REMARK    4  A    between atoms: N_6  and  C_7 
REMARK    5  A    between atoms: C_7  and  C_8 
REMARK    6  A    between atoms: C_10  and  O_11 
REMARK    7  A    between atoms: O_11  and  C_12 
ROOT
HETATM    1  N   UNL     1      42.967 -18.435   1.735  1.00  0.00    -0.334 N 
HETATM    2  C   UNL     1      43.557 -17.340   1.195  1.00  0.00     0.316 C 
HETATM    3  N   UNL     1      42.736 -16.345   0.785  1.00  0.00    -0.339 N 
HETATM    4  O   UNL     1      44.770 -17.212   1.058  1.00  0.00    -0.247 OA
HETATM    5  H   UNL     1      41.967 -18.527   1.690  1.00  0.00     0.165 HD
HETATM    6  H   UNL     1      43.244 -15.573   0.371  1.00  0.00     0.164 HD
ENDROOT
BRANCH   3   7
HETATM    7  C   UNL     1      41.315 -16.172   0.988  1.00  0.00     0.163 C 
BRANCH   7   8
HETATM    8  C   UNL     1      40.947 -15.422   2.244  1.00  0.00    -0.035 A 
HETATM    9  C   UNL     1      41.571 -15.631   3.478  1.00  0.00     0.066 A 
HETATM   10  C   UNL     1      41.121 -14.921   4.583  1.00  0.00     0.164 A 
HETATM   11  N   UNL     1      40.124 -14.014   4.544  1.00  0.00    -0.237 NA
HETATM   12  C   UNL     1      39.543 -13.813   3.346  1.00  0.00     0.120 A 
HETATM   13  C   UNL     1      39.911 -14.482   2.188  1.00  0.00     0.028 A 
BRANCH  10  14
HETATM   14  O   UNL     1      41.747 -15.183   5.786  1.00  0.00    -0.329 OA
BRANCH  14  15
HETATM   15  C   UNL     1      43.188 -15.078   5.783  1.00  0.00     0.130 C 
HETATM   16  C   UNL     1      43.784 -13.657   5.977  1.00  0.00     0.032 C 
HETATM   17  C   UNL     1      44.860 -14.296   6.872  1.00  0.00     0.005 C 
HETATM   18  C   UNL     1      43.871 -15.446   7.127  1.00  0.00     0.032 C 
ENDBRANCH  14  15
ENDBRANCH  10  14
ENDBRANCH   7   8
ENDBRANCH   3   7
BRANCH   1  19
HETATM   19  C   UNL     1      43.731 -19.529   2.315  1.00  0.00     0.119 C 
BRANCH  19  20
HETATM   20  C   UNL     1      43.174 -20.893   1.871  1.00  0.00     0.025 C 
HETATM   21  C   UNL     1      44.277 -21.904   1.588  1.00  0.00     0.007 C 
ENDBRANCH  19  20
BRANCH  19  22
HETATM   22  C   UNL     1      43.740 -19.413   3.829  1.00  0.00    -0.033 A 
HETATM   23  C   UNL     1      42.707 -18.736   4.487  1.00  0.00     0.028 A 
HETATM   24  C   UNL     1      42.747 -18.630   5.869  1.00  0.00     0.116 A 
HETATM   25  N   UNL     1      43.730 -19.148   6.634  1.00  0.00    -0.273 NA
HETATM   26  C   UNL     1      44.715 -19.805   5.987  1.00  0.00     0.116 A 
HETATM   27  C   UNL     1      44.767 -19.960   4.610  1.00  0.00     0.028 A 
ENDBRANCH  19  22
ENDBRANCH   1  19
TORSDOF 7
ENDMDL
MODEL 5
REMARK VINA RESULT:      -7.4      2.693      9.012
REMARK  7 active torsions:
REMARK  status: ('A' for Active; 'I' for Inactive)
REMARK    1  A    between atoms: C_2  and  C_3 
REMARK    2  A    between atoms: C_3  and  N_4 
REMARK    3  A    between atoms: C_3  and  C_20 
REMARK       I    between atoms: N_4  and  C_5 
REMARK       I    between atoms: C_5  and  N_6 
REMARK    4  A    between atoms: N_6  and  C_7 
REMARK    5  A    between atoms: C_7  and  C_8 
REMARK    6  A    between atoms: C_10  and  O_11 
REMARK    7  A    between atoms: O_11  and  C_12 
ROOT
HETATM    1  N   UNL     1      43.623 -12.223   8.482  1.00  0.00    -0.334 N 
HETATM    2  C   UNL     1      44.846 -12.806   8.436  1.00  0.00     0.316 C 
HETATM    3  N   UNL     1      45.025 -13.774   7.506  1.00  0.00    -0.339 N 
HETATM    4  O   UNL     1      45.775 -12.513   9.182  1.00  0.00    -0.247 OA
HETATM    5  H   UNL     1      42.873 -12.607   7.935  1.00  0.00     0.165 HD
HETATM    6  H   UNL     1      45.951 -14.181   7.546  1.00  0.00     0.164 HD
ENDROOT
BRANCH   3   7
HETATM    7  C   UNL     1      44.169 -14.178   6.412  1.00  0.00     0.163 C 
BRANCH   7   8
HETATM    8  C   UNL     1      43.738 -15.622   6.453  1.00  0.00    -0.035 A 
HETATM    9  C   UNL     1      43.403 -16.360   5.312  1.00  0.00     0.066 A 
HETATM   10  C   UNL     1      42.972 -17.670   5.466  1.00  0.00     0.164 A 
HETATM   11  N   UNL     1      42.872 -18.298   6.655  1.00  0.00    -0.237 NA
HETATM   12  C   UNL     1      43.212 -17.580   7.743  1.00  0.00     0.120 A 
HETATM   13  C   UNL     1      43.641 -16.262   7.694  1.00  0.00     0.028 A 
BRANCH  10  14
HETATM   14  O   UNL     1      42.623 -18.348   4.314  1.00  0.00    -0.329 OA
BRANCH  14  15
HETATM   15  C   UNL     1      43.722 -18.805   3.494  1.00  0.00     0.130 C 
HETATM   16  C   UNL     1      44.501 -20.049   4.001  1.00  0.00     0.032 C 
HETATM   17  C   UNL     1      44.559 -20.533   2.542  1.00  0.00     0.005 C 
HETATM   18  C   UNL     1      43.310 -19.674   2.277  1.00  0.00     0.032 C 
ENDBRANCH  14  15
ENDBRANCH  10  14
ENDBRANCH   7   8
ENDBRANCH   3   7
BRANCH   1  19
HETATM   19  C   UNL     1      43.327 -11.098   9.357  1.00  0.00     0.119 C 
BRANCH  19  20
HETATM   20  C   UNL     1      43.408 -11.509  10.838  1.00  0.00     0.025 C 
HETATM   21  C   UNL     1      44.035 -10.425  11.705  1.00  0.00     0.007 C 
ENDBRANCH  19  20
BRANCH  19  22
HETATM   22  C   UNL     1      41.959 -10.527   9.027  1.00  0.00    -0.033 A 
HETATM   23  C   UNL     1      41.775  -9.776   7.860  1.00  0.00     0.028 A 
HETATM   24  C   UNL     1      40.521  -9.252   7.590  1.00  0.00     0.116 A 
HETATM   25  N   UNL     1      39.446  -9.422   8.389  1.00  0.00    -0.273 NA
HETATM   26  C   UNL     1      39.637 -10.155   9.506  1.00  0.00     0.116 A 
HETATM   27  C   UNL     1      40.853 -10.716   9.865  1.00  0.00     0.028 A 
ENDBRANCH  19  22
ENDBRANCH   1  19
TORSDOF 7
ENDMDL
MODEL 6
REMARK VINA RESULT:      -7.3      2.564      9.082
REMARK  7 active torsions:
REMARK  status: ('A' for Active; 'I' for Inactive)
REMARK    1  A    between atoms: C_2  and  C_3 
REMARK    2  A    between atoms: C_3  and  N_4 
REMARK    3  A    between atoms: C_3  and  C_20 
REMARK       I    between atoms: N_4  and  C_5 
REMARK       I    between atoms: C_5  and  N_6 
REMARK    4  A    between atoms: N_6  and  C_7 
REMARK    5  A    between atoms: C_7  and  C_8 
REMARK    6  A    between atoms: C_10  and  O_11 
REMARK    7  A    between atoms: O_11  and  C_12 
ROOT
HETATM    1  N   UNL     1      44.248 -12.589   8.675  1.00  0.00    -0.334 N 
HETATM    2  C   UNL     1      45.269 -13.052   7.912  1.00  0.00     0.316 C 
HETATM    3  N   UNL     1      45.049 -14.203   7.233  1.00  0.00    -0.339 N 
HETATM    4  O   UNL     1      46.359 -12.497   7.815  1.00  0.00    -0.247 OA
HETATM    5  H   UNL     1      43.436 -13.166   8.814  1.00  0.00     0.165 HD
HETATM    6  H   UNL     1      45.861 -14.500   6.707  1.00  0.00     0.164 HD
ENDROOT
BRANCH   3   7
HETATM    7  C   UNL     1      43.823 -14.945   7.039  1.00  0.00     0.163 C 
BRANCH   7   8
HETATM    8  C   UNL     1      43.543 -15.334   5.610  1.00  0.00    -0.035 A 
HETATM    9  C   UNL     1      43.222 -16.636   5.213  1.00  0.00     0.066 A 
HETATM   10  C   UNL     1      43.030 -16.895   3.863  1.00  0.00     0.164 A 
HETATM   11  N   UNL     1      43.111 -15.960   2.894  1.00  0.00    -0.237 NA
HETATM   12  C   UNL     1      43.406 -14.708   3.294  1.00  0.00     0.120 A 
HETATM   13  C   UNL     1      43.629 -14.352   4.616  1.00  0.00     0.028 A 
BRANCH  10  14
HETATM   14  O   UNL     1      42.745 -18.201   3.515  1.00  0.00    -0.329 OA
BRANCH  14  15
HETATM   15  C   UNL     1      43.836 -18.952   2.937  1.00  0.00     0.130 C 
HETATM   16  C   UNL     1      44.431 -20.097   3.803  1.00  0.00     0.032 C 
HETATM   17  C   UNL     1      44.529 -20.936   2.517  1.00  0.00     0.005 C 
HETATM   18  C   UNL     1      43.408 -20.057   1.936  1.00  0.00     0.032 C 
ENDBRANCH  14  15
ENDBRANCH  10  14
ENDBRANCH   7   8
ENDBRANCH   3   7
BRANCH   1  19
HETATM   19  C   UNL     1      44.309 -11.312   9.370  1.00  0.00     0.119 C 
BRANCH  19  20
HETATM   20  C   UNL     1      44.813 -11.488  10.813  1.00  0.00     0.025 C 
HETATM   21  C   UNL     1      44.306 -12.774  11.451  1.00  0.00     0.007 C 
ENDBRANCH  19  20
BRANCH  19  22
HETATM   22  C   UNL     1      42.945 -10.642   9.350  1.00  0.00    -0.033 A 
HETATM   23  C   UNL     1      42.138 -10.729   8.210  1.00  0.00     0.028 A 
HETATM   24  C   UNL     1      40.906 -10.095   8.211  1.00  0.00     0.116 A 
HETATM   25  N   UNL     1      40.423  -9.390   9.256  1.00  0.00    -0.273 NA
HETATM   26  C   UNL     1      41.209  -9.322  10.351  1.00  0.00     0.116 A 
HETATM   27  C   UNL     1      42.458  -9.918  10.445  1.00  0.00     0.028 A 
ENDBRANCH  19  22
ENDBRANCH   1  19
TORSDOF 7
ENDMDL
MODEL 7
REMARK VINA RESULT:      -7.3      2.836      3.832
REMARK  7 active torsions:
REMARK  status: ('A' for Active; 'I' for Inactive)
REMARK    1  A    between atoms: C_2  and  C_3 
REMARK    2  A    between atoms: C_3  and  N_4 
REMARK    3  A    between atoms: C_3  and  C_20 
REMARK       I    between atoms: N_4  and  C_5 
REMARK       I    between atoms: C_5  and  N_6 
REMARK    4  A    between atoms: N_6  and  C_7 
REMARK    5  A    between atoms: C_7  and  C_8 
REMARK    6  A    between atoms: C_10  and  O_11 
REMARK    7  A    between atoms: O_11  and  C_12 
ROOT
HETATM    1  N   UNL     1      42.133 -14.950   6.173  1.00  0.00    -0.334 N 
HETATM    2  C   UNL     1      40.798 -15.188   6.205  1.00  0.00     0.316 C 
HETATM    3  N   UNL     1      39.984 -14.112   6.093  1.00  0.00    -0.339 N 
HETATM    4  O   UNL     1      40.303 -16.304   6.335  1.00  0.00    -0.247 OA
HETATM    5  H   UNL     1      42.465 -14.001   6.202  1.00  0.00     0.165 HD
HETATM    6  H   UNL     1      39.005 -14.362   6.150  1.00  0.00     0.164 HD
ENDROOT
BRANCH   3   7
HETATM    7  C   UNL     1      40.301 -12.741   5.761  1.00  0.00     0.163 C 
BRANCH   7   8
HETATM    8  C   UNL     1      40.544 -11.847   6.950  1.00  0.00    -0.035 A 
HETATM    9  C   UNL     1      41.817 -11.426   7.351  1.00  0.00     0.066 A 
HETATM   10  C   UNL     1      41.933 -10.642   8.491  1.00  0.00     0.164 A 
HETATM   11  N   UNL     1      40.887 -10.233   9.238  1.00  0.00    -0.237 NA
HETATM   12  C   UNL     1      39.667 -10.634   8.830  1.00  0.00     0.120 A 
HETATM   13  C   UNL     1      39.449 -11.428   7.715  1.00  0.00     0.028 A 
BRANCH  10  14
HETATM   14  O   UNL     1      43.212 -10.276   8.866  1.00  0.00    -0.329 OA
BRANCH  14  15
HETATM   15  C   UNL     1      44.074 -11.353   9.296  1.00  0.00     0.130 C 
HETATM   16  C   UNL     1      45.524 -10.966   9.697  1.00  0.00     0.032 C 
HETATM   17  C   UNL     1      45.408 -11.973  10.855  1.00  0.00     0.005 C 
HETATM   18  C   UNL     1      43.882 -11.791  10.771  1.00  0.00     0.032 C 
ENDBRANCH  14  15
ENDBRANCH  10  14
ENDBRANCH   7   8
ENDBRANCH   3   7
BRANCH   1  19
HETATM   19  C   UNL     1      43.118 -16.021   6.173  1.00  0.00     0.119 C 
BRANCH  19  20
HETATM   20  C   UNL     1      44.426 -15.573   6.849  1.00  0.00     0.025 C 
HETATM   21  C   UNL     1      44.607 -14.062   6.814  1.00  0.00     0.007 C 
ENDBRANCH  19  20
BRANCH  19  22
HETATM   22  C   UNL     1      43.375 -16.494   4.753  1.00  0.00    -0.033 A 
HETATM   23  C   UNL     1      43.713 -17.830   4.509  1.00  0.00     0.028 A 
HETATM   24  C   UNL     1      43.959 -18.233   3.206  1.00  0.00     0.116 A 
HETATM   25  N   UNL     1      43.892 -17.409   2.139  1.00  0.00    -0.273 NA
HETATM   26  C   UNL     1      43.558 -16.126   2.388  1.00  0.00     0.116 A 
HETATM   27  C   UNL     1      43.298 -15.627   3.656  1.00  0.00     0.028 A 
ENDBRANCH  19  22
ENDBRANCH   1  19
TORSDOF 7
ENDMDL
MODEL 8
REMARK VINA RESULT:      -7.2      5.581      8.395
REMARK  7 active torsions:
REMARK  status: ('A' for Active; 'I' for Inactive)
REMARK    1  A    between atoms: C_2  and  C_3 
REMARK    2  A    between atoms: C_3  and  N_4 
REMARK    3  A    between atoms: C_3  and  C_20 
REMARK       I    between atoms: N_4  and  C_5 
REMARK       I    between atoms: C_5  and  N_6 
REMARK    4  A    between atoms: N_6  and  C_7 
REMARK    5  A    between atoms: C_7  and  C_8 
REMARK    6  A    between atoms: C_10  and  O_11 
REMARK    7  A    between atoms: O_11  and  C_12 
ROOT
HETATM    1  N   UNL     1      42.914 -18.266   4.371  1.00  0.00    -0.334 N 
HETATM    2  C   UNL     1      41.908 -17.606   4.996  1.00  0.00     0.316 C 
HETATM    3  N   UNL     1      41.081 -16.873   4.213  1.00  0.00    -0.339 N 
HETATM    4  O   UNL     1      41.719 -17.632   6.209  1.00  0.00    -0.247 OA
HETATM    5  H   UNL     1      43.089 -18.089   3.397  1.00  0.00     0.165 HD
HETATM    6  H   UNL     1      40.372 -16.390   4.749  1.00  0.00     0.164 HD
ENDROOT
BRANCH   3   7
HETATM    7  C   UNL     1      40.979 -16.815   2.772  1.00  0.00     0.163 C 
BRANCH   7   8
HETATM    8  C   UNL     1      41.386 -15.496   2.166  1.00  0.00    -0.035 A 
HETATM    9  C   UNL     1      41.127 -15.145   0.837  1.00  0.00     0.066 A 
HETATM   10  C   UNL     1      41.589 -13.923   0.367  1.00  0.00     0.164 A 
HETATM   11  N   UNL     1      42.262 -13.029   1.118  1.00  0.00    -0.237 NA
HETATM   12  C   UNL     1      42.491 -13.375   2.400  1.00  0.00     0.120 A 
HETATM   13  C   UNL     1      42.082 -14.576   2.960  1.00  0.00     0.028 A 
BRANCH  10  14
HETATM   14  O   UNL     1      41.336 -13.633  -0.960  1.00  0.00    -0.329 OA
BRANCH  14  15
HETATM   15  C   UNL     1      40.621 -14.646  -1.702  1.00  0.00     0.130 C 
HETATM   16  C   UNL     1      39.349 -14.185  -2.465  1.00  0.00     0.032 C 
HETATM   17  C   UNL     1      39.780 -15.106  -3.619  1.00  0.00     0.005 C 
HETATM   18  C   UNL     1      41.221 -14.981  -3.093  1.00  0.00     0.032 C 
ENDBRANCH  14  15
ENDBRANCH  10  14
ENDBRANCH   7   8
ENDBRANCH   3   7
BRANCH   1  19
HETATM   19  C   UNL     1      43.808 -19.173   5.075  1.00  0.00     0.119 C 
BRANCH  19  20
HETATM   20  C   UNL     1      45.107 -18.463   5.490  1.00  0.00     0.025 C 
HETATM   21  C   UNL     1      45.112 -18.081   6.965  1.00  0.00     0.007 C 
ENDBRANCH  19  20
BRANCH  19  22
HETATM   22  C   UNL     1      44.106 -20.386   4.210  1.00  0.00    -0.033 A 
HETATM   23  C   UNL     1      44.518 -21.586   4.803  1.00  0.00     0.028 A 
HETATM   24  C   UNL     1      44.800 -22.673   3.991  1.00  0.00     0.116 A 
HETATM   25  N   UNL     1      44.699 -22.653   2.645  1.00  0.00    -0.273 NA
HETATM   26  C   UNL     1      44.293 -21.492   2.088  1.00  0.00     0.116 A 
HETATM   27  C   UNL     1      43.993 -20.350   2.814  1.00  0.00     0.028 A 
ENDBRANCH  19  22
ENDBRANCH   1  19
TORSDOF 7
ENDMDL
MODEL 9
REMARK VINA RESULT:      -7.2      2.623      4.654
REMARK  7 active torsions:
REMARK  status: ('A' for Active; 'I' for Inactive)
REMARK    1  A    between atoms: C_2  and  C_3 
REMARK    2  A    between atoms: C_3  and  N_4 
REMARK    3  A    between atoms: C_3  and  C_20 
REMARK       I    between atoms: N_4  and  C_5 
REMARK       I    between atoms: C_5  and  N_6 
REMARK    4  A    between atoms: N_6  and  C_7 
REMARK    5  A    between atoms: C_7  and  C_8 
REMARK    6  A    between atoms: C_10  and  O_11 
REMARK    7  A    between atoms: O_11  and  C_12 
ROOT
HETATM    1  N   UNL     1      41.805 -15.804   2.797  1.00  0.00    -0.334 N 
HETATM    2  C   UNL     1      41.740 -14.454   2.690  1.00  0.00     0.316 C 
HETATM    3  N   UNL     1      41.257 -13.780   3.760  1.00  0.00    -0.339 N 
HETATM    4  O   UNL     1      42.083 -13.828   1.692  1.00  0.00    -0.247 OA
HETATM    5  H   UNL     1      41.381 -16.257   3.588  1.00  0.00     0.165 HD
HETATM    6  H   UNL     1      41.214 -12.782   3.600  1.00  0.00     0.164 HD
ENDROOT
BRANCH   3   7
HETATM    7  C   UNL     1      40.956 -14.252   5.094  1.00  0.00     0.163 C 
BRANCH   7   8
HETATM    8  C   UNL     1      42.163 -14.615   5.920  1.00  0.00    -0.035 A 
HETATM    9  C   UNL     1      43.240 -13.748   6.135  1.00  0.00     0.066 A 
HETATM   10  C   UNL     1      44.325 -14.201   6.872  1.00  0.00     0.164 A 
HETATM   11  N   UNL     1      44.407 -15.430   7.422  1.00  0.00    -0.237 NA
HETATM   12  C   UNL     1      43.356 -16.248   7.219  1.00  0.00     0.120 A 
HETATM   13  C   UNL     1      42.233 -15.894   6.487  1.00  0.00     0.028 A 
BRANCH  10  14
HETATM   14  O   UNL     1      45.378 -13.320   7.032  1.00  0.00    -0.329 OA
BRANCH  14  15
HETATM   15  C   UNL     1      45.598 -12.839   8.377  1.00  0.00     0.130 C 
HETATM   16  C   UNL     1      46.580 -11.646   8.539  1.00  0.00     0.032 C 
HETATM   17  C   UNL     1      45.617 -11.074   9.593  1.00  0.00     0.005 C 
HETATM   18  C   UNL     1      44.499 -11.886   8.916  1.00  0.00     0.032 C 
ENDBRANCH  14  15
ENDBRANCH  10  14
ENDBRANCH   7   8
ENDBRANCH   3   7
BRANCH   1  19
HETATM   19  C   UNL     1      42.403 -16.641   1.768  1.00  0.00     0.119 C 
BRANCH  19  20
HETATM   20  C   UNL     1      41.345 -17.125   0.761  1.00  0.00     0.025 C 
HETATM   21  C   UNL     1      41.339 -16.296  -0.516  1.00  0.00     0.007 C 
ENDBRANCH  19  20
BRANCH  19  22
HETATM   22  C   UNL     1      43.123 -17.818   2.406  1.00  0.00    -0.033 A 
HETATM   23  C   UNL     1      43.230 -19.031   1.716  1.00  0.00     0.028 A 
HETATM   24  C   UNL     1      43.878 -20.094   2.326  1.00  0.00     0.116 A 
HETATM   25  N   UNL     1      44.423 -20.036   3.559  1.00  0.00    -0.273 NA
HETATM   26  C   UNL     1      44.319 -18.857   4.208  1.00  0.00     0.116 A 
HETATM   27  C   UNL     1      43.687 -17.739   3.685  1.00  0.00     0.028 A 
ENDBRANCH  19  22
ENDBRANCH   1  19
TORSDOF 7
ENDMDL
MODEL 10
REMARK VINA RESULT:      -7.2      4.429      6.756
REMARK  7 active torsions:
REMARK  status: ('A' for Active; 'I' for Inactive)
REMARK    1  A    between atoms: C_2  and  C_3 
REMARK    2  A    between atoms: C_3  and  N_4 
REMARK    3  A    between atoms: C_3  and  C_20 
REMARK       I    between atoms: N_4  and  C_5 
REMARK       I    between atoms: C_5  and  N_6 
REMARK    4  A    between atoms: N_6  and  C_7 
REMARK    5  A    between atoms: C_7  and  C_8 
REMARK    6  A    between atoms: C_10  and  O_11 
REMARK    7  A    between atoms: O_11  and  C_12 
ROOT
HETATM    1  N   UNL     1      43.280 -18.407   2.243  1.00  0.00    -0.334 N 
HETATM    2  C   UNL     1      43.656 -17.468   1.340  1.00  0.00     0.316 C 
HETATM    3  N   UNL     1      42.671 -16.900   0.605  1.00  0.00    -0.339 N 
HETATM    4  O   UNL     1      44.819 -17.121   1.155  1.00  0.00    -0.247 OA
HETATM    5  H   UNL     1      42.330 -18.737   2.243  1.00  0.00     0.165 HD
HETATM    6  H   UNL     1      43.028 -16.229  -0.063  1.00  0.00     0.164 HD
ENDROOT
BRANCH   3   7
HETATM    7  C   UNL     1      41.235 -16.999   0.745  1.00  0.00     0.163 C 
BRANCH   7   8
HETATM    8  C   UNL     1      40.580 -15.792   1.366  1.00  0.00    -0.035 A 
HETATM    9  C   UNL     1      40.509 -15.577   2.747  1.00  0.00     0.066 A 
HETATM   10  C   UNL     1      39.839 -14.455   3.215  1.00  0.00     0.164 A 
HETATM   11  N   UNL     1      39.261 -13.532   2.419  1.00  0.00    -0.237 NA
HETATM   12  C   UNL     1      39.351 -13.745   1.092  1.00  0.00     0.120 A 
HETATM   13  C   UNL     1      39.986 -14.841   0.527  1.00  0.00     0.028 A 
BRANCH  10  14
HETATM   14  O   UNL     1      39.769 -14.301   4.586  1.00  0.00    -0.329 OA
BRANCH  14  15
HETATM   15  C   UNL     1      39.847 -12.943   5.073  1.00  0.00     0.130 C 
HETATM   16  C   UNL     1      39.435 -12.707   6.552  1.00  0.00     0.032 C 
HETATM   17  C   UNL     1      40.613 -11.723   6.659  1.00  0.00     0.005 C 
HETATM   18  C   UNL     1      41.267 -12.481   5.491  1.00  0.00     0.032 C 
ENDBRANCH  14  15
ENDBRANCH  10  14
ENDBRANCH   7   8
ENDBRANCH   3   7
BRANCH   1  19
HETATM   19  C   UNL     1      44.219 -19.018   3.171  1.00  0.00     0.119 C 
BRANCH  19  20
HETATM   20  C   UNL     1      44.285 -20.543   2.972  1.00  0.00     0.025 C 
HETATM   21  C   UNL     1      43.404 -21.015   1.823  1.00  0.00     0.007 C 
ENDBRANCH  19  20
BRANCH  19  22
HETATM   22  C   UNL     1      43.837 -18.675   4.601  1.00  0.00    -0.033 A 
HETATM   23  C   UNL     1      44.665 -19.065   5.660  1.00  0.00     0.028 A 
HETATM   24  C   UNL     1      44.286 -18.753   6.957  1.00  0.00     0.116 A 
HETATM   25  N   UNL     1      43.155 -18.087   7.271  1.00  0.00    -0.273 NA
HETATM   26  C   UNL     1      42.371 -17.711   6.238  1.00  0.00     0.116 A 
HETATM   27  C   UNL     1      42.661 -17.979   4.909  1.00  0.00     0.028 A 
ENDBRANCH  19  22
ENDBRANCH   1  19
TORSDOF 7
ENDMDL
