MODEL 1
REMARK VINA RESULT:      -7.4      0.000      0.000
REMARK  5 active torsions:
REMARK  status: ('A' for Active; 'I' for Inactive)
REMARK    1  A    between atoms: C_2  and  C_3 
REMARK    2  A    between atoms: C_3  and  N_4 
REMARK       I    between atoms: N_4  and  C_5 
REMARK    3  A    between atoms: C_5  and  C_6 
REMARK    4  A    between atoms: C_7  and  O_8 
REMARK    5  A    between atoms: O_8  and  C_9 
ROOT
HETATM    1  C   UNL     1      41.146 -14.963   1.017  1.00  0.00     0.121 C 
HETATM    2  C   UNL     1      41.126 -15.367  -0.421  1.00  0.00     0.091 C 
HETATM    3  N   UNL     1      41.127 -15.715  -1.530  1.00  0.00    -0.195 NA
HETATM    4  C   UNL     1      41.852 -13.592   1.094  1.00  0.00     0.055 C 
ENDROOT
BRANCH   1   5
HETATM    5  C   UNL     1      39.679 -14.889   1.573  1.00  0.00     0.020 C 
HETATM    6  C   UNL     1      38.754 -14.022   0.703  1.00  0.00     0.013 C 
HETATM    7  C   UNL     1      39.589 -14.410   3.031  1.00  0.00     0.013 C 
ENDBRANCH   1   5
BRANCH   1   8
HETATM    8  N   UNL     1      41.942 -15.972   1.757  1.00  0.00    -0.335 N 
HETATM    9  C   UNL     1      41.668 -17.319   1.790  1.00  0.00     0.257 C 
HETATM   10  O   UNL     1      40.706 -17.811   1.210  1.00  0.00    -0.267 OA
HETATM   11  H   UNL     1      42.759 -15.630   2.253  1.00  0.00     0.164 HD
BRANCH   9  12
HETATM   12  C   UNL     1      42.601 -18.212   2.536  1.00  0.00     0.085 A 
HETATM   13  C   UNL     1      42.794 -18.207   3.918  1.00  0.00     0.185 A 
HETATM   14  N   UNL     1      43.685 -19.016   4.552  1.00  0.00    -0.236 NA
HETATM   15  C   UNL     1      44.385 -19.886   3.796  1.00  0.00     0.119 A 
HETATM   16  C   UNL     1      44.249 -19.987   2.425  1.00  0.00     0.020 A 
HETATM   17  C   UNL     1      43.345 -19.138   1.791  1.00  0.00     0.023 A 
BRANCH  13  18
HETATM   18  O   UNL     1      42.075 -17.295   4.684  1.00  0.00    -0.291 OA
BRANCH  18  19
HETATM   19  C   UNL     1      42.774 -16.329   5.368  1.00  0.00     0.078 A 
HETATM   20  C   UNL     1      43.147 -16.624   6.681  1.00  0.00     0.039 A 
HETATM   21  C   UNL     1      43.907 -15.706   7.409  1.00  0.00     0.026 A 
HETATM   22  C   UNL     1      44.301 -14.506   6.816  1.00  0.00     0.034 A 
HETATM   23 CL   UNL     1      45.231 -13.373   7.716  1.00  0.00    -0.084 Cl
HETATM   24  C   UNL     1      43.952 -14.223   5.495  1.00  0.00     0.026 A 
HETATM   25  C   UNL     1      43.196 -15.142   4.764  1.00  0.00     0.039 A 
ENDBRANCH  18  19
ENDBRANCH  13  18
ENDBRANCH   9  12
ENDBRANCH   1   8
TORSDOF 5
ENDMDL
MODEL 2
REMARK VINA RESULT:      -7.3      2.625      4.674
REMARK  5 active torsions:
REMARK  status: ('A' for Active; 'I' for Inactive)
REMARK    1  A    between atoms: C_2  and  C_3 
REMARK    2  A    between atoms: C_3  and  N_4 
REMARK       I    between atoms: N_4  and  C_5 
REMARK    3  A    between atoms: C_5  and  C_6 
REMARK    4  A    between atoms: C_7  and  O_8 
REMARK    5  A    between atoms: O_8  and  C_9 
ROOT
HETATM    1  C   UNL     1      40.806 -14.487   1.837  1.00  0.00     0.121 C 
HETATM    2  C   UNL     1      40.580 -13.011   1.887  1.00  0.00     0.091 C 
HETATM    3  N   UNL     1      40.425 -11.861   1.958  1.00  0.00    -0.195 NA
HETATM    4  C   UNL     1      39.418 -15.157   1.761  1.00  0.00     0.055 C 
ENDROOT
BRANCH   1   5
HETATM    5  C   UNL     1      41.693 -14.850   0.593  1.00  0.00     0.020 C 
HETATM    6  C   UNL     1      41.608 -13.799  -0.528  1.00  0.00     0.013 C 
HETATM    7  C   UNL     1      41.396 -16.237   0.000  1.00  0.00     0.013 C 
ENDBRANCH   1   5
BRANCH   1   8
HETATM    8  N   UNL     1      41.477 -14.881   3.099  1.00  0.00    -0.335 N 
HETATM    9  C   UNL     1      42.726 -14.460   3.490  1.00  0.00     0.257 C 
HETATM   10  O   UNL     1      43.417 -13.715   2.803  1.00  0.00    -0.267 OA
HETATM   11  H   UNL     1      40.955 -15.493   3.718  1.00  0.00     0.164 HD
BRANCH   9  12
HETATM   12  C   UNL     1      43.239 -14.904   4.818  1.00  0.00     0.085 A 
HETATM   13  C   UNL     1      42.992 -16.145   5.407  1.00  0.00     0.185 A 
HETATM   14  N   UNL     1      43.450 -16.493   6.640  1.00  0.00    -0.236 NA
HETATM   15  C   UNL     1      44.209 -15.594   7.300  1.00  0.00     0.119 A 
HETATM   16  C   UNL     1      44.531 -14.350   6.794  1.00  0.00     0.020 A 
HETATM   17  C   UNL     1      44.037 -14.004   5.538  1.00  0.00     0.023 A 
BRANCH  13  18
HETATM   18  O   UNL     1      42.197 -17.057   4.721  1.00  0.00    -0.291 OA
BRANCH  18  19
HETATM   19  C   UNL     1      42.819 -18.069   4.029  1.00  0.00     0.078 A 
HETATM   20  C   UNL     1      43.686 -18.893   4.749  1.00  0.00     0.039 A 
HETATM   21  C   UNL     1      44.305 -19.972   4.115  1.00  0.00     0.026 A 
HETATM   22  C   UNL     1      44.042 -20.229   2.769  1.00  0.00     0.034 A 
HETATM   23 CL   UNL     1      44.809 -21.555   1.987  1.00  0.00    -0.084 Cl
HETATM   24  C   UNL     1      43.155 -19.423   2.056  1.00  0.00     0.026 A 
HETATM   25  C   UNL     1      42.531 -18.346   2.690  1.00  0.00     0.039 A 
ENDBRANCH  18  19
ENDBRANCH  13  18
ENDBRANCH   9  12
ENDBRANCH   1   8
TORSDOF 5
ENDMDL
MODEL 3
REMARK VINA RESULT:      -7.2      2.574      4.685
REMARK  5 active torsions:
REMARK  status: ('A' for Active; 'I' for Inactive)
REMARK    1  A    between atoms: C_2  and  C_3 
REMARK    2  A    between atoms: C_3  and  N_4 
REMARK       I    between atoms: N_4  and  C_5 
REMARK    3  A    between atoms: C_5  and  C_6 
REMARK    4  A    between atoms: C_7  and  O_8 
REMARK    5  A    between atoms: O_8  and  C_9 
ROOT
HETATM    1  C   UNL     1      41.242 -14.454   1.677  1.00  0.00     0.121 C 
HETATM    2  C   UNL     1      39.772 -14.714   1.629  1.00  0.00     0.091 C 
HETATM    3  N   UNL     1      38.629 -14.926   1.630  1.00  0.00    -0.195 NA
HETATM    4  C   UNL     1      41.892 -15.314   0.573  1.00  0.00     0.055 C 
ENDROOT
BRANCH   1   5
HETATM    5  C   UNL     1      41.521 -12.924   1.457  1.00  0.00     0.020 C 
HETATM    6  C   UNL     1      40.579 -12.022   2.272  1.00  0.00     0.013 C 
HETATM    7  C   UNL     1      41.478 -12.488  -0.017  1.00  0.00     0.013 C 
ENDBRANCH   1   5
BRANCH   1   8
HETATM    8  N   UNL     1      41.735 -14.896   3.003  1.00  0.00    -0.335 N 
HETATM    9  C   UNL     1      42.967 -14.586   3.529  1.00  0.00     0.257 C 
HETATM   10  O   UNL     1      43.793 -13.912   2.921  1.00  0.00    -0.267 OA
HETATM   11  H   UNL     1      41.095 -15.452   3.562  1.00  0.00     0.164 HD
BRANCH   9  12
HETATM   12  C   UNL     1      43.290 -15.062   4.904  1.00  0.00     0.085 A 
HETATM   13  C   UNL     1      42.895 -16.283   5.451  1.00  0.00     0.185 A 
HETATM   14  N   UNL     1      43.182 -16.660   6.726  1.00  0.00    -0.236 NA
HETATM   15  C   UNL     1      43.916 -15.814   7.477  1.00  0.00     0.119 A 
HETATM   16  C   UNL     1      44.378 -14.595   7.020  1.00  0.00     0.020 A 
HETATM   17  C   UNL     1      44.058 -14.217   5.718  1.00  0.00     0.023 A 
BRANCH  13  18
HETATM   18  O   UNL     1      42.125 -17.140   4.671  1.00  0.00    -0.291 OA
BRANCH  18  19
HETATM   19  C   UNL     1      42.750 -18.206   4.069  1.00  0.00     0.078 A 
HETATM   20  C   UNL     1      42.474 -18.425   2.718  1.00  0.00     0.039 A 
HETATM   21  C   UNL     1      43.119 -19.458   2.035  1.00  0.00     0.026 A 
HETATM   22  C   UNL     1      44.048 -20.255   2.703  1.00  0.00     0.034 A 
HETATM   23 CL   UNL     1      44.839 -21.532   1.864  1.00  0.00    -0.084 Cl
HETATM   24  C   UNL     1      44.346 -20.021   4.046  1.00  0.00     0.026 A 
HETATM   25  C   UNL     1      43.704 -18.985   4.729  1.00  0.00     0.039 A 
ENDBRANCH  18  19
ENDBRANCH  13  18
ENDBRANCH   9  12
ENDBRANCH   1   8
TORSDOF 5
ENDMDL
MODEL 4
REMARK VINA RESULT:      -7.1      3.085      4.930
REMARK  5 active torsions:
REMARK  status: ('A' for Active; 'I' for Inactive)
REMARK    1  A    between atoms: C_2  and  C_3 
REMARK    2  A    between atoms: C_3  and  N_4 
REMARK       I    between atoms: N_4  and  C_5 
REMARK    3  A    between atoms: C_5  and  C_6 
REMARK    4  A    between atoms: C_7  and  O_8 
REMARK    5  A    between atoms: O_8  and  C_9 
ROOT
HETATM    1  C   UNL     1      41.173 -14.636   3.445  1.00  0.00     0.121 C 
HETATM    2  C   UNL     1      42.009 -13.683   2.655  1.00  0.00     0.091 C 
HETATM    3  N   UNL     1      42.692 -12.957   2.058  1.00  0.00    -0.195 NA
HETATM    4  C   UNL     1      40.094 -13.801   4.168  1.00  0.00     0.055 C 
ENDROOT
BRANCH   1   5
HETATM    5  C   UNL     1      40.533 -15.705   2.489  1.00  0.00     0.020 C 
HETATM    6  C   UNL     1      41.407 -16.007   1.261  1.00  0.00     0.013 C 
HETATM    7  C   UNL     1      39.114 -15.348   2.017  1.00  0.00     0.013 C 
ENDBRANCH   1   5
BRANCH   1   8
HETATM    8  N   UNL     1      42.053 -15.282   4.448  1.00  0.00    -0.335 N 
HETATM    9  C   UNL     1      41.723 -16.397   5.182  1.00  0.00     0.257 C 
HETATM   10  O   UNL     1      40.636 -16.957   5.079  1.00  0.00    -0.267 OA
HETATM   11  H   UNL     1      42.972 -14.871   4.577  1.00  0.00     0.164 HD
BRANCH   9  12
HETATM   12  C   UNL     1      42.744 -16.960   6.112  1.00  0.00     0.085 A 
HETATM   13  C   UNL     1      43.991 -17.458   5.738  1.00  0.00     0.185 A 
HETATM   14  N   UNL     1      44.877 -17.998   6.619  1.00  0.00    -0.236 NA
HETATM   15  C   UNL     1      44.529 -18.014   7.922  1.00  0.00     0.119 A 
HETATM   16  C   UNL     1      43.329 -17.523   8.397  1.00  0.00     0.020 A 
HETATM   17  C   UNL     1      42.428 -16.991   7.478  1.00  0.00     0.023 A 
BRANCH  13  18
HETATM   18  O   UNL     1      44.332 -17.448   4.389  1.00  0.00    -0.291 OA
BRANCH  18  19
HETATM   19  C   UNL     1      44.197 -18.616   3.677  1.00  0.00     0.078 A 
HETATM   20  C   UNL     1      43.500 -18.548   2.469  1.00  0.00     0.039 A 
HETATM   21  C   UNL     1      43.376 -19.688   1.673  1.00  0.00     0.026 A 
HETATM   22  C   UNL     1      43.964 -20.886   2.083  1.00  0.00     0.034 A 
HETATM   23 CL   UNL     1      43.806 -22.292   1.105  1.00  0.00    -0.084 Cl
HETATM   24  C   UNL     1      44.683 -20.949   3.276  1.00  0.00     0.026 A 
HETATM   25  C   UNL     1      44.811 -19.808   4.071  1.00  0.00     0.039 A 
ENDBRANCH  18  19
ENDBRANCH  13  18
ENDBRANCH   9  12
ENDBRANCH   1   8
TORSDOF 5
ENDMDL
MODEL 5
REMARK VINA RESULT:      -6.8      2.558      5.721
REMARK  5 active torsions:
REMARK  status: ('A' for Active; 'I' for Inactive)
REMARK    1  A    between atoms: C_2  and  C_3 
REMARK    2  A    between atoms: C_3  and  N_4 
REMARK       I    between atoms: N_4  and  C_5 
REMARK    3  A    between atoms: C_5  and  C_6 
REMARK    4  A    between atoms: C_7  and  O_8 
REMARK    5  A    between atoms: O_8  and  C_9 
ROOT
HETATM    1  C   UNL     1      44.047 -18.476   5.948  1.00  0.00     0.121 C 
HETATM    2  C   UNL     1      43.198 -17.892   7.030  1.00  0.00     0.091 C 
HETATM    3  N   UNL     1      42.518 -17.419   7.845  1.00  0.00    -0.195 NA
HETATM    4  C   UNL     1      45.515 -18.152   6.298  1.00  0.00     0.055 C 
ENDROOT
BRANCH   1   5
HETATM    5  C   UNL     1      43.802 -20.025   5.855  1.00  0.00     0.020 C 
HETATM    6  C   UNL     1      43.739 -20.704   7.233  1.00  0.00     0.013 C 
HETATM    7  C   UNL     1      44.828 -20.765   4.980  1.00  0.00     0.013 C 
ENDBRANCH   1   5
BRANCH   1   8
HETATM    8  N   UNL     1      43.681 -17.805   4.678  1.00  0.00    -0.335 N 
HETATM    9  C   UNL     1      42.410 -17.746   4.157  1.00  0.00     0.257 C 
HETATM   10  O   UNL     1      41.447 -18.274   4.705  1.00  0.00    -0.267 OA
HETATM   11  H   UNL     1      44.432 -17.341   4.177  1.00  0.00     0.164 HD
BRANCH   9  12
HETATM   12  C   UNL     1      42.197 -16.983   2.894  1.00  0.00     0.085 A 
HETATM   13  C   UNL     1      42.494 -15.633   2.706  1.00  0.00     0.185 A 
HETATM   14  N   UNL     1      42.247 -14.967   1.545  1.00  0.00    -0.236 NA
HETATM   15  C   UNL     1      41.719 -15.671   0.522  1.00  0.00     0.119 A 
HETATM   16  C   UNL     1      41.414 -17.016   0.599  1.00  0.00     0.020 A 
HETATM   17  C   UNL     1      41.657 -17.676   1.802  1.00  0.00     0.023 A 
BRANCH  13  18
HETATM   18  O   UNL     1      43.024 -14.916   3.772  1.00  0.00    -0.291 OA
BRANCH  18  19
HETATM   19  C   UNL     1      42.190 -14.072   4.466  1.00  0.00     0.078 A 
HETATM   20  C   UNL     1      42.381 -12.700   4.288  1.00  0.00     0.039 A 
HETATM   21  C   UNL     1      41.530 -11.792   4.922  1.00  0.00     0.026 A 
HETATM   22  C   UNL     1      40.485 -12.262   5.717  1.00  0.00     0.034 A 
HETATM   23 CL   UNL     1      39.440 -11.143   6.503  1.00  0.00    -0.084 Cl
HETATM   24  C   UNL     1      40.276 -13.632   5.875  1.00  0.00     0.026 A 
HETATM   25  C   UNL     1      41.123 -14.542   5.238  1.00  0.00     0.039 A 
ENDBRANCH  18  19
ENDBRANCH  13  18
ENDBRANCH   9  12
ENDBRANCH   1   8
TORSDOF 5
ENDMDL
MODEL 6
REMARK VINA RESULT:      -6.7      2.550      4.547
REMARK  5 active torsions:
REMARK  status: ('A' for Active; 'I' for Inactive)
REMARK    1  A    between atoms: C_2  and  C_3 
REMARK    2  A    between atoms: C_3  and  N_4 
REMARK       I    between atoms: N_4  and  C_5 
REMARK    3  A    between atoms: C_5  and  C_6 
REMARK    4  A    between atoms: C_7  and  O_8 
REMARK    5  A    between atoms: O_8  and  C_9 
ROOT
HETATM    1  C   UNL     1      41.430 -15.497   1.439  1.00  0.00     0.121 C 
HETATM    2  C   UNL     1      41.713 -14.384   0.483  1.00  0.00     0.091 C 
HETATM    3  N   UNL     1      41.961 -13.506  -0.237  1.00  0.00    -0.195 NA
HETATM    4  C   UNL     1      39.939 -15.399   1.823  1.00  0.00     0.055 C 
ENDROOT
BRANCH   1   5
HETATM    5  C   UNL     1      41.765 -16.877   0.766  1.00  0.00     0.020 C 
HETATM    6  C   UNL     1      40.859 -18.017   1.260  1.00  0.00     0.013 C 
HETATM    7  C   UNL     1      43.234 -17.304   0.918  1.00  0.00     0.013 C 
ENDBRANCH   1   5
BRANCH   1   8
HETATM    8  N   UNL     1      42.267 -15.279   2.643  1.00  0.00    -0.335 N 
HETATM    9  C   UNL     1      41.868 -15.529   3.934  1.00  0.00     0.257 C 
HETATM   10  O   UNL     1      40.748 -15.949   4.210  1.00  0.00    -0.267 OA
HETATM   11  H   UNL     1      43.210 -14.939   2.484  1.00  0.00     0.164 HD
BRANCH   9  12
HETATM   12  C   UNL     1      42.850 -15.310   5.035  1.00  0.00     0.085 A 
HETATM   13  C   UNL     1      43.100 -16.194   6.084  1.00  0.00     0.185 A 
HETATM   14  N   UNL     1      43.980 -15.935   7.089  1.00  0.00    -0.236 NA
HETATM   15  C   UNL     1      44.664 -14.773   7.034  1.00  0.00     0.119 A 
HETATM   16  C   UNL     1      44.508 -13.843   6.025  1.00  0.00     0.020 A 
HETATM   17  C   UNL     1      43.589 -14.118   5.015  1.00  0.00     0.023 A 
BRANCH  13  18
HETATM   18  O   UNL     1      42.378 -17.382   6.136  1.00  0.00    -0.291 OA
BRANCH  18  19
HETATM   19  C   UNL     1      43.048 -18.559   5.906  1.00  0.00     0.078 A 
HETATM   20  C   UNL     1      43.610 -18.735   4.640  1.00  0.00     0.039 A 
HETATM   21  C   UNL     1      44.351 -19.886   4.362  1.00  0.00     0.026 A 
HETATM   22  C   UNL     1      44.537 -20.847   5.357  1.00  0.00     0.034 A 
HETATM   23 CL   UNL     1      45.444 -22.267   5.012  1.00  0.00    -0.084 Cl
HETATM   24  C   UNL     1      43.999 -20.660   6.630  1.00  0.00     0.026 A 
HETATM   25  C   UNL     1      43.261 -19.508   6.911  1.00  0.00     0.039 A 
ENDBRANCH  18  19
ENDBRANCH  13  18
ENDBRANCH   9  12
ENDBRANCH   1   8
TORSDOF 5
ENDMDL
MODEL 7
REMARK VINA RESULT:      -6.7      2.964      5.038
REMARK  5 active torsions:
REMARK  status: ('A' for Active; 'I' for Inactive)
REMARK    1  A    between atoms: C_2  and  C_3 
REMARK    2  A    between atoms: C_3  and  N_4 
REMARK       I    between atoms: N_4  and  C_5 
REMARK    3  A    between atoms: C_5  and  C_6 
REMARK    4  A    between atoms: C_7  and  O_8 
REMARK    5  A    between atoms: O_8  and  C_9 
ROOT
HETATM    1  C   UNL     1      41.237 -13.792  -0.651  1.00  0.00     0.121 C 
HETATM    2  C   UNL     1      39.944 -13.127  -0.994  1.00  0.00     0.091 C 
HETATM    3  N   UNL     1      38.935 -12.599  -1.224  1.00  0.00    -0.195 NA
HETATM    4  C   UNL     1      41.136 -15.256  -1.127  1.00  0.00     0.055 C 
ENDROOT
BRANCH   1   5
HETATM    5  C   UNL     1      42.426 -13.038  -1.347  1.00  0.00     0.020 C 
HETATM    6  C   UNL     1      42.528 -11.563  -0.925  1.00  0.00     0.013 C 
HETATM    7  C   UNL     1      42.399 -13.117  -2.883  1.00  0.00     0.013 C 
ENDBRANCH   1   5
BRANCH   1   8
HETATM    8  N   UNL     1      41.382 -13.760   0.824  1.00  0.00    -0.335 N 
HETATM    9  C   UNL     1      40.614 -14.483   1.706  1.00  0.00     0.257 C 
HETATM   10  O   UNL     1      39.708 -15.224   1.338  1.00  0.00    -0.267 OA
HETATM   11  H   UNL     1      42.121 -13.170   1.195  1.00  0.00     0.164 HD
BRANCH   9  12
HETATM   12  C   UNL     1      40.923 -14.383   3.161  1.00  0.00     0.085 A 
HETATM   13  C   UNL     1      42.148 -14.693   3.751  1.00  0.00     0.185 A 
HETATM   14  N   UNL     1      42.373 -14.623   5.091  1.00  0.00    -0.236 NA
HETATM   15  C   UNL     1      41.360 -14.197   5.872  1.00  0.00     0.119 A 
HETATM   16  C   UNL     1      40.118 -13.841   5.384  1.00  0.00     0.020 A 
HETATM   17  C   UNL     1      39.901 -13.937   4.011  1.00  0.00     0.023 A 
BRANCH  13  18
HETATM   18  O   UNL     1      43.181 -15.145   2.936  1.00  0.00    -0.291 OA
BRANCH  18  19
HETATM   19  C   UNL     1      43.285 -16.497   2.709  1.00  0.00     0.078 A 
HETATM   20  C   UNL     1      43.453 -16.909   1.386  1.00  0.00     0.039 A 
HETATM   21  C   UNL     1      43.620 -18.265   1.097  1.00  0.00     0.026 A 
HETATM   22  C   UNL     1      43.633 -19.198   2.133  1.00  0.00     0.034 A 
HETATM   23 CL   UNL     1      43.833 -20.869   1.776  1.00  0.00    -0.084 Cl
HETATM   24  C   UNL     1      43.493 -18.785   3.458  1.00  0.00     0.026 A 
HETATM   25  C   UNL     1      43.330 -17.429   3.750  1.00  0.00     0.039 A 
ENDBRANCH  18  19
ENDBRANCH  13  18
ENDBRANCH   9  12
ENDBRANCH   1   8
TORSDOF 5
ENDMDL
MODEL 8
REMARK VINA RESULT:      -6.6      2.810      5.393
REMARK  5 active torsions:
REMARK  status: ('A' for Active; 'I' for Inactive)
REMARK    1  A    between atoms: C_2  and  C_3 
REMARK    2  A    between atoms: C_3  and  N_4 
REMARK       I    between atoms: N_4  and  C_5 
REMARK    3  A    between atoms: C_5  and  C_6 
REMARK    4  A    between atoms: C_7  and  O_8 
REMARK    5  A    between atoms: O_8  and  C_9 
ROOT
HETATM    1  C   UNL     1      43.163 -16.087   6.667  1.00  0.00     0.121 C 
HETATM    2  C   UNL     1      44.280 -15.098   6.743  1.00  0.00     0.091 C 
HETATM    3  N   UNL     1      45.162 -14.341   6.766  1.00  0.00    -0.195 NA
HETATM    4  C   UNL     1      43.226 -16.941   7.951  1.00  0.00     0.055 C 
ENDROOT
BRANCH   1   5
HETATM    5  C   UNL     1      41.790 -15.334   6.540  1.00  0.00     0.020 C 
HETATM    6  C   UNL     1      40.648 -16.250   6.071  1.00  0.00     0.013 C 
HETATM    7  C   UNL     1      41.842 -14.095   5.631  1.00  0.00     0.013 C 
ENDBRANCH   1   5
BRANCH   1   8
HETATM    8  N   UNL     1      43.405 -16.949   5.486  1.00  0.00    -0.335 N 
HETATM    9  C   UNL     1      43.438 -18.324   5.509  1.00  0.00     0.257 C 
HETATM   10  O   UNL     1      43.284 -18.971   6.541  1.00  0.00    -0.267 OA
HETATM   11  H   UNL     1      43.533 -16.476   4.598  1.00  0.00     0.164 HD
BRANCH   9  12
HETATM   12  C   UNL     1      43.637 -19.049   4.222  1.00  0.00     0.085 A 
HETATM   13  C   UNL     1      42.861 -18.887   3.074  1.00  0.00     0.185 A 
HETATM   14  N   UNL     1      43.057 -19.600   1.932  1.00  0.00    -0.236 NA
HETATM   15  C   UNL     1      44.079 -20.479   1.912  1.00  0.00     0.119 A 
HETATM   16  C   UNL     1      44.921 -20.694   2.986  1.00  0.00     0.020 A 
HETATM   17  C   UNL     1      44.693 -19.969   4.153  1.00  0.00     0.023 A 
BRANCH  13  18
HETATM   18  O   UNL     1      41.801 -17.988   3.112  1.00  0.00    -0.291 OA
BRANCH  18  19
HETATM   19  C   UNL     1      41.741 -17.014   2.144  1.00  0.00     0.078 A 
HETATM   20  C   UNL     1      42.263 -15.761   2.468  1.00  0.00     0.039 A 
HETATM   21  C   UNL     1      42.282 -14.746   1.509  1.00  0.00     0.026 A 
HETATM   22  C   UNL     1      41.792 -14.996   0.227  1.00  0.00     0.034 A 
HETATM   23 CL   UNL     1      41.809 -13.744  -0.953  1.00  0.00    -0.084 Cl
HETATM   24  C   UNL     1      41.295 -16.256  -0.107  1.00  0.00     0.026 A 
HETATM   25  C   UNL     1      41.280 -17.273   0.850  1.00  0.00     0.039 A 
ENDBRANCH  18  19
ENDBRANCH  13  18
ENDBRANCH   9  12
ENDBRANCH   1   8
TORSDOF 5
ENDMDL
MODEL 9
REMARK VINA RESULT:      -6.5      1.857      5.315
REMARK  5 active torsions:
REMARK  status: ('A' for Active; 'I' for Inactive)
REMARK    1  A    between atoms: C_2  and  C_3 
REMARK    2  A    between atoms: C_3  and  N_4 
REMARK       I    between atoms: N_4  and  C_5 
REMARK    3  A    between atoms: C_5  and  C_6 
REMARK    4  A    between atoms: C_7  and  O_8 
REMARK    5  A    between atoms: O_8  and  C_9 
ROOT
HETATM    1  C   UNL     1      44.421 -20.111   4.641  1.00  0.00     0.121 C 
HETATM    2  C   UNL     1      43.960 -20.676   5.945  1.00  0.00     0.091 C 
HETATM    3  N   UNL     1      43.566 -21.100   6.953  1.00  0.00    -0.195 NA
HETATM    4  C   UNL     1      45.684 -19.273   4.930  1.00  0.00     0.055 C 
ENDROOT
BRANCH   1   5
HETATM    5  C   UNL     1      44.717 -21.275   3.629  1.00  0.00     0.020 C 
HETATM    6  C   UNL     1      43.757 -21.282   2.427  1.00  0.00     0.013 C 
HETATM    7  C   UNL     1      44.722 -22.672   4.271  1.00  0.00     0.013 C 
ENDBRANCH   1   5
BRANCH   1   8
HETATM    8  N   UNL     1      43.347 -19.227   4.129  1.00  0.00    -0.335 N 
HETATM    9  C   UNL     1      43.513 -18.267   3.159  1.00  0.00     0.257 C 
HETATM   10  O   UNL     1      44.598 -18.043   2.631  1.00  0.00    -0.267 OA
HETATM   11  H   UNL     1      42.420 -19.366   4.520  1.00  0.00     0.164 HD
BRANCH   9  12
HETATM   12  C   UNL     1      42.317 -17.496   2.713  1.00  0.00     0.085 A 
HETATM   13  C   UNL     1      41.399 -16.869   3.555  1.00  0.00     0.185 A 
HETATM   14  N   UNL     1      40.299 -16.207   3.103  1.00  0.00    -0.236 NA
HETATM   15  C   UNL     1      40.119 -16.134   1.769  1.00  0.00     0.119 A 
HETATM   16  C   UNL     1      40.983 -16.699   0.851  1.00  0.00     0.020 A 
HETATM   17  C   UNL     1      42.094 -17.388   1.333  1.00  0.00     0.023 A 
BRANCH  13  18
HETATM   18  O   UNL     1      41.589 -16.964   4.930  1.00  0.00    -0.291 OA
BRANCH  18  19
HETATM   19  C   UNL     1      42.445 -16.072   5.530  1.00  0.00     0.078 A 
HETATM   20  C   UNL     1      43.338 -16.585   6.473  1.00  0.00     0.039 A 
HETATM   21  C   UNL     1      44.271 -15.739   7.078  1.00  0.00     0.026 A 
HETATM   22  C   UNL     1      44.316 -14.391   6.723  1.00  0.00     0.034 A 
HETATM   23 CL   UNL     1      45.461 -13.348   7.473  1.00  0.00    -0.084 Cl
HETATM   24  C   UNL     1      43.443 -13.883   5.761  1.00  0.00     0.026 A 
HETATM   25  C   UNL     1      42.512 -14.728   5.153  1.00  0.00     0.039 A 
ENDBRANCH  18  19
ENDBRANCH  13  18
ENDBRANCH   9  12
ENDBRANCH   1   8
TORSDOF 5
ENDMDL
MODEL 10
REMARK VINA RESULT:      -6.4      2.910      5.207
REMARK  5 active torsions:
REMARK  status: ('A' for Active; 'I' for Inactive)
REMARK    1  A    between atoms: C_2  and  C_3 
REMARK    2  A    between atoms: C_3  and  N_4 
REMARK       I    between atoms: N_4  and  C_5 
REMARK    3  A    between atoms: C_5  and  C_6 
REMARK    4  A    between atoms: C_7  and  O_8 
REMARK    5  A    between atoms: O_8  and  C_9 
ROOT
HETATM    1  C   UNL     1      42.014 -14.010   4.994  1.00  0.00     0.121 C 
HETATM    2  C   UNL     1      43.116 -13.810   5.983  1.00  0.00     0.091 C 
HETATM    3  N   UNL     1      43.994 -13.682   6.733  1.00  0.00    -0.195 NA
HETATM    4  C   UNL     1      40.726 -14.286   5.799  1.00  0.00     0.055 C 
ENDROOT
BRANCH   1   5
HETATM    5  C   UNL     1      41.869 -12.734   4.089  1.00  0.00     0.020 C 
HETATM    6  C   UNL     1      40.431 -12.190   4.050  1.00  0.00     0.013 C 
HETATM    7  C   UNL     1      42.368 -12.933   2.649  1.00  0.00     0.013 C 
ENDBRANCH   1   5
BRANCH   1   8
HETATM    8  N   UNL     1      42.352 -15.201   4.178  1.00  0.00    -0.335 N 
HETATM    9  C   UNL     1      42.507 -16.475   4.673  1.00  0.00     0.257 C 
HETATM   10  O   UNL     1      42.393 -16.738   5.866  1.00  0.00    -0.267 OA
HETATM   11  H   UNL     1      42.454 -15.053   3.180  1.00  0.00     0.164 HD
BRANCH   9  12
HETATM   12  C   UNL     1      42.793 -17.577   3.710  1.00  0.00     0.085 A 
HETATM   13  C   UNL     1      41.932 -18.017   2.705  1.00  0.00     0.185 A 
HETATM   14  N   UNL     1      42.220 -19.055   1.874  1.00  0.00    -0.236 NA
HETATM   15  C   UNL     1      43.418 -19.657   2.019  1.00  0.00     0.119 A 
HETATM   16  C   UNL     1      44.351 -19.280   2.965  1.00  0.00     0.020 A 
HETATM   17  C   UNL     1      44.031 -18.228   3.820  1.00  0.00     0.023 A 
BRANCH  13  18
HETATM   18  O   UNL     1      40.694 -17.397   2.576  1.00  0.00    -0.291 OA
BRANCH  18  19
HETATM   19  C   UNL     1      40.577 -16.363   1.679  1.00  0.00     0.078 A 
HETATM   20  C   UNL     1      41.409 -16.394   0.558  1.00  0.00     0.039 A 
HETATM   21  C   UNL     1      41.299 -15.401  -0.417  1.00  0.00     0.026 A 
HETATM   22  C   UNL     1      40.347 -14.391  -0.273  1.00  0.00     0.034 A 
HETATM   23 CL   UNL     1      40.216 -13.164  -1.472  1.00  0.00    -0.084 Cl
HETATM   24  C   UNL     1      39.496 -14.373   0.832  1.00  0.00     0.026 A 
HETATM   25  C   UNL     1      39.602 -15.368   1.806  1.00  0.00     0.039 A 
ENDBRANCH  18  19
ENDBRANCH  13  18
ENDBRANCH   9  12
ENDBRANCH   1   8
TORSDOF 5
ENDMDL
