MODEL 1
REMARK VINA RESULT:      -8.6      0.000      0.000
REMARK  8 active torsions:
REMARK  status: ('A' for Active; 'I' for Inactive)
REMARK    1  A    between atoms: C_2  and  O_3 
REMARK    2  A    between atoms: O_3  and  C_4 
REMARK    3  A    between atoms: C_5  and  N_6 
REMARK       I    between atoms: N_9  and  C_10 
REMARK    4  A    between atoms: C_10  and  C_11 
REMARK    5  A    between atoms: C_14  and  C_15 
REMARK       I    between atoms: C_15  and  N_16 
REMARK    6  A    between atoms: N_16  and  C_17 
REMARK    7  A    between atoms: C_17  and  C_18 
REMARK    8  A    between atoms: N_23  and  C_24 
ROOT
HETATM    1  C   UNL     1      42.152 -14.536   5.285  1.00  0.00     0.098 A 
HETATM    2  C   UNL     1      42.877 -13.561   6.153  1.00  0.00     0.206 A 
HETATM    3  O   UNL     1      42.565 -12.371   6.190  1.00  0.00    -0.286 OA
HETATM    4  C   UNL     1      44.025 -14.069   6.958  1.00  0.00     0.098 A 
HETATM    5  C   UNL     1      44.402 -15.344   6.750  1.00  0.00     0.112 A 
HETATM    6  N   UNL     1      43.772 -16.245   5.893  1.00  0.00    -0.360 N 
HETATM    7  C   UNL     1      42.622 -15.793   5.255  1.00  0.00     0.112 A 
ENDROOT
BRANCH   1   8
HETATM    8  C   UNL     1      40.892 -14.150   4.596  1.00  0.00     0.259 C 
HETATM    9  N   UNL     1      40.920 -13.154   3.622  1.00  0.00    -0.346 N 
HETATM   10  C   UNL     1      42.060 -12.818   2.767  1.00  0.00     0.141 C 
HETATM   11  C   UNL     1      39.654 -12.805   2.972  1.00  0.00     0.141 C 
HETATM   12  C   UNL     1      41.982 -13.633   1.450  1.00  0.00     0.115 C 
HETATM   13  N   UNL     1      40.688 -13.380   0.750  1.00  0.00    -0.278 NA
HETATM   14  C   UNL     1      39.500 -13.567   1.640  1.00  0.00     0.115 C 
HETATM   15  O   UNL     1      39.846 -14.704   4.931  1.00  0.00    -0.267 OA
BRANCH  13  16
HETATM   16  C   UNL     1      40.605 -13.960  -0.545  1.00  0.00     0.044 A 
HETATM   17  C   UNL     1      41.108 -15.249  -0.846  1.00  0.00     0.090 A 
HETATM   18  C   UNL     1      40.973 -15.831  -2.116  1.00  0.00     0.038 A 
HETATM   19  C   UNL     1      40.390 -15.120  -3.155  1.00  0.00     0.003 A 
HETATM   20  C   UNL     1      39.937 -13.830  -2.918  1.00  0.00     0.002 A 
HETATM   21  C   UNL     1      40.044 -13.266  -1.639  1.00  0.00     0.026 A 
BRANCH  17  22
HETATM   22  O   UNL     1      41.761 -16.043   0.069  1.00  0.00    -0.350 OA
BRANCH  22  23
HETATM   23  C   UNL     1      40.909 -17.098   0.532  1.00  0.00     0.171 C 
HETATM   24  C   UNL     1      40.952 -17.080   2.050  1.00  0.00     0.034 C 
ENDBRANCH  22  23
ENDBRANCH  17  22
ENDBRANCH  13  16
ENDBRANCH   1   8
BRANCH   4  25
HETATM   25  C   UNL     1      44.786 -13.269   7.959  1.00  0.00     0.257 C 
HETATM   26  N   UNL     1      44.065 -12.842   9.045  1.00  0.00    -0.356 N 
HETATM   27  H   UNL     1      43.061 -13.020   9.064  1.00  0.00     0.162 HD
HETATM   28  O   UNL     1      45.984 -13.035   7.820  1.00  0.00    -0.267 OA
BRANCH  26  29
HETATM   29  C   UNL     1      44.665 -12.109  10.140  1.00  0.00     0.126 C 
BRANCH  29  30
HETATM   30  C   UNL     1      44.135 -10.674  10.258  1.00  0.00    -0.005 C 
HETATM   31  C   UNL     1      42.817 -10.500   9.501  1.00  0.00     0.011 C 
HETATM   32  C   UNL     1      43.943 -10.308  11.731  1.00  0.00     0.011 C 
ENDBRANCH  29  30
ENDBRANCH  26  29
ENDBRANCH   4  25
BRANCH   6  33
HETATM   33  C   UNL     1      44.485 -17.486   5.506  1.00  0.00     0.088 C 
HETATM   34  C   UNL     1      44.309 -18.684   6.444  1.00  0.00     0.026 C 
HETATM   35  C   UNL     1      44.553 -19.873   5.525  1.00  0.00     0.002 C 
HETATM   36  C   UNL     1      43.822 -19.483   4.250  1.00  0.00     0.002 C 
HETATM   37  C   UNL     1      44.032 -17.977   4.119  1.00  0.00     0.026 C 
ENDBRANCH   6  33
TORSDOF 8
ENDMDL
MODEL 2
REMARK VINA RESULT:      -8.6      2.560      7.835
REMARK  8 active torsions:
REMARK  status: ('A' for Active; 'I' for Inactive)
REMARK    1  A    between atoms: C_2  and  O_3 
REMARK    2  A    between atoms: O_3  and  C_4 
REMARK    3  A    between atoms: C_5  and  N_6 
REMARK       I    between atoms: N_9  and  C_10 
REMARK    4  A    between atoms: C_10  and  C_11 
REMARK    5  A    between atoms: C_14  and  C_15 
REMARK       I    between atoms: C_15  and  N_16 
REMARK    6  A    between atoms: N_16  and  C_17 
REMARK    7  A    between atoms: C_17  and  C_18 
REMARK    8  A    between atoms: N_23  and  C_24 
ROOT
HETATM    1  C   UNL     1      42.588 -13.191   5.404  1.00  0.00     0.098 A 
HETATM    2  C   UNL     1      42.468 -12.980   3.931  1.00  0.00     0.206 A 
HETATM    3  O   UNL     1      43.226 -13.532   3.135  1.00  0.00    -0.286 OA
HETATM    4  C   UNL     1      41.413 -12.042   3.448  1.00  0.00     0.098 A 
HETATM    5  C   UNL     1      40.725 -11.362   4.382  1.00  0.00     0.112 A 
HETATM    6  N   UNL     1      40.874 -11.502   5.761  1.00  0.00    -0.360 N 
HETATM    7  C   UNL     1      41.766 -12.479   6.191  1.00  0.00     0.112 A 
ENDROOT
BRANCH   1   8
HETATM    8  C   UNL     1      43.489 -14.240   5.951  1.00  0.00     0.259 C 
HETATM    9  N   UNL     1      42.962 -15.479   6.310  1.00  0.00    -0.346 N 
HETATM   10  C   UNL     1      41.783 -16.116   5.721  1.00  0.00     0.141 C 
HETATM   11  C   UNL     1      43.888 -16.479   6.847  1.00  0.00     0.141 C 
HETATM   12  C   UNL     1      42.216 -17.020   4.538  1.00  0.00     0.115 C 
HETATM   13  N   UNL     1      43.211 -18.038   4.989  1.00  0.00    -0.278 NA
HETATM   14  C   UNL     1      44.361 -17.434   5.732  1.00  0.00     0.115 C 
HETATM   15  O   UNL     1      44.680 -13.970   6.102  1.00  0.00    -0.267 OA
BRANCH  13  16
HETATM   16  C   UNL     1      43.534 -19.010   4.004  1.00  0.00     0.044 A 
HETATM   17  C   UNL     1      44.340 -20.142   4.274  1.00  0.00     0.090 A 
HETATM   18  C   UNL     1      44.608 -21.122   3.305  1.00  0.00     0.038 A 
HETATM   19  C   UNL     1      44.138 -20.974   2.008  1.00  0.00     0.003 A 
HETATM   20  C   UNL     1      43.392 -19.849   1.686  1.00  0.00     0.002 A 
HETATM   21  C   UNL     1      43.099 -18.889   2.666  1.00  0.00     0.026 A 
BRANCH  17  22
HETATM   22  O   UNL     1      44.923 -20.387   5.496  1.00  0.00    -0.350 OA
BRANCH  22  23
HETATM   23  C   UNL     1      44.330 -21.529   6.126  1.00  0.00     0.171 C 
HETATM   24  C   UNL     1      43.581 -21.032   7.350  1.00  0.00     0.034 C 
ENDBRANCH  22  23
ENDBRANCH  17  22
ENDBRANCH  13  16
ENDBRANCH   1   8
BRANCH   4  25
HETATM   25  C   UNL     1      41.076 -11.801   2.016  1.00  0.00     0.257 C 
HETATM   26  N   UNL     1      42.147 -11.685   1.168  1.00  0.00    -0.356 N 
HETATM   27  H   UNL     1      43.086 -11.688   1.566  1.00  0.00     0.162 HD
HETATM   28  O   UNL     1      39.910 -11.735   1.632  1.00  0.00    -0.267 OA
BRANCH  26  29
HETATM   29  C   UNL     1      41.995 -11.511  -0.261  1.00  0.00     0.126 C 
BRANCH  29  30
HETATM   30  C   UNL     1      42.129 -12.827  -1.039  1.00  0.00    -0.005 C 
HETATM   31  C   UNL     1      40.762 -13.453  -1.320  1.00  0.00     0.011 C 
HETATM   32  C   UNL     1      42.872 -12.582  -2.355  1.00  0.00     0.011 C 
ENDBRANCH  29  30
ENDBRANCH  26  29
ENDBRANCH   4  25
BRANCH   6  33
HETATM   33  C   UNL     1      40.310 -10.462   6.654  1.00  0.00     0.088 C 
HETATM   34  C   UNL     1      39.738 -10.955   7.986  1.00  0.00     0.026 C 
HETATM   35  C   UNL     1      39.861  -9.732   8.884  1.00  0.00     0.002 C 
HETATM   36  C   UNL     1      41.230  -9.175   8.526  1.00  0.00     0.002 C 
HETATM   37  C   UNL     1      41.374  -9.413   7.025  1.00  0.00     0.026 C 
ENDBRANCH   6  33
TORSDOF 8
ENDMDL
MODEL 3
REMARK VINA RESULT:      -8.5      2.426      8.025
REMARK  8 active torsions:
REMARK  status: ('A' for Active; 'I' for Inactive)
REMARK    1  A    between atoms: C_2  and  O_3 
REMARK    2  A    between atoms: O_3  and  C_4 
REMARK    3  A    between atoms: C_5  and  N_6 
REMARK       I    between atoms: N_9  and  C_10 
REMARK    4  A    between atoms: C_10  and  C_11 
REMARK    5  A    between atoms: C_14  and  C_15 
REMARK       I    between atoms: C_15  and  N_16 
REMARK    6  A    between atoms: N_16  and  C_17 
REMARK    7  A    between atoms: C_17  and  C_18 
REMARK    8  A    between atoms: N_23  and  C_24 
ROOT
HETATM    1  C   UNL     1      43.026 -13.622   5.427  1.00  0.00     0.098 A 
HETATM    2  C   UNL     1      43.098 -13.809   3.947  1.00  0.00     0.206 A 
HETATM    3  O   UNL     1      43.871 -14.617   3.434  1.00  0.00    -0.286 OA
HETATM    4  C   UNL     1      42.221 -12.955   3.097  1.00  0.00     0.098 A 
HETATM    5  C   UNL     1      41.516 -11.992   3.718  1.00  0.00     0.112 A 
HETATM    6  N   UNL     1      41.492 -11.765   5.094  1.00  0.00    -0.360 N 
HETATM    7  C   UNL     1      42.210 -12.659   5.882  1.00  0.00     0.112 A 
ENDROOT
BRANCH   1   8
HETATM    8  C   UNL     1      43.732 -14.554   6.346  1.00  0.00     0.259 C 
HETATM    9  N   UNL     1      43.074 -15.691   6.811  1.00  0.00    -0.346 N 
HETATM   10  C   UNL     1      42.012 -16.416   6.112  1.00  0.00     0.141 C 
HETATM   11  C   UNL     1      43.808 -16.578   7.716  1.00  0.00     0.141 C 
HETATM   12  C   UNL     1      42.633 -17.542   5.245  1.00  0.00     0.115 C 
HETATM   13  N   UNL     1      43.453 -18.463   6.087  1.00  0.00    -0.278 NA
HETATM   14  C   UNL     1      44.452 -17.740   6.934  1.00  0.00     0.115 C 
HETATM   15  O   UNL     1      44.878 -14.276   6.698  1.00  0.00    -0.267 OA
BRANCH  13  16
HETATM   16  C   UNL     1      43.922 -19.615   5.399  1.00  0.00     0.044 A 
HETATM   17  C   UNL     1      44.255 -19.609   4.023  1.00  0.00     0.090 A 
HETATM   18  C   UNL     1      44.767 -20.741   3.369  1.00  0.00     0.038 A 
HETATM   19  C   UNL     1      44.902 -21.943   4.049  1.00  0.00     0.003 A 
HETATM   20  C   UNL     1      44.532 -22.007   5.384  1.00  0.00     0.002 A 
HETATM   21  C   UNL     1      44.052 -20.866   6.042  1.00  0.00     0.026 A 
BRANCH  17  22
HETATM   22  O   UNL     1      44.116 -18.507   3.212  1.00  0.00    -0.350 OA
BRANCH  22  23
HETATM   23  C   UNL     1      43.689 -18.888   1.899  1.00  0.00     0.171 C 
HETATM   24  C   UNL     1      43.727 -17.642   1.031  1.00  0.00     0.034 C 
ENDBRANCH  22  23
ENDBRANCH  17  22
ENDBRANCH  13  16
ENDBRANCH   1   8
BRANCH   4  25
HETATM   25  C   UNL     1      42.077 -13.083   1.619  1.00  0.00     0.257 C 
HETATM   26  N   UNL     1      41.469 -14.232   1.182  1.00  0.00    -0.356 N 
HETATM   27  H   UNL     1      41.232 -14.949   1.868  1.00  0.00     0.162 HD
HETATM   28  O   UNL     1      42.462 -12.201   0.856  1.00  0.00    -0.267 OA
BRANCH  26  29
HETATM   29  C   UNL     1      41.195 -14.486  -0.216  1.00  0.00     0.126 C 
BRANCH  29  30
HETATM   30  C   UNL     1      39.749 -14.154  -0.611  1.00  0.00    -0.005 C 
HETATM   31  C   UNL     1      38.829 -14.127   0.611  1.00  0.00     0.011 C 
HETATM   32  C   UNL     1      39.701 -12.806  -1.332  1.00  0.00     0.011 C 
ENDBRANCH  29  30
ENDBRANCH  26  29
ENDBRANCH   4  25
BRANCH   6  33
HETATM   33  C   UNL     1      40.956 -10.479   5.601  1.00  0.00     0.088 C 
HETATM   34  C   UNL     1      41.496 -10.011   6.955  1.00  0.00     0.026 C 
HETATM   35  C   UNL     1      41.316  -8.501   6.890  1.00  0.00     0.002 C 
HETATM   36  C   UNL     1      41.743  -8.162   5.469  1.00  0.00     0.002 C 
HETATM   37  C   UNL     1      41.250  -9.330   4.620  1.00  0.00     0.026 C 
ENDBRANCH   6  33
TORSDOF 8
ENDMDL
MODEL 4
REMARK VINA RESULT:      -8.4      3.518      8.502
REMARK  8 active torsions:
REMARK  status: ('A' for Active; 'I' for Inactive)
REMARK    1  A    between atoms: C_2  and  O_3 
REMARK    2  A    between atoms: O_3  and  C_4 
REMARK    3  A    between atoms: C_5  and  N_6 
REMARK       I    between atoms: N_9  and  C_10 
REMARK    4  A    between atoms: C_10  and  C_11 
REMARK    5  A    between atoms: C_14  and  C_15 
REMARK       I    between atoms: C_15  and  N_16 
REMARK    6  A    between atoms: N_16  and  C_17 
REMARK    7  A    between atoms: C_17  and  C_18 
REMARK    8  A    between atoms: N_23  and  C_24 
ROOT
HETATM    1  C   UNL     1      41.019 -13.351   1.236  1.00  0.00     0.098 A 
HETATM    2  C   UNL     1      39.863 -12.436   1.471  1.00  0.00     0.206 A 
HETATM    3  O   UNL     1      39.531 -12.091   2.604  1.00  0.00    -0.286 OA
HETATM    4  C   UNL     1      39.092 -11.972   0.281  1.00  0.00     0.098 A 
HETATM    5  C   UNL     1      39.420 -12.510  -0.908  1.00  0.00     0.112 A 
HETATM    6  N   UNL     1      40.456 -13.416  -1.129  1.00  0.00    -0.360 N 
HETATM    7  C   UNL     1      41.249 -13.731  -0.031  1.00  0.00     0.112 A 
ENDROOT
BRANCH   1   8
HETATM    8  C   UNL     1      41.941 -13.711   2.345  1.00  0.00     0.259 C 
HETATM    9  N   UNL     1      41.557 -14.677   3.272  1.00  0.00    -0.346 N 
HETATM   10  C   UNL     1      40.645 -15.795   3.022  1.00  0.00     0.141 C 
HETATM   11  C   UNL     1      42.497 -14.996   4.349  1.00  0.00     0.141 C 
HETATM   12  C   UNL     1      41.456 -17.037   2.569  1.00  0.00     0.115 C 
HETATM   13  N   UNL     1      42.484 -17.396   3.590  1.00  0.00    -0.278 NA
HETATM   14  C   UNL     1      43.340 -16.234   3.985  1.00  0.00     0.115 C 
HETATM   15  O   UNL     1      43.016 -13.116   2.432  1.00  0.00    -0.267 OA
BRANCH  13  16
HETATM   16  C   UNL     1      43.158 -18.620   3.329  1.00  0.00     0.044 A 
HETATM   17  C   UNL     1      44.057 -19.216   4.247  1.00  0.00     0.090 A 
HETATM   18  C   UNL     1      44.676 -20.451   3.998  1.00  0.00     0.038 A 
HETATM   19  C   UNL     1      44.473 -21.107   2.793  1.00  0.00     0.003 A 
HETATM   20  C   UNL     1      43.645 -20.529   1.841  1.00  0.00     0.002 A 
HETATM   21  C   UNL     1      43.003 -19.311   2.108  1.00  0.00     0.026 A 
BRANCH  17  22
HETATM   22  O   UNL     1      44.398 -18.650   5.453  1.00  0.00    -0.350 OA
BRANCH  22  23
HETATM   23  C   UNL     1      43.729 -19.308   6.535  1.00  0.00     0.171 C 
HETATM   24  C   UNL     1      44.084 -18.560   7.809  1.00  0.00     0.034 C 
ENDBRANCH  22  23
ENDBRANCH  17  22
ENDBRANCH  13  16
ENDBRANCH   1   8
BRANCH   4  25
HETATM   25  C   UNL     1      37.988 -10.972   0.315  1.00  0.00     0.257 C 
HETATM   26  N   UNL     1      36.938 -11.278   1.143  1.00  0.00    -0.356 N 
HETATM   27  H   UNL     1      36.935 -12.185   1.610  1.00  0.00     0.162 HD
HETATM   28  O   UNL     1      38.039  -9.935  -0.342  1.00  0.00    -0.267 OA
BRANCH  26  29
HETATM   29  C   UNL     1      35.815 -10.387   1.340  1.00  0.00     0.126 C 
BRANCH  29  30
HETATM   30  C   UNL     1      34.507 -10.936   0.755  1.00  0.00    -0.005 C 
HETATM   31  C   UNL     1      33.293 -10.451   1.550  1.00  0.00     0.011 C 
HETATM   32  C   UNL     1      34.374 -10.517  -0.710  1.00  0.00     0.011 C 
ENDBRANCH  29  30
ENDBRANCH  26  29
ENDBRANCH   4  25
BRANCH   6  33
HETATM   33  C   UNL     1      40.485 -14.178  -2.401  1.00  0.00     0.088 C 
HETATM   34  C   UNL     1      40.679 -15.691  -2.277  1.00  0.00     0.026 C 
HETATM   35  C   UNL     1      40.035 -16.223  -3.550  1.00  0.00     0.002 C 
HETATM   36  C   UNL     1      38.776 -15.381  -3.680  1.00  0.00     0.002 C 
HETATM   37  C   UNL     1      39.176 -13.992  -3.190  1.00  0.00     0.026 C 
ENDBRANCH   6  33
TORSDOF 8
ENDMDL
MODEL 5
REMARK VINA RESULT:      -8.4      1.190      2.140
REMARK  8 active torsions:
REMARK  status: ('A' for Active; 'I' for Inactive)
REMARK    1  A    between atoms: C_2  and  O_3 
REMARK    2  A    between atoms: O_3  and  C_4 
REMARK    3  A    between atoms: C_5  and  N_6 
REMARK       I    between atoms: N_9  and  C_10 
REMARK    4  A    between atoms: C_10  and  C_11 
REMARK    5  A    between atoms: C_14  and  C_15 
REMARK       I    between atoms: C_15  and  N_16 
REMARK    6  A    between atoms: N_16  and  C_17 
REMARK    7  A    between atoms: C_17  and  C_18 
REMARK    8  A    between atoms: N_23  and  C_24 
ROOT
HETATM    1  C   UNL     1      42.026 -14.652   5.027  1.00  0.00     0.098 A 
HETATM    2  C   UNL     1      42.785 -13.693   5.884  1.00  0.00     0.206 A 
HETATM    3  O   UNL     1      42.475 -12.505   5.956  1.00  0.00    -0.286 OA
HETATM    4  C   UNL     1      43.965 -14.216   6.633  1.00  0.00     0.098 A 
HETATM    5  C   UNL     1      44.332 -15.486   6.387  1.00  0.00     0.112 A 
HETATM    6  N   UNL     1      43.670 -16.371   5.537  1.00  0.00    -0.360 N 
HETATM    7  C   UNL     1      42.495 -15.908   4.954  1.00  0.00     0.112 A 
ENDROOT
BRANCH   1   8
HETATM    8  C   UNL     1      40.741 -14.254   4.395  1.00  0.00     0.259 C 
HETATM    9  N   UNL     1      40.738 -13.281   3.397  1.00  0.00    -0.346 N 
HETATM   10  C   UNL     1      41.839 -12.991   2.476  1.00  0.00     0.141 C 
HETATM   11  C   UNL     1      39.448 -12.919   2.806  1.00  0.00     0.141 C 
HETATM   12  C   UNL     1      41.673 -13.835   1.185  1.00  0.00     0.115 C 
HETATM   13  N   UNL     1      40.350 -13.569   0.547  1.00  0.00    -0.278 NA
HETATM   14  C   UNL     1      39.207 -13.708   1.503  1.00  0.00     0.115 C 
HETATM   15  O   UNL     1      39.702 -14.776   4.797  1.00  0.00    -0.267 OA
BRANCH  13  16
HETATM   16  C   UNL     1      40.187 -14.177  -0.727  1.00  0.00     0.044 A 
HETATM   17  C   UNL     1      39.141 -13.834  -1.617  1.00  0.00     0.090 A 
HETATM   18  C   UNL     1      39.023 -14.405  -2.893  1.00  0.00     0.038 A 
HETATM   19  C   UNL     1      39.906 -15.392  -3.305  1.00  0.00     0.003 A 
HETATM   20  C   UNL     1      40.912 -15.800  -2.441  1.00  0.00     0.002 A 
HETATM   21  C   UNL     1      41.046 -15.203  -1.179  1.00  0.00     0.026 A 
BRANCH  17  22
HETATM   22  O   UNL     1      38.160 -12.916  -1.319  1.00  0.00    -0.350 OA
BRANCH  22  23
HETATM   23  C   UNL     1      38.445 -11.648  -1.920  1.00  0.00     0.171 C 
HETATM   24  C   UNL     1      37.144 -11.117  -2.496  1.00  0.00     0.034 C 
ENDBRANCH  22  23
ENDBRANCH  17  22
ENDBRANCH  13  16
ENDBRANCH   1   8
BRANCH   4  25
HETATM   25  C   UNL     1      44.764 -13.435   7.619  1.00  0.00     0.257 C 
HETATM   26  N   UNL     1      44.076 -12.991   8.719  1.00  0.00    -0.356 N 
HETATM   27  H   UNL     1      43.068 -13.145   8.758  1.00  0.00     0.162 HD
HETATM   28  O   UNL     1      45.964 -13.229   7.455  1.00  0.00    -0.267 OA
BRANCH  26  29
HETATM   29  C   UNL     1      44.715 -12.273   9.801  1.00  0.00     0.126 C 
BRANCH  29  30
HETATM   30  C   UNL     1      44.189 -10.840   9.959  1.00  0.00    -0.005 C 
HETATM   31  C   UNL     1      42.821 -10.670   9.295  1.00  0.00     0.011 C 
HETATM   32  C   UNL     1      44.098 -10.477  11.443  1.00  0.00     0.011 C 
ENDBRANCH  29  30
ENDBRANCH  26  29
ENDBRANCH   4  25
BRANCH   6  33
HETATM   33  C   UNL     1      44.366 -17.605   5.100  1.00  0.00     0.088 C 
HETATM   34  C   UNL     1      44.113 -18.857   5.943  1.00  0.00     0.026 C 
HETATM   35  C   UNL     1      44.368 -19.989   4.956  1.00  0.00     0.002 C 
HETATM   36  C   UNL     1      43.711 -19.490   3.679  1.00  0.00     0.002 C 
HETATM   37  C   UNL     1      43.969 -17.986   3.662  1.00  0.00     0.026 C 
ENDBRANCH   6  33
TORSDOF 8
ENDMDL
MODEL 6
REMARK VINA RESULT:      -8.4      1.637      2.570
REMARK  8 active torsions:
REMARK  status: ('A' for Active; 'I' for Inactive)
REMARK    1  A    between atoms: C_2  and  O_3 
REMARK    2  A    between atoms: O_3  and  C_4 
REMARK    3  A    between atoms: C_5  and  N_6 
REMARK       I    between atoms: N_9  and  C_10 
REMARK    4  A    between atoms: C_10  and  C_11 
REMARK    5  A    between atoms: C_14  and  C_15 
REMARK       I    between atoms: C_15  and  N_16 
REMARK    6  A    between atoms: N_16  and  C_17 
REMARK    7  A    between atoms: C_17  and  C_18 
REMARK    8  A    between atoms: N_23  and  C_24 
ROOT
HETATM    1  C   UNL     1      41.485 -14.410   4.122  1.00  0.00     0.098 A 
HETATM    2  C   UNL     1      42.386 -13.927   5.210  1.00  0.00     0.206 A 
HETATM    3  O   UNL     1      42.509 -12.729   5.465  1.00  0.00    -0.286 OA
HETATM    4  C   UNL     1      43.168 -14.946   5.967  1.00  0.00     0.098 A 
HETATM    5  C   UNL     1      43.097 -16.218   5.534  1.00  0.00     0.112 A 
HETATM    6  N   UNL     1      42.310 -16.670   4.476  1.00  0.00    -0.360 N 
HETATM    7  C   UNL     1      41.484 -15.728   3.870  1.00  0.00     0.112 A 
ENDROOT
BRANCH   1   8
HETATM    8  C   UNL     1      40.543 -13.479   3.446  1.00  0.00     0.259 C 
HETATM    9  N   UNL     1      40.943 -12.820   2.285  1.00  0.00    -0.346 N 
HETATM   10  C   UNL     1      41.919 -13.310   1.310  1.00  0.00     0.141 C 
HETATM   11  C   UNL     1      39.982 -11.910   1.656  1.00  0.00     0.141 C 
HETATM   12  C   UNL     1      41.189 -14.111   0.201  1.00  0.00     0.115 C 
HETATM   13  N   UNL     1      40.145 -13.270  -0.456  1.00  0.00    -0.278 NA
HETATM   14  C   UNL     1      39.217 -12.627   0.526  1.00  0.00     0.115 C 
HETATM   15  O   UNL     1      39.438 -13.292   3.953  1.00  0.00    -0.267 OA
BRANCH  13  16
HETATM   16  C   UNL     1      39.544 -13.875  -1.593  1.00  0.00     0.044 A 
HETATM   17  C   UNL     1      40.282 -14.285  -2.729  1.00  0.00     0.090 A 
HETATM   18  C   UNL     1      39.682 -14.928  -3.823  1.00  0.00     0.038 A 
HETATM   19  C   UNL     1      38.310 -15.126  -3.855  1.00  0.00     0.003 A 
HETATM   20  C   UNL     1      37.541 -14.687  -2.787  1.00  0.00     0.002 A 
HETATM   21  C   UNL     1      38.148 -14.074  -1.681  1.00  0.00     0.026 A 
BRANCH  17  22
HETATM   22  O   UNL     1      41.639 -14.099  -2.862  1.00  0.00    -0.350 OA
BRANCH  22  23
HETATM   23  C   UNL     1      41.925 -12.847  -3.497  1.00  0.00     0.171 C 
HETATM   24  C   UNL     1      42.767 -12.032  -2.531  1.00  0.00     0.034 C 
ENDBRANCH  22  23
ENDBRANCH  17  22
ENDBRANCH  13  16
ENDBRANCH   1   8
BRANCH   4  25
HETATM   25  C   UNL     1      44.023 -14.659   7.154  1.00  0.00     0.257 C 
HETATM   26  N   UNL     1      44.556 -13.397   7.207  1.00  0.00    -0.356 N 
HETATM   27  H   UNL     1      44.410 -12.773   6.413  1.00  0.00     0.162 HD
HETATM   28  O   UNL     1      44.210 -15.499   8.031  1.00  0.00    -0.267 OA
BRANCH  26  29
HETATM   29  C   UNL     1      45.357 -12.935   8.321  1.00  0.00     0.126 C 
BRANCH  29  30
HETATM   30  C   UNL     1      44.521 -12.260   9.416  1.00  0.00    -0.005 C 
HETATM   31  C   UNL     1      45.401 -11.464  10.381  1.00  0.00     0.011 C 
HETATM   32  C   UNL     1      43.475 -11.340   8.783  1.00  0.00     0.011 C 
ENDBRANCH  29  30
ENDBRANCH  26  29
ENDBRANCH   4  25
BRANCH   6  33
HETATM   33  C   UNL     1      42.585 -18.006   3.895  1.00  0.00     0.088 C 
HETATM   34  C   UNL     1      43.431 -18.025   2.618  1.00  0.00     0.026 C 
HETATM   35  C   UNL     1      44.064 -19.409   2.650  1.00  0.00     0.002 C 
HETATM   36  C   UNL     1      44.450 -19.581   4.111  1.00  0.00     0.002 C 
HETATM   37  C   UNL     1      43.331 -18.905   4.898  1.00  0.00     0.026 C 
ENDBRANCH   6  33
TORSDOF 8
ENDMDL
MODEL 7
REMARK VINA RESULT:      -8.2      1.913      5.722
REMARK  8 active torsions:
REMARK  status: ('A' for Active; 'I' for Inactive)
REMARK    1  A    between atoms: C_2  and  O_3 
REMARK    2  A    between atoms: O_3  and  C_4 
REMARK    3  A    between atoms: C_5  and  N_6 
REMARK       I    between atoms: N_9  and  C_10 
REMARK    4  A    between atoms: C_10  and  C_11 
REMARK    5  A    between atoms: C_14  and  C_15 
REMARK       I    between atoms: C_15  and  N_16 
REMARK    6  A    between atoms: N_16  and  C_17 
REMARK    7  A    between atoms: C_17  and  C_18 
REMARK    8  A    between atoms: N_23  and  C_24 
ROOT
HETATM    1  C   UNL     1      42.224 -14.612   5.428  1.00  0.00     0.098 A 
HETATM    2  C   UNL     1      42.561 -16.055   5.248  1.00  0.00     0.206 A 
HETATM    3  O   UNL     1      41.821 -16.820   4.630  1.00  0.00    -0.286 OA
HETATM    4  C   UNL     1      43.817 -16.558   5.875  1.00  0.00     0.098 A 
HETATM    5  C   UNL     1      44.495 -15.701   6.660  1.00  0.00     0.112 A 
HETATM    6  N   UNL     1      44.153 -14.368   6.888  1.00  0.00    -0.360 N 
HETATM    7  C   UNL     1      43.055 -13.881   6.187  1.00  0.00     0.112 A 
ENDROOT
BRANCH   1   8
HETATM    8  C   UNL     1      41.090 -13.998   4.687  1.00  0.00     0.259 C 
HETATM    9  N   UNL     1      41.346 -13.034   3.715  1.00  0.00    -0.346 N 
HETATM   10  C   UNL     1      42.562 -12.929   2.906  1.00  0.00     0.141 C 
HETATM   11  C   UNL     1      40.197 -12.456   3.013  1.00  0.00     0.141 C 
HETATM   12  C   UNL     1      42.382 -13.726   1.588  1.00  0.00     0.115 C 
HETATM   13  N   UNL     1      41.189 -13.236   0.835  1.00  0.00    -0.278 NA
HETATM   14  C   UNL     1      39.953 -13.186   1.677  1.00  0.00     0.115 C 
HETATM   15  O   UNL     1      39.944 -14.340   4.980  1.00  0.00    -0.267 OA
BRANCH  13  16
HETATM   16  C   UNL     1      41.049 -13.801  -0.461  1.00  0.00     0.044 A 
HETATM   17  C   UNL     1      40.901 -13.018  -1.631  1.00  0.00     0.090 A 
HETATM   18  C   UNL     1      40.816 -13.588  -2.911  1.00  0.00     0.038 A 
HETATM   19  C   UNL     1      40.807 -14.966  -3.066  1.00  0.00     0.003 A 
HETATM   20  C   UNL     1      40.892 -15.772  -1.940  1.00  0.00     0.002 A 
HETATM   21  C   UNL     1      41.010 -15.198  -0.666  1.00  0.00     0.026 A 
BRANCH  17  22
HETATM   22  O   UNL     1      40.834 -11.644  -1.623  1.00  0.00    -0.350 OA
BRANCH  22  23
HETATM   23  C   UNL     1      41.908 -11.074  -2.379  1.00  0.00     0.171 C 
HETATM   24  C   UNL     1      43.126 -11.029  -1.472  1.00  0.00     0.034 C 
ENDBRANCH  22  23
ENDBRANCH  17  22
ENDBRANCH  13  16
ENDBRANCH   1   8
BRANCH   4  25
HETATM   25  C   UNL     1      44.367 -17.933   5.704  1.00  0.00     0.257 C 
HETATM   26  N   UNL     1      44.011 -18.571   4.543  1.00  0.00    -0.356 N 
HETATM   27  H   UNL     1      43.345 -18.114   3.921  1.00  0.00     0.162 HD
HETATM   28  O   UNL     1      45.106 -18.439   6.545  1.00  0.00    -0.267 OA
BRANCH  26  29
HETATM   29  C   UNL     1      44.509 -19.884   4.192  1.00  0.00     0.126 C 
BRANCH  29  30
HETATM   30  C   UNL     1      44.443 -20.163   2.685  1.00  0.00    -0.005 C 
HETATM   31  C   UNL     1      44.296 -21.659   2.398  1.00  0.00     0.011 C 
HETATM   32  C   UNL     1      43.276 -19.395   2.062  1.00  0.00     0.011 C 
ENDBRANCH  29  30
ENDBRANCH  26  29
ENDBRANCH   4  25
BRANCH   6  33
HETATM   33  C   UNL     1      44.778 -13.651   8.025  1.00  0.00     0.088 C 
HETATM   34  C   UNL     1      46.022 -12.820   7.697  1.00  0.00     0.026 C 
HETATM   35  C   UNL     1      46.024 -11.763   8.792  1.00  0.00     0.002 C 
HETATM   36  C   UNL     1      44.557 -11.373   8.901  1.00  0.00     0.002 C 
HETATM   37  C   UNL     1      43.786 -12.670   8.676  1.00  0.00     0.026 C 
ENDBRANCH   6  33
TORSDOF 8
ENDMDL
MODEL 8
REMARK VINA RESULT:      -8.2      2.765      8.976
REMARK  8 active torsions:
REMARK  status: ('A' for Active; 'I' for Inactive)
REMARK    1  A    between atoms: C_2  and  O_3 
REMARK    2  A    between atoms: O_3  and  C_4 
REMARK    3  A    between atoms: C_5  and  N_6 
REMARK       I    between atoms: N_9  and  C_10 
REMARK    4  A    between atoms: C_10  and  C_11 
REMARK    5  A    between atoms: C_14  and  C_15 
REMARK       I    between atoms: C_15  and  N_16 
REMARK    6  A    between atoms: N_16  and  C_17 
REMARK    7  A    between atoms: C_17  and  C_18 
REMARK    8  A    between atoms: N_23  and  C_24 
ROOT
HETATM    1  C   UNL     1      42.096 -13.925   3.202  1.00  0.00     0.098 A 
HETATM    2  C   UNL     1      42.211 -14.712   1.938  1.00  0.00     0.206 A 
HETATM    3  O   UNL     1      43.112 -15.532   1.767  1.00  0.00    -0.286 OA
HETATM    4  C   UNL     1      41.211 -14.449   0.863  1.00  0.00     0.098 A 
HETATM    5  C   UNL     1      40.350 -13.434   1.063  1.00  0.00     0.112 A 
HETATM    6  N   UNL     1      40.277 -12.648   2.213  1.00  0.00    -0.360 N 
HETATM    7  C   UNL     1      41.127 -12.998   3.257  1.00  0.00     0.112 A 
ENDROOT
BRANCH   1   8
HETATM    8  C   UNL     1      42.938 -14.254   4.382  1.00  0.00     0.259 C 
HETATM    9  N   UNL     1      42.416 -15.052   5.397  1.00  0.00    -0.346 N 
HETATM   10  C   UNL     1      41.385 -16.078   5.241  1.00  0.00     0.141 C 
HETATM   11  C   UNL     1      43.283 -15.347   6.541  1.00  0.00     0.141 C 
HETATM   12  C   UNL     1      42.053 -17.451   4.967  1.00  0.00     0.115 C 
HETATM   13  N   UNL     1      43.003 -17.803   6.063  1.00  0.00    -0.278 NA
HETATM   14  C   UNL     1      43.982 -16.709   6.356  1.00  0.00     0.115 C 
HETATM   15  O   UNL     1      44.073 -13.781   4.443  1.00  0.00    -0.267 OA
BRANCH  13  16
HETATM   16  C   UNL     1      43.533 -19.118   5.972  1.00  0.00     0.044 A 
HETATM   17  C   UNL     1      44.238 -19.589   4.838  1.00  0.00     0.090 A 
HETATM   18  C   UNL     1      44.801 -20.873   4.783  1.00  0.00     0.038 A 
HETATM   19  C   UNL     1      44.625 -21.762   5.833  1.00  0.00     0.003 A 
HETATM   20  C   UNL     1      43.891 -21.361   6.940  1.00  0.00     0.002 A 
HETATM   21  C   UNL     1      43.358 -20.066   7.004  1.00  0.00     0.026 A 
BRANCH  17  22
HETATM   22  O   UNL     1      44.437 -18.839   3.702  1.00  0.00    -0.350 OA
BRANCH  22  23
HETATM   23  C   UNL     1      44.242 -19.631   2.524  1.00  0.00     0.171 C 
HETATM   24  C   UNL     1      42.957 -19.155   1.868  1.00  0.00     0.034 C 
ENDBRANCH  22  23
ENDBRANCH  17  22
ENDBRANCH  13  16
ENDBRANCH   1   8
BRANCH   4  25
HETATM   25  C   UNL     1      41.103 -15.216  -0.409  1.00  0.00     0.257 C 
HETATM   26  N   UNL     1      40.859 -14.468  -1.532  1.00  0.00    -0.356 N 
HETATM   27  H   UNL     1      40.688 -13.468  -1.424  1.00  0.00     0.162 HD
HETATM   28  O   UNL     1      41.247 -16.436  -0.439  1.00  0.00    -0.267 OA
BRANCH  26  29
HETATM   29  C   UNL     1      40.788 -15.049  -2.856  1.00  0.00     0.126 C 
BRANCH  29  30
HETATM   30  C   UNL     1      39.428 -14.827  -3.533  1.00  0.00    -0.005 C 
HETATM   31  C   UNL     1      38.910 -16.112  -4.181  1.00  0.00     0.011 C 
HETATM   32  C   UNL     1      38.414 -14.311  -2.510  1.00  0.00     0.011 C 
ENDBRANCH  29  30
ENDBRANCH  26  29
ENDBRANCH   4  25
BRANCH   6  33
HETATM   33  C   UNL     1      39.531 -11.369   2.162  1.00  0.00     0.088 C 
HETATM   34  C   UNL     1      38.069 -11.457   1.713  1.00  0.00     0.026 C 
HETATM   35  C   UNL     1      37.439 -10.232   2.362  1.00  0.00     0.002 C 
HETATM   36  C   UNL     1      38.063 -10.215   3.749  1.00  0.00     0.002 C 
HETATM   37  C   UNL     1      39.498 -10.689   3.543  1.00  0.00     0.026 C 
ENDBRANCH   6  33
TORSDOF 8
ENDMDL
MODEL 9
REMARK VINA RESULT:      -8.1      2.568      8.842
REMARK  8 active torsions:
REMARK  status: ('A' for Active; 'I' for Inactive)
REMARK    1  A    between atoms: C_2  and  O_3 
REMARK    2  A    between atoms: O_3  and  C_4 
REMARK    3  A    between atoms: C_5  and  N_6 
REMARK       I    between atoms: N_9  and  C_10 
REMARK    4  A    between atoms: C_10  and  C_11 
REMARK    5  A    between atoms: C_14  and  C_15 
REMARK       I    between atoms: C_15  and  N_16 
REMARK    6  A    between atoms: N_16  and  C_17 
REMARK    7  A    between atoms: C_17  and  C_18 
REMARK    8  A    between atoms: N_23  and  C_24 
ROOT
HETATM    1  C   UNL     1      40.802 -11.542   4.691  1.00  0.00     0.098 A 
HETATM    2  C   UNL     1      41.502 -12.751   5.215  1.00  0.00     0.206 A 
HETATM    3  O   UNL     1      42.351 -12.674   6.103  1.00  0.00    -0.286 OA
HETATM    4  C   UNL     1      41.165 -14.068   4.602  1.00  0.00     0.098 A 
HETATM    5  C   UNL     1      40.343 -14.056   3.538  1.00  0.00     0.112 A 
HETATM    6  N   UNL     1      39.734 -12.923   2.998  1.00  0.00    -0.360 N 
HETATM    7  C   UNL     1      39.953 -11.723   3.667  1.00  0.00     0.112 A 
ENDROOT
BRANCH   1   8
HETATM    8  C   UNL     1      40.949 -10.225   5.367  1.00  0.00     0.259 C 
HETATM    9  N   UNL     1      40.168  -9.935   6.483  1.00  0.00    -0.346 N 
HETATM   10  C   UNL     1      39.636 -10.910   7.437  1.00  0.00     0.141 C 
HETATM   11  C   UNL     1      40.346  -8.625   7.114  1.00  0.00     0.141 C 
HETATM   12  C   UNL     1      40.638 -11.097   8.605  1.00  0.00     0.115 C 
HETATM   13  N   UNL     1      40.922  -9.790   9.270  1.00  0.00    -0.278 NA
HETATM   14  C   UNL     1      41.325  -8.723   8.301  1.00  0.00     0.115 C 
HETATM   15  O   UNL     1      41.742  -9.409   4.897  1.00  0.00    -0.267 OA
BRANCH  13  16
HETATM   16  C   UNL     1      41.702  -9.898  10.453  1.00  0.00     0.044 A 
HETATM   17  C   UNL     1      43.071 -10.261  10.444  1.00  0.00     0.090 A 
HETATM   18  C   UNL     1      43.843 -10.313  11.615  1.00  0.00     0.038 A 
HETATM   19  C   UNL     1      43.260 -10.069  12.850  1.00  0.00     0.003 A 
HETATM   20  C   UNL     1      41.908  -9.766  12.910  1.00  0.00     0.002 A 
HETATM   21  C   UNL     1      41.148  -9.684  11.734  1.00  0.00     0.026 A 
BRANCH  17  22
HETATM   22  O   UNL     1      43.763 -10.587   9.301  1.00  0.00    -0.350 OA
BRANCH  22  23
HETATM   23  C   UNL     1      45.112 -10.961   9.607  1.00  0.00     0.171 C 
HETATM   24  C   UNL     1      45.417 -12.231   8.831  1.00  0.00     0.034 C 
ENDBRANCH  22  23
ENDBRANCH  17  22
ENDBRANCH  13  16
ENDBRANCH   1   8
BRANCH   4  25
HETATM   25  C   UNL     1      41.677 -15.386   5.075  1.00  0.00     0.257 C 
HETATM   26  N   UNL     1      42.023 -15.445   6.400  1.00  0.00    -0.356 N 
HETATM   27  H   UNL     1      41.991 -14.587   6.951  1.00  0.00     0.162 HD
HETATM   28  O   UNL     1      41.756 -16.353   4.321  1.00  0.00    -0.267 OA
BRANCH  26  29
HETATM   29  C   UNL     1      42.478 -16.665   7.034  1.00  0.00     0.126 C 
BRANCH  29  30
HETATM   30  C   UNL     1      43.990 -16.672   7.298  1.00  0.00    -0.005 C 
HETATM   31  C   UNL     1      44.691 -17.776   6.504  1.00  0.00     0.011 C 
HETATM   32  C   UNL     1      44.589 -15.310   6.940  1.00  0.00     0.011 C 
ENDBRANCH  29  30
ENDBRANCH  26  29
ENDBRANCH   4  25
BRANCH   6  33
HETATM   33  C   UNL     1      39.141 -13.004   1.642  1.00  0.00     0.088 C 
HETATM   34  C   UNL     1      38.359 -14.281   1.322  1.00  0.00     0.026 C 
HETATM   35  C   UNL     1      37.389 -13.825   0.241  1.00  0.00     0.002 C 
HETATM   36  C   UNL     1      36.926 -12.465   0.741  1.00  0.00     0.002 C 
HETATM   37  C   UNL     1      38.158 -11.846   1.396  1.00  0.00     0.026 C 
ENDBRANCH   6  33
TORSDOF 8
ENDMDL
MODEL 10
REMARK VINA RESULT:      -8.0      1.514      5.325
REMARK  8 active torsions:
REMARK  status: ('A' for Active; 'I' for Inactive)
REMARK    1  A    between atoms: C_2  and  O_3 
REMARK    2  A    between atoms: O_3  and  C_4 
REMARK    3  A    between atoms: C_5  and  N_6 
REMARK       I    between atoms: N_9  and  C_10 
REMARK    4  A    between atoms: C_10  and  C_11 
REMARK    5  A    between atoms: C_14  and  C_15 
REMARK       I    between atoms: C_15  and  N_16 
REMARK    6  A    between atoms: N_16  and  C_17 
REMARK    7  A    between atoms: C_17  and  C_18 
REMARK    8  A    between atoms: N_23  and  C_24 
ROOT
HETATM    1  C   UNL     1      42.282 -14.354   5.689  1.00  0.00     0.098 A 
HETATM    2  C   UNL     1      42.584 -15.805   5.504  1.00  0.00     0.206 A 
HETATM    3  O   UNL     1      41.807 -16.557   4.919  1.00  0.00    -0.286 OA
HETATM    4  C   UNL     1      43.853 -16.328   6.086  1.00  0.00     0.098 A 
HETATM    5  C   UNL     1      44.576 -15.481   6.841  1.00  0.00     0.112 A 
HETATM    6  N   UNL     1      44.270 -14.141   7.074  1.00  0.00    -0.360 N 
HETATM    7  C   UNL     1      43.155 -13.636   6.412  1.00  0.00     0.112 A 
ENDROOT
BRANCH   1   8
HETATM    8  C   UNL     1      41.133 -13.722   4.988  1.00  0.00     0.259 C 
HETATM    9  N   UNL     1      41.371 -12.802   3.969  1.00  0.00    -0.346 N 
HETATM   10  C   UNL     1      42.544 -12.774   3.093  1.00  0.00     0.141 C 
HETATM   11  C   UNL     1      40.208 -12.203   3.310  1.00  0.00     0.141 C 
HETATM   12  C   UNL     1      42.262 -13.607   1.817  1.00  0.00     0.115 C 
HETATM   13  N   UNL     1      41.048 -13.097   1.112  1.00  0.00    -0.278 NA
HETATM   14  C   UNL     1      39.863 -12.968   2.016  1.00  0.00     0.115 C 
HETATM   15  O   UNL     1      39.993 -14.008   5.354  1.00  0.00    -0.267 OA
BRANCH  13  16
HETATM   16  C   UNL     1      40.816 -13.700  -0.154  1.00  0.00     0.044 A 
HETATM   17  C   UNL     1      41.215 -15.023  -0.463  1.00  0.00     0.090 A 
HETATM   18  C   UNL     1      40.932 -15.624  -1.700  1.00  0.00     0.038 A 
HETATM   19  C   UNL     1      40.299 -14.903  -2.701  1.00  0.00     0.003 A 
HETATM   20  C   UNL     1      39.942 -13.584  -2.460  1.00  0.00     0.002 A 
HETATM   21  C   UNL     1      40.197 -12.998  -1.212  1.00  0.00     0.026 A 
BRANCH  17  22
HETATM   22  O   UNL     1      41.903 -15.833   0.410  1.00  0.00    -0.350 OA
BRANCH  22  23
HETATM   23  C   UNL     1      41.182 -17.045   0.660  1.00  0.00     0.171 C 
HETATM   24  C   UNL     1      40.317 -16.813   1.887  1.00  0.00     0.034 C 
ENDBRANCH  22  23
ENDBRANCH  17  22
ENDBRANCH  13  16
ENDBRANCH   1   8
BRANCH   4  25
HETATM   25  C   UNL     1      44.369 -17.714   5.901  1.00  0.00     0.257 C 
HETATM   26  N   UNL     1      44.080 -18.297   4.694  1.00  0.00    -0.356 N 
HETATM   27  H   UNL     1      43.476 -17.795   4.043  1.00  0.00     0.162 HD
HETATM   28  O   UNL     1      45.028 -18.277   6.773  1.00  0.00    -0.267 OA
BRANCH  26  29
HETATM   29  C   UNL     1      44.559 -19.613   4.329  1.00  0.00     0.126 C 
BRANCH  29  30
HETATM   30  C   UNL     1      43.894 -20.158   3.058  1.00  0.00    -0.005 C 
HETATM   31  C   UNL     1      43.866 -19.108   1.946  1.00  0.00     0.011 C 
HETATM   32  C   UNL     1      44.632 -21.409   2.577  1.00  0.00     0.011 C 
ENDBRANCH  29  30
ENDBRANCH  26  29
ENDBRANCH   4  25
BRANCH   6  33
HETATM   33  C   UNL     1      44.951 -13.431   8.183  1.00  0.00     0.088 C 
HETATM   34  C   UNL     1      46.157 -12.572   7.794  1.00  0.00     0.026 C 
HETATM   35  C   UNL     1      46.207 -11.533   8.905  1.00  0.00     0.002 C 
HETATM   36  C   UNL     1      44.744 -11.172   9.110  1.00  0.00     0.002 C 
HETATM   37  C   UNL     1      43.983 -12.480   8.910  1.00  0.00     0.026 C 
ENDBRANCH   6  33
TORSDOF 8
ENDMDL
