MODEL 1
REMARK VINA RESULT:      -8.9      0.000      0.000
REMARK  2 active torsions:
REMARK  status: ('A' for Active; 'I' for Inactive)
REMARK    1  A    between atoms: O_2  and  C_3 
REMARK    2  A    between atoms: C_5  and  N_6 
REMARK       I    between atoms: N_6  and  C_7 
REMARK       I    between atoms: C_7  and  N_8 
ROOT
HETATM    1  N   UNL     1      43.999 -14.176   7.820  1.00  0.00    -0.307 N 
HETATM    2  C   UNL     1      43.243 -14.173   6.672  1.00  0.00     0.323 C 
HETATM    3  N   UNL     1      42.794 -15.427   6.269  1.00  0.00    -0.328 N 
HETATM    4  C   UNL     1      43.299 -16.716   6.778  1.00  0.00     0.185 C 
HETATM    5  C   UNL     1      43.524 -17.632   5.624  1.00  0.00     0.035 A 
HETATM    6  C   UNL     1      43.166 -17.414   4.307  1.00  0.00    -0.020 A 
HETATM    7  C   UNL     1      42.482 -16.154   3.897  1.00  0.00     0.061 C 
HETATM    8  C   UNL     1      41.844 -15.500   5.139  1.00  0.00     0.132 C 
HETATM    9  N   UNL     1      44.131 -18.855   5.699  1.00  0.00    -0.357 N 
HETATM   10  H   UNL     1      44.501 -19.283   6.536  1.00  0.00     0.166 HD
HETATM   11  C   UNL     1      44.179 -19.431   4.447  1.00  0.00     0.043 A 
HETATM   12  C   UNL     1      43.580 -18.541   3.551  1.00  0.00    -0.001 A 
HETATM   13  C   UNL     1      44.709 -20.663   4.045  1.00  0.00     0.030 A 
HETATM   14  C   UNL     1      44.626 -20.993   2.688  1.00  0.00     0.002 A 
HETATM   15  C   UNL     1      44.037 -20.123   1.773  1.00  0.00     0.001 A 
HETATM   16  C   UNL     1      43.510 -18.896   2.189  1.00  0.00     0.014 A 
HETATM   17  O   UNL     1      42.956 -13.158   6.042  1.00  0.00    -0.247 OA
HETATM   18  H   UNL     1      43.890 -14.973   8.430  1.00  0.00     0.170 HD
ENDROOT
BRANCH   1  19
HETATM   19  C   UNL     1      44.732 -13.109   8.394  1.00  0.00     0.060 A 
HETATM   20  C   UNL     1      44.308 -12.409   9.531  1.00  0.00     0.068 A 
HETATM   21  C   UNL     1      45.072 -11.357  10.049  1.00  0.00     0.070 A 
HETATM   22  C   UNL     1      46.257 -10.984   9.411  1.00  0.00     0.038 A 
HETATM   23  C   UNL     1      46.689 -11.658   8.272  1.00  0.00     0.029 A 
HETATM   24  C   UNL     1      45.931 -12.715   7.768  1.00  0.00     0.061 A 
HETATM   25 CL   UNL     1      46.503 -13.526   6.347  1.00  0.00    -0.082 Cl
BRANCH  21  26
HETATM   26  O   UNL     1      44.766 -10.614  11.156  1.00  0.00    -0.356 OA
HETATM   27  C   UNL     1      43.593 -10.983  11.873  1.00  0.00     0.210 C 
ENDBRANCH  21  26
ENDBRANCH   1  19
TORSDOF 2
ENDMDL
MODEL 2
REMARK VINA RESULT:      -8.5      4.852      7.586
REMARK  2 active torsions:
REMARK  status: ('A' for Active; 'I' for Inactive)
REMARK    1  A    between atoms: O_2  and  C_3 
REMARK    2  A    between atoms: C_5  and  N_6 
REMARK       I    between atoms: N_6  and  C_7 
REMARK       I    between atoms: C_7  and  N_8 
ROOT
HETATM    1  N   UNL     1      42.128 -17.363   3.595  1.00  0.00    -0.307 N 
HETATM    2  C   UNL     1      42.249 -15.994   3.643  1.00  0.00     0.323 C 
HETATM    3  N   UNL     1      41.468 -15.310   2.717  1.00  0.00    -0.328 N 
HETATM    4  C   UNL     1      40.797 -15.919   1.554  1.00  0.00     0.185 C 
HETATM    5  C   UNL     1      41.030 -15.057   0.360  1.00  0.00     0.035 A 
HETATM    6  C   UNL     1      41.615 -13.806   0.340  1.00  0.00    -0.020 A 
HETATM    7  C   UNL     1      42.104 -13.167   1.596  1.00  0.00     0.061 C 
HETATM    8  C   UNL     1      41.414 -13.836   2.802  1.00  0.00     0.132 C 
HETATM    9  N   UNL     1      40.689 -15.384  -0.923  1.00  0.00    -0.357 N 
HETATM   10  H   UNL     1      40.245 -16.242  -1.219  1.00  0.00     0.166 HD
HETATM   11  C   UNL     1      41.052 -14.364  -1.778  1.00  0.00     0.043 A 
HETATM   12  C   UNL     1      41.642 -13.358  -1.006  1.00  0.00    -0.001 A 
HETATM   13  C   UNL     1      40.907 -14.262  -3.167  1.00  0.00     0.030 A 
HETATM   14  C   UNL     1      41.380 -13.099  -3.784  1.00  0.00     0.002 A 
HETATM   15  C   UNL     1      41.974 -12.082  -3.040  1.00  0.00     0.001 A 
HETATM   16  C   UNL     1      42.111 -12.198  -1.652  1.00  0.00     0.014 A 
HETATM   17  O   UNL     1      42.969 -15.397   4.439  1.00  0.00    -0.247 OA
HETATM   18  H   UNL     1      41.290 -17.727   3.168  1.00  0.00     0.170 HD
ENDROOT
BRANCH   1  19
HETATM   19  C   UNL     1      42.896 -18.339   4.277  1.00  0.00     0.060 A 
HETATM   20  C   UNL     1      42.869 -18.505   5.667  1.00  0.00     0.068 A 
HETATM   21  C   UNL     1      43.657 -19.482   6.286  1.00  0.00     0.070 A 
HETATM   22  C   UNL     1      44.498 -20.284   5.512  1.00  0.00     0.038 A 
HETATM   23  C   UNL     1      44.549 -20.126   4.129  1.00  0.00     0.029 A 
HETATM   24  C   UNL     1      43.751 -19.160   3.516  1.00  0.00     0.061 A 
HETATM   25 CL   UNL     1      43.847 -18.993   1.794  1.00  0.00    -0.082 Cl
BRANCH  21  26
HETATM   26  O   UNL     1      43.703 -19.744   7.628  1.00  0.00    -0.356 OA
HETATM   27  C   UNL     1      44.327 -18.765   8.451  1.00  0.00     0.210 C 
ENDBRANCH  21  26
ENDBRANCH   1  19
TORSDOF 2
ENDMDL
MODEL 3
REMARK VINA RESULT:      -8.1      4.183      6.338
REMARK  2 active torsions:
REMARK  status: ('A' for Active; 'I' for Inactive)
REMARK    1  A    between atoms: O_2  and  C_3 
REMARK    2  A    between atoms: C_5  and  N_6 
REMARK       I    between atoms: N_6  and  C_7 
REMARK       I    between atoms: C_7  and  N_8 
ROOT
HETATM    1  N   UNL     1      41.115 -14.462   3.510  1.00  0.00    -0.307 N 
HETATM    2  C   UNL     1      41.164 -14.869   4.823  1.00  0.00     0.323 C 
HETATM    3  N   UNL     1      42.305 -15.588   5.165  1.00  0.00    -0.328 N 
HETATM    4  C   UNL     1      43.259 -16.177   4.208  1.00  0.00     0.185 C 
HETATM    5  C   UNL     1      43.578 -17.567   4.643  1.00  0.00     0.035 A 
HETATM    6  C   UNL     1      43.206 -18.173   5.827  1.00  0.00    -0.020 A 
HETATM    7  C   UNL     1      42.393 -17.442   6.841  1.00  0.00     0.061 C 
HETATM    8  C   UNL     1      42.517 -15.926   6.588  1.00  0.00     0.132 C 
HETATM    9  N   UNL     1      44.306 -18.469   3.917  1.00  0.00    -0.357 N 
HETATM   10  H   UNL     1      44.710 -18.309   3.005  1.00  0.00     0.166 HD
HETATM   11  C   UNL     1      44.406 -19.656   4.612  1.00  0.00     0.043 A 
HETATM   12  C   UNL     1      43.718 -19.497   5.818  1.00  0.00    -0.001 A 
HETATM   13  C   UNL     1      45.045 -20.852   4.261  1.00  0.00     0.030 A 
HETATM   14  C   UNL     1      44.977 -21.913   5.168  1.00  0.00     0.002 A 
HETATM   15  C   UNL     1      44.296 -21.784   6.376  1.00  0.00     0.001 A 
HETATM   16  C   UNL     1      43.663 -20.582   6.714  1.00  0.00     0.014 A 
HETATM   17  O   UNL     1      40.294 -14.616   5.652  1.00  0.00    -0.247 OA
HETATM   18  H   UNL     1      41.995 -14.414   3.020  1.00  0.00     0.170 HD
ENDROOT
BRANCH   1  19
HETATM   19  C   UNL     1      40.035 -13.867   2.813  1.00  0.00     0.060 A 
HETATM   20  C   UNL     1      39.682 -12.518   2.949  1.00  0.00     0.068 A 
HETATM   21  C   UNL     1      38.600 -11.987   2.240  1.00  0.00     0.070 A 
HETATM   22  C   UNL     1      37.846 -12.816   1.406  1.00  0.00     0.038 A 
HETATM   23  C   UNL     1      38.172 -14.163   1.267  1.00  0.00     0.029 A 
HETATM   24  C   UNL     1      39.261 -14.684   1.966  1.00  0.00     0.061 A 
HETATM   25 CL   UNL     1      39.631 -16.365   1.768  1.00  0.00    -0.082 Cl
BRANCH  21  26
HETATM   26  O   UNL     1      38.172 -10.688   2.282  1.00  0.00    -0.356 OA
HETATM   27  C   UNL     1      37.924 -10.137   3.571  1.00  0.00     0.210 C 
ENDBRANCH  21  26
ENDBRANCH   1  19
TORSDOF 2
ENDMDL
MODEL 4
REMARK VINA RESULT:      -8.1      4.963      7.050
REMARK  2 active torsions:
REMARK  status: ('A' for Active; 'I' for Inactive)
REMARK    1  A    between atoms: O_2  and  C_3 
REMARK    2  A    between atoms: C_5  and  N_6 
REMARK       I    between atoms: N_6  and  C_7 
REMARK       I    between atoms: C_7  and  N_8 
ROOT
HETATM    1  N   UNL     1      42.236 -16.900   3.443  1.00  0.00    -0.307 N 
HETATM    2  C   UNL     1      41.085 -16.156   3.338  1.00  0.00     0.323 C 
HETATM    3  N   UNL     1      40.559 -16.080   2.052  1.00  0.00    -0.328 N 
HETATM    4  C   UNL     1      41.272 -16.454   0.817  1.00  0.00     0.185 C 
HETATM    5  C   UNL     1      41.051 -15.392  -0.206  1.00  0.00     0.035 A 
HETATM    6  C   UNL     1      40.190 -14.317  -0.113  1.00  0.00    -0.020 A 
HETATM    7  C   UNL     1      39.352 -14.106   1.102  1.00  0.00     0.061 C 
HETATM    8  C   UNL     1      39.240 -15.436   1.873  1.00  0.00     0.132 C 
HETATM    9  N   UNL     1      41.682 -15.325  -1.417  1.00  0.00    -0.357 N 
HETATM   10  H   UNL     1      42.371 -15.978  -1.764  1.00  0.00     0.166 HD
HETATM   11  C   UNL     1      41.247 -14.216  -2.110  1.00  0.00     0.043 A 
HETATM   12  C   UNL     1      40.308 -13.560  -1.308  1.00  0.00    -0.001 A 
HETATM   13  C   UNL     1      41.617 -13.744  -3.376  1.00  0.00     0.030 A 
HETATM   14  C   UNL     1      41.012 -12.570  -3.833  1.00  0.00     0.002 A 
HETATM   15  C   UNL     1      40.075 -11.895  -3.054  1.00  0.00     0.001 A 
HETATM   16  C   UNL     1      39.713 -12.378  -1.792  1.00  0.00     0.014 A 
HETATM   17  O   UNL     1      40.534 -15.608   4.289  1.00  0.00    -0.247 OA
HETATM   18  H   UNL     1      42.409 -17.570   2.709  1.00  0.00     0.170 HD
ENDROOT
BRANCH   1  19
HETATM   19  C   UNL     1      43.098 -17.035   4.559  1.00  0.00     0.060 A 
HETATM   20  C   UNL     1      43.244 -16.047   5.541  1.00  0.00     0.068 A 
HETATM   21  C   UNL     1      44.117 -16.234   6.619  1.00  0.00     0.070 A 
HETATM   22  C   UNL     1      44.871 -17.407   6.703  1.00  0.00     0.038 A 
HETATM   23  C   UNL     1      44.750 -18.396   5.730  1.00  0.00     0.029 A 
HETATM   24  C   UNL     1      43.867 -18.211   4.666  1.00  0.00     0.061 A 
HETATM   25 CL   UNL     1      43.749 -19.464   3.474  1.00  0.00    -0.082 Cl
BRANCH  21  26
HETATM   26  O   UNL     1      44.332 -15.349   7.640  1.00  0.00    -0.356 OA
HETATM   27  C   UNL     1      44.723 -14.030   7.274  1.00  0.00     0.210 C 
ENDBRANCH  21  26
ENDBRANCH   1  19
TORSDOF 2
ENDMDL
MODEL 5
REMARK VINA RESULT:      -8.0      5.550      8.229
REMARK  2 active torsions:
REMARK  status: ('A' for Active; 'I' for Inactive)
REMARK    1  A    between atoms: O_2  and  C_3 
REMARK    2  A    between atoms: C_5  and  N_6 
REMARK       I    between atoms: N_6  and  C_7 
REMARK       I    between atoms: C_7  and  N_8 
ROOT
HETATM    1  N   UNL     1      40.792 -14.130   0.171  1.00  0.00    -0.307 N 
HETATM    2  C   UNL     1      41.020 -15.483   0.072  1.00  0.00     0.323 C 
HETATM    3  N   UNL     1      41.002 -16.165   1.285  1.00  0.00    -0.328 N 
HETATM    4  C   UNL     1      41.062 -15.535   2.616  1.00  0.00     0.185 C 
HETATM    5  C   UNL     1      42.039 -16.284   3.457  1.00  0.00     0.035 A 
HETATM    6  C   UNL     1      42.667 -17.473   3.142  1.00  0.00    -0.020 A 
HETATM    7  C   UNL     1      42.410 -18.155   1.841  1.00  0.00     0.061 C 
HETATM    8  C   UNL     1      41.079 -17.641   1.258  1.00  0.00     0.132 C 
HETATM    9  N   UNL     1      42.467 -15.896   4.697  1.00  0.00    -0.357 N 
HETATM   10  H   UNL     1      42.180 -15.062   5.190  1.00  0.00     0.166 HD
HETATM   11  C   UNL     1      43.371 -16.815   5.188  1.00  0.00     0.043 A 
HETATM   12  C   UNL     1      43.518 -17.817   4.225  1.00  0.00    -0.001 A 
HETATM   13  C   UNL     1      44.069 -16.829   6.402  1.00  0.00     0.030 A 
HETATM   14  C   UNL     1      44.941 -17.896   6.637  1.00  0.00     0.002 A 
HETATM   15  C   UNL     1      45.108 -18.907   5.693  1.00  0.00     0.001 A 
HETATM   16  C   UNL     1      44.404 -18.881   4.485  1.00  0.00     0.014 A 
HETATM   17  O   UNL     1      41.210 -16.070  -0.990  1.00  0.00    -0.247 OA
HETATM   18  H   UNL     1      40.320 -13.813   1.004  1.00  0.00     0.170 HD
ENDROOT
BRANCH   1  19
HETATM   19  C   UNL     1      40.908 -13.142  -0.837  1.00  0.00     0.060 A 
HETATM   20  C   UNL     1      42.069 -12.387  -1.044  1.00  0.00     0.068 A 
HETATM   21  C   UNL     1      42.122 -11.418  -2.052  1.00  0.00     0.070 A 
HETATM   22  C   UNL     1      40.996 -11.183  -2.844  1.00  0.00     0.038 A 
HETATM   23  C   UNL     1      39.827 -11.914  -2.646  1.00  0.00     0.029 A 
HETATM   24  C   UNL     1      39.785 -12.888  -1.649  1.00  0.00     0.061 A 
HETATM   25 CL   UNL     1      38.311 -13.773  -1.433  1.00  0.00    -0.082 Cl
BRANCH  21  26
HETATM   26  O   UNL     1      43.201 -10.633  -2.354  1.00  0.00    -0.356 OA
HETATM   27  C   UNL     1      43.703  -9.804  -1.311  1.00  0.00     0.210 C 
ENDBRANCH  21  26
ENDBRANCH   1  19
TORSDOF 2
ENDMDL
MODEL 6
REMARK VINA RESULT:      -7.9      4.963      8.663
REMARK  2 active torsions:
REMARK  status: ('A' for Active; 'I' for Inactive)
REMARK    1  A    between atoms: O_2  and  C_3 
REMARK    2  A    between atoms: C_5  and  N_6 
REMARK       I    between atoms: N_6  and  C_7 
REMARK       I    between atoms: C_7  and  N_8 
ROOT
HETATM    1  N   UNL     1      43.225 -16.974   2.898  1.00  0.00    -0.307 N 
HETATM    2  C   UNL     1      41.948 -16.731   2.448  1.00  0.00     0.323 C 
HETATM    3  N   UNL     1      41.687 -15.401   2.137  1.00  0.00    -0.328 N 
HETATM    4  C   UNL     1      42.528 -14.254   2.526  1.00  0.00     0.185 C 
HETATM    5  C   UNL     1      41.649 -13.168   3.046  1.00  0.00     0.035 A 
HETATM    6  C   UNL     1      40.269 -13.133   3.021  1.00  0.00    -0.020 A 
HETATM    7  C   UNL     1      39.483 -14.257   2.434  1.00  0.00     0.061 C 
HETATM    8  C   UNL     1      40.395 -15.074   1.497  1.00  0.00     0.132 C 
HETATM    9  N   UNL     1      42.090 -12.018   3.640  1.00  0.00    -0.357 N 
HETATM   10  H   UNL     1      43.055 -11.765   3.800  1.00  0.00     0.166 HD
HETATM   11  C   UNL     1      41.013 -11.238   4.006  1.00  0.00     0.043 A 
HETATM   12  C   UNL     1      39.852 -11.921   3.630  1.00  0.00    -0.001 A 
HETATM   13  C   UNL     1      40.982  -9.991   4.643  1.00  0.00     0.030 A 
HETATM   14  C   UNL     1      39.729  -9.428   4.903  1.00  0.00     0.002 A 
HETATM   15  C   UNL     1      38.556 -10.087   4.542  1.00  0.00     0.001 A 
HETATM   16  C   UNL     1      38.603 -11.332   3.905  1.00  0.00     0.014 A 
HETATM   17  O   UNL     1      41.094 -17.602   2.306  1.00  0.00    -0.247 OA
HETATM   18  H   UNL     1      43.926 -16.290   2.657  1.00  0.00     0.170 HD
ENDROOT
BRANCH   1  19
HETATM   19  C   UNL     1      43.752 -18.170   3.446  1.00  0.00     0.060 A 
HETATM   20  C   UNL     1      43.943 -19.339   2.699  1.00  0.00     0.068 A 
HETATM   21  C   UNL     1      44.462 -20.493   3.297  1.00  0.00     0.070 A 
HETATM   22  C   UNL     1      44.768 -20.487   4.660  1.00  0.00     0.038 A 
HETATM   23  C   UNL     1      44.573 -19.338   5.423  1.00  0.00     0.029 A 
HETATM   24  C   UNL     1      44.069 -18.187   4.818  1.00  0.00     0.061 A 
HETATM   25 CL   UNL     1      43.838 -16.780   5.804  1.00  0.00    -0.082 Cl
BRANCH  21  26
HETATM   26  O   UNL     1      44.703 -21.683   2.668  1.00  0.00    -0.356 OA
HETATM   27  C   UNL     1      44.000 -21.920   1.453  1.00  0.00     0.210 C 
ENDBRANCH  21  26
ENDBRANCH   1  19
TORSDOF 2
ENDMDL
MODEL 7
REMARK VINA RESULT:      -7.8      4.991      8.443
REMARK  2 active torsions:
REMARK  status: ('A' for Active; 'I' for Inactive)
REMARK    1  A    between atoms: O_2  and  C_3 
REMARK    2  A    between atoms: C_5  and  N_6 
REMARK       I    between atoms: N_6  and  C_7 
REMARK       I    between atoms: C_7  and  N_8 
ROOT
HETATM    1  N   UNL     1      42.052 -16.890   3.500  1.00  0.00    -0.307 N 
HETATM    2  C   UNL     1      42.417 -15.572   3.357  1.00  0.00     0.323 C 
HETATM    3  N   UNL     1      41.448 -14.762   2.774  1.00  0.00    -0.328 N 
HETATM    4  C   UNL     1      40.253 -15.243   2.058  1.00  0.00     0.185 C 
HETATM    5  C   UNL     1      40.103 -14.465   0.796  1.00  0.00     0.035 A 
HETATM    6  C   UNL     1      40.832 -13.356   0.412  1.00  0.00    -0.020 A 
HETATM    7  C   UNL     1      41.910 -12.806   1.285  1.00  0.00     0.061 C 
HETATM    8  C   UNL     1      41.692 -13.304   2.728  1.00  0.00     0.132 C 
HETATM    9  N   UNL     1      39.199 -14.738  -0.193  1.00  0.00    -0.357 N 
HETATM   10  H   UNL     1      38.530 -15.495  -0.192  1.00  0.00     0.166 HD
HETATM   11  C   UNL     1      39.336 -13.824  -1.217  1.00  0.00     0.043 A 
HETATM   12  C   UNL     1      40.362 -12.944  -0.862  1.00  0.00    -0.001 A 
HETATM   13  C   UNL     1      38.636 -13.718  -2.425  1.00  0.00     0.030 A 
HETATM   14  C   UNL     1      38.996 -12.683  -3.294  1.00  0.00     0.002 A 
HETATM   15  C   UNL     1      40.016 -11.793  -2.967  1.00  0.00     0.001 A 
HETATM   16  C   UNL     1      40.706 -11.911  -1.755  1.00  0.00     0.014 A 
HETATM   17  O   UNL     1      43.498 -15.117   3.722  1.00  0.00    -0.247 OA
HETATM   18  H   UNL     1      41.062 -17.087   3.495  1.00  0.00     0.170 HD
ENDROOT
BRANCH   1  19
HETATM   19  C   UNL     1      42.854 -17.988   3.896  1.00  0.00     0.060 A 
HETATM   20  C   UNL     1      43.505 -18.832   2.987  1.00  0.00     0.068 A 
HETATM   21  C   UNL     1      44.280 -19.906   3.437  1.00  0.00     0.070 A 
HETATM   22  C   UNL     1      44.384 -20.157   4.806  1.00  0.00     0.038 A 
HETATM   23  C   UNL     1      43.734 -19.338   5.726  1.00  0.00     0.029 A 
HETATM   24  C   UNL     1      42.975 -18.260   5.272  1.00  0.00     0.061 A 
HETATM   25 CL   UNL     1      42.179 -17.267   6.450  1.00  0.00    -0.082 Cl
BRANCH  21  26
HETATM   26  O   UNL     1      44.969 -20.785   2.646  1.00  0.00    -0.356 OA
HETATM   27  C   UNL     1      44.201 -21.764   1.955  1.00  0.00     0.210 C 
ENDBRANCH  21  26
ENDBRANCH   1  19
TORSDOF 2
ENDMDL
MODEL 8
REMARK VINA RESULT:      -7.8      4.058      9.405
REMARK  2 active torsions:
REMARK  status: ('A' for Active; 'I' for Inactive)
REMARK    1  A    between atoms: O_2  and  C_3 
REMARK    2  A    between atoms: C_5  and  N_6 
REMARK       I    between atoms: N_6  and  C_7 
REMARK       I    between atoms: C_7  and  N_8 
ROOT
HETATM    1  N   UNL     1      40.983 -12.755   5.512  1.00  0.00    -0.307 N 
HETATM    2  C   UNL     1      39.995 -12.241   6.318  1.00  0.00     0.323 C 
HETATM    3  N   UNL     1      40.409 -11.212   7.158  1.00  0.00    -0.328 N 
HETATM    4  C   UNL     1      41.811 -10.864   7.452  1.00  0.00     0.185 C 
HETATM    5  C   UNL     1      41.954 -10.650   8.920  1.00  0.00     0.035 A 
HETATM    6  C   UNL     1      40.939 -10.600   9.856  1.00  0.00    -0.020 A 
HETATM    7  C   UNL     1      39.514 -10.774   9.452  1.00  0.00     0.061 C 
HETATM    8  C   UNL     1      39.381 -10.494   7.942  1.00  0.00     0.132 C 
HETATM    9  N   UNL     1      43.141 -10.464   9.575  1.00  0.00    -0.357 N 
HETATM   10  H   UNL     1      44.058 -10.452   9.149  1.00  0.00     0.166 HD
HETATM   11  C   UNL     1      42.910 -10.302  10.924  1.00  0.00     0.043 A 
HETATM   12  C   UNL     1      41.530 -10.387  11.129  1.00  0.00    -0.001 A 
HETATM   13  C   UNL     1      43.816 -10.093  11.972  1.00  0.00     0.030 A 
HETATM   14  C   UNL     1      43.295  -9.969  13.263  1.00  0.00     0.002 A 
HETATM   15  C   UNL     1      41.924 -10.053  13.497  1.00  0.00     0.001 A 
HETATM   16  C   UNL     1      41.031 -10.261  12.440  1.00  0.00     0.014 A 
HETATM   17  O   UNL     1      38.829 -12.628   6.306  1.00  0.00    -0.247 OA
HETATM   18  H   UNL     1      41.784 -12.164   5.349  1.00  0.00     0.170 HD
ENDROOT
BRANCH   1  19
HETATM   19  C   UNL     1      40.933 -13.900   4.679  1.00  0.00     0.060 A 
HETATM   20  C   UNL     1      40.013 -14.050   3.634  1.00  0.00     0.068 A 
HETATM   21  C   UNL     1      40.006 -15.207   2.848  1.00  0.00     0.070 A 
HETATM   22  C   UNL     1      40.908 -16.236   3.125  1.00  0.00     0.038 A 
HETATM   23  C   UNL     1      41.823 -16.112   4.168  1.00  0.00     0.029 A 
HETATM   24  C   UNL     1      41.835 -14.950   4.939  1.00  0.00     0.061 A 
HETATM   25 CL   UNL     1      42.986 -14.837   6.230  1.00  0.00    -0.082 Cl
BRANCH  21  26
HETATM   26  O   UNL     1      39.166 -15.458   1.797  1.00  0.00    -0.356 OA
HETATM   27  C   UNL     1      38.376 -14.369   1.333  1.00  0.00     0.210 C 
ENDBRANCH  21  26
ENDBRANCH   1  19
TORSDOF 2
ENDMDL
MODEL 9
REMARK VINA RESULT:      -7.7      3.667      8.513
REMARK  2 active torsions:
REMARK  status: ('A' for Active; 'I' for Inactive)
REMARK    1  A    between atoms: O_2  and  C_3 
REMARK    2  A    between atoms: C_5  and  N_6 
REMARK       I    between atoms: N_6  and  C_7 
REMARK       I    between atoms: C_7  and  N_8 
ROOT
HETATM    1  N   UNL     1      43.282 -16.860   3.941  1.00  0.00    -0.307 N 
HETATM    2  C   UNL     1      41.945 -16.541   3.915  1.00  0.00     0.323 C 
HETATM    3  N   UNL     1      41.673 -15.179   3.996  1.00  0.00    -0.328 N 
HETATM    4  C   UNL     1      42.639 -14.139   4.396  1.00  0.00     0.185 C 
HETATM    5  C   UNL     1      41.980 -13.218   5.365  1.00  0.00     0.035 A 
HETATM    6  C   UNL     1      40.644 -13.200   5.717  1.00  0.00    -0.020 A 
HETATM    7  C   UNL     1      39.680 -14.170   5.122  1.00  0.00     0.061 C 
HETATM    8  C   UNL     1      40.275 -14.734   3.816  1.00  0.00     0.132 C 
HETATM    9  N   UNL     1      42.614 -12.229   6.064  1.00  0.00    -0.357 N 
HETATM   10  H   UNL     1      43.598 -12.004   6.014  1.00  0.00     0.166 HD
HETATM   11  C   UNL     1      41.708 -11.573   6.871  1.00  0.00     0.043 A 
HETATM   12  C   UNL     1      40.460 -12.169   6.674  1.00  0.00    -0.001 A 
HETATM   13  C   UNL     1      41.904 -10.507   7.759  1.00  0.00     0.030 A 
HETATM   14  C   UNL     1      40.791 -10.041   8.465  1.00  0.00     0.002 A 
HETATM   15  C   UNL     1      39.535 -10.617   8.290  1.00  0.00     0.001 A 
HETATM   16  C   UNL     1      39.355 -11.680   7.398  1.00  0.00     0.014 A 
HETATM   17  O   UNL     1      41.044 -17.369   3.813  1.00  0.00    -0.247 OA
HETATM   18  H   UNL     1      43.926 -16.127   3.683  1.00  0.00     0.170 HD
ENDROOT
BRANCH   1  19
HETATM   19  C   UNL     1      43.880 -18.141   4.042  1.00  0.00     0.060 A 
HETATM   20  C   UNL     1      44.036 -19.004   2.951  1.00  0.00     0.068 A 
HETATM   21  C   UNL     1      44.627 -20.262   3.113  1.00  0.00     0.070 A 
HETATM   22  C   UNL     1      45.043 -20.672   4.381  1.00  0.00     0.038 A 
HETATM   23  C   UNL     1      44.884 -19.833   5.482  1.00  0.00     0.029 A 
HETATM   24  C   UNL     1      44.308 -18.575   5.312  1.00  0.00     0.061 A 
HETATM   25 CL   UNL     1      44.125 -17.563   6.708  1.00  0.00    -0.082 Cl
BRANCH  21  26
HETATM   26  O   UNL     1      44.844 -21.181   2.122  1.00  0.00    -0.356 OA
HETATM   27  C   UNL     1      43.696 -21.835   1.592  1.00  0.00     0.210 C 
ENDBRANCH  21  26
ENDBRANCH   1  19
TORSDOF 2
ENDMDL
MODEL 10
REMARK VINA RESULT:      -7.7      3.808      9.364
REMARK  2 active torsions:
REMARK  status: ('A' for Active; 'I' for Inactive)
REMARK    1  A    between atoms: O_2  and  C_3 
REMARK    2  A    between atoms: C_5  and  N_6 
REMARK       I    between atoms: N_6  and  C_7 
REMARK       I    between atoms: C_7  and  N_8 
ROOT
HETATM    1  N   UNL     1      41.004 -12.808   5.610  1.00  0.00    -0.307 N 
HETATM    2  C   UNL     1      40.019 -12.243   6.386  1.00  0.00     0.323 C 
HETATM    3  N   UNL     1      40.449 -11.203   7.203  1.00  0.00    -0.328 N 
HETATM    4  C   UNL     1      41.856 -10.887   7.510  1.00  0.00     0.185 C 
HETATM    5  C   UNL     1      41.984 -10.635   8.974  1.00  0.00     0.035 A 
HETATM    6  C   UNL     1      40.957 -10.531   9.891  1.00  0.00    -0.020 A 
HETATM    7  C   UNL     1      39.534 -10.675   9.470  1.00  0.00     0.061 C 
HETATM    8  C   UNL     1      39.431 -10.434   7.951  1.00  0.00     0.132 C 
HETATM    9  N   UNL     1      43.165 -10.465   9.641  1.00  0.00    -0.357 N 
HETATM   10  H   UNL     1      44.088 -10.491   9.230  1.00  0.00     0.166 HD
HETATM   11  C   UNL     1      42.919 -10.258  10.982  1.00  0.00     0.043 A 
HETATM   12  C   UNL     1      41.534 -10.298  11.167  1.00  0.00    -0.001 A 
HETATM   13  C   UNL     1      43.815 -10.045  12.037  1.00  0.00     0.030 A 
HETATM   14  C   UNL     1      43.278  -9.871  13.317  1.00  0.00     0.002 A 
HETATM   15  C   UNL     1      41.902  -9.909  13.531  1.00  0.00     0.001 A 
HETATM   16  C   UNL     1      41.019 -10.121  12.466  1.00  0.00     0.014 A 
HETATM   17  O   UNL     1      38.843 -12.598   6.366  1.00  0.00    -0.247 OA
HETATM   18  H   UNL     1      41.824 -12.245   5.443  1.00  0.00     0.170 HD
ENDROOT
BRANCH   1  19
HETATM   19  C   UNL     1      40.933 -13.974   4.809  1.00  0.00     0.060 A 
HETATM   20  C   UNL     1      41.255 -15.252   5.282  1.00  0.00     0.068 A 
HETATM   21  C   UNL     1      41.173 -16.367   4.441  1.00  0.00     0.070 A 
HETATM   22  C   UNL     1      40.791 -16.201   3.108  1.00  0.00     0.038 A 
HETATM   23  C   UNL     1      40.479 -14.936   2.615  1.00  0.00     0.029 A 
HETATM   24  C   UNL     1      40.548 -13.830   3.462  1.00  0.00     0.061 A 
HETATM   25 CL   UNL     1      40.156 -12.274   2.808  1.00  0.00    -0.082 Cl
BRANCH  21  26
HETATM   26  O   UNL     1      41.449 -17.660   4.794  1.00  0.00    -0.356 OA
HETATM   27  C   UNL     1      42.564 -18.275   4.157  1.00  0.00     0.210 C 
ENDBRANCH  21  26
ENDBRANCH   1  19
TORSDOF 2
ENDMDL
