MODEL 1
REMARK VINA RESULT:      -9.6      0.000      0.000
REMARK  6 active torsions:
REMARK  status: ('A' for Active; 'I' for Inactive)
REMARK    1  A    between atoms: C_4  and  C_5 
REMARK    2  A    between atoms: C_8  and  C_9 
REMARK    3  A    between atoms: C_9  and  N_10 
REMARK       I    between atoms: N_10  and  C_11 
REMARK       I    between atoms: C_11  and  N_12 
REMARK    4  A    between atoms: N_12  and  C_13 
REMARK    5  A    between atoms: C_15  and  C_16 
REMARK    6  A    between atoms: C_30  and  C_31 
ROOT
HETATM    1  C   UNL     1      40.824 -11.551  -1.063  1.00  0.00     0.068 C 
HETATM    2  C   UNL     1      40.295 -11.910  -2.486  1.00  0.00     0.001 C 
HETATM    3  C   UNL     1      39.976 -13.418  -2.629  1.00  0.00     0.040 C 
HETATM    4  C   UNL     1      41.195 -14.278  -2.258  1.00  0.00     0.206 C 
HETATM    5  N   UNL     1      42.335 -13.311  -1.945  1.00  0.00    -0.065 N 
HETATM    6  H   UNL     1      43.159 -13.899  -1.686  1.00  0.00     0.280 HD
HETATM    7  C   UNL     1      42.057 -12.418  -0.755  1.00  0.00     0.246 C 
HETATM    8  C   UNL     1      41.446 -11.614  -3.482  1.00  0.00     0.033 C 
HETATM    9  C   UNL     1      42.671 -12.480  -3.159  1.00  0.00     0.236 C 
ENDROOT
BRANCH   4  10
HETATM   10  C   UNL     1      40.912 -15.295  -1.118  1.00  0.00     0.157 C 
BRANCH  10  11
HETATM   11  N   UNL     1      42.075 -15.747  -0.351  1.00  0.00    -0.341 N 
HETATM   12  C   UNL     1      42.035 -16.769   0.569  1.00  0.00     0.320 C 
HETATM   13  N   UNL     1      43.284 -17.083   1.039  1.00  0.00    -0.309 N 
HETATM   14  O   UNL     1      40.971 -17.266   0.920  1.00  0.00    -0.247 OA
HETATM   15  H   UNL     1      44.043 -16.480   0.752  1.00  0.00     0.170 HD
HETATM   16  H   UNL     1      42.962 -15.651  -0.831  1.00  0.00     0.164 HD
BRANCH  13  17
HETATM   17  C   UNL     1      43.628 -18.093   1.965  1.00  0.00     0.037 A 
HETATM   18  C   UNL     1      43.723 -19.448   1.640  1.00  0.00     0.045 A 
HETATM   19  C   UNL     1      44.068 -20.405   2.613  1.00  0.00     0.050 A 
HETATM   20  C   UNL     1      44.316 -19.982   3.927  1.00  0.00     0.016 A 
HETATM   21  C   UNL     1      44.231 -18.632   4.256  1.00  0.00     0.003 A 
HETATM   22  C   UNL     1      43.891 -17.693   3.280  1.00  0.00     0.029 A 
BRANCH  19  23
HETATM   23  C   UNL     1      44.138 -21.871   2.261  1.00  0.00     0.417 C 
HETATM   24  F   UNL     1      45.247 -22.197   1.537  1.00  0.00    -0.166 F 
HETATM   25  F   UNL     1      44.157 -22.679   3.355  1.00  0.00    -0.166 F 
HETATM   26  F   UNL     1      43.075 -22.272   1.511  1.00  0.00    -0.166 F 
ENDBRANCH  19  23
ENDBRANCH  13  17
ENDBRANCH  10  11
ENDBRANCH   4  10
BRANCH   1  27
HETATM   27  C   UNL     1      39.827 -11.635   0.075  1.00  0.00     0.045 A 
HETATM   28  N   UNL     1      38.542 -11.341  -0.187  1.00  0.00    -0.238 NA
HETATM   29  C   UNL     1      37.661 -11.449   0.826  1.00  0.00     0.123 A 
HETATM   30  C   UNL     1      36.240 -11.055   0.570  1.00  0.00     0.093 C 
HETATM   31  N   UNL     1      37.965 -11.910   2.045  1.00  0.00    -0.233 NA
HETATM   32  C   UNL     1      39.251 -12.237   2.284  1.00  0.00     0.077 A 
HETATM   33  C   UNL     1      40.229 -12.096   1.317  1.00  0.00     0.060 A 
BRANCH  32  34
HETATM   34  C   UNL     1      39.486 -12.782   3.634  1.00  0.00     0.033 A 
HETATM   35  S   UNL     1      40.207 -14.325   3.883  1.00  0.00    -0.100 SA
HETATM   36  C   UNL     1      40.087 -14.202   5.581  1.00  0.00     0.050 A 
HETATM   37  C   UNL     1      39.513 -13.015   5.970  1.00  0.00     0.008 A 
HETATM   38  C   UNL     1      39.171 -12.201   4.854  1.00  0.00     0.021 A 
ENDBRANCH  32  34
ENDBRANCH   1  27
TORSDOF 6
ENDMDL
MODEL 2
REMARK VINA RESULT:      -9.6      5.574      9.165
REMARK  6 active torsions:
REMARK  status: ('A' for Active; 'I' for Inactive)
REMARK    1  A    between atoms: C_4  and  C_5 
REMARK    2  A    between atoms: C_8  and  C_9 
REMARK    3  A    between atoms: C_9  and  N_10 
REMARK       I    between atoms: N_10  and  C_11 
REMARK       I    between atoms: C_11  and  N_12 
REMARK    4  A    between atoms: N_12  and  C_13 
REMARK    5  A    between atoms: C_15  and  C_16 
REMARK    6  A    between atoms: C_30  and  C_31 
ROOT
HETATM    1  C   UNL     1      40.474 -15.894   2.837  1.00  0.00     0.068 C 
HETATM    2  C   UNL     1      40.635 -15.294   1.405  1.00  0.00     0.001 C 
HETATM    3  C   UNL     1      41.620 -14.101   1.377  1.00  0.00     0.040 C 
HETATM    4  C   UNL     1      41.206 -13.019   2.388  1.00  0.00     0.206 C 
HETATM    5  N   UNL     1      39.897 -13.488   3.020  1.00  0.00    -0.065 N 
HETATM    6  H   UNL     1      39.623 -12.755   3.712  1.00  0.00     0.280 HD
HETATM    7  C   UNL     1      40.033 -14.779   3.799  1.00  0.00     0.246 C 
HETATM    8  C   UNL     1      39.252 -14.724   0.998  1.00  0.00     0.033 C 
HETATM    9  C   UNL     1      38.820 -13.618   1.970  1.00  0.00     0.236 C 
ENDROOT
BRANCH   4  10
HETATM   10  C   UNL     1      42.313 -12.684   3.427  1.00  0.00     0.157 C 
BRANCH  10  11
HETATM   11  N   UNL     1      41.937 -11.755   4.494  1.00  0.00    -0.341 N 
HETATM   12  C   UNL     1      42.028 -12.052   5.835  1.00  0.00     0.320 C 
HETATM   13  N   UNL     1      41.749 -10.963   6.620  1.00  0.00    -0.309 N 
HETATM   14  O   UNL     1      42.285 -13.187   6.217  1.00  0.00    -0.247 OA
HETATM   15  H   UNL     1      41.415 -10.134   6.146  1.00  0.00     0.170 HD
HETATM   16  H   UNL     1      42.077 -10.776   4.273  1.00  0.00     0.164 HD
BRANCH  13  17
HETATM   17  C   UNL     1      41.773 -10.889   8.030  1.00  0.00     0.037 A 
HETATM   18  C   UNL     1      42.945 -10.879   8.790  1.00  0.00     0.045 A 
HETATM   19  C   UNL     1      42.899 -10.806  10.195  1.00  0.00     0.050 A 
HETATM   20  C   UNL     1      41.652 -10.745  10.833  1.00  0.00     0.016 A 
HETATM   21  C   UNL     1      40.479 -10.745  10.082  1.00  0.00     0.003 A 
HETATM   22  C   UNL     1      40.540 -10.814   8.689  1.00  0.00     0.029 A 
BRANCH  19  23
HETATM   23  C   UNL     1      44.169 -10.828  11.010  1.00  0.00     0.417 C 
HETATM   24  F   UNL     1      44.090 -10.079  12.147  1.00  0.00    -0.166 F 
HETATM   25  F   UNL     1      44.520 -12.079  11.411  1.00  0.00    -0.166 F 
HETATM   26  F   UNL     1      45.234 -10.338  10.317  1.00  0.00    -0.166 F 
ENDBRANCH  19  23
ENDBRANCH  13  17
ENDBRANCH  10  11
ENDBRANCH   4  10
BRANCH   1  27
HETATM   27  C   UNL     1      41.671 -16.632   3.404  1.00  0.00     0.045 A 
HETATM   28  N   UNL     1      42.248 -16.142   4.514  1.00  0.00    -0.238 NA
HETATM   29  C   UNL     1      43.291 -16.825   5.024  1.00  0.00     0.123 A 
HETATM   30  C   UNL     1      43.992 -16.254   6.218  1.00  0.00     0.093 C 
HETATM   31  N   UNL     1      43.731 -17.996   4.550  1.00  0.00    -0.233 NA
HETATM   32  C   UNL     1      43.118 -18.496   3.458  1.00  0.00     0.077 A 
HETATM   33  C   UNL     1      42.081 -17.827   2.836  1.00  0.00     0.060 A 
BRANCH  32  34
HETATM   34  C   UNL     1      43.634 -19.811   3.035  1.00  0.00     0.033 A 
HETATM   35  S   UNL     1      44.746 -20.707   3.996  1.00  0.00    -0.100 SA
HETATM   36  C   UNL     1      44.841 -21.975   2.857  1.00  0.00     0.050 A 
HETATM   37  C   UNL     1      44.047 -21.739   1.760  1.00  0.00     0.008 A 
HETATM   38  C   UNL     1      43.354 -20.500   1.864  1.00  0.00     0.021 A 
ENDBRANCH  32  34
ENDBRANCH   1  27
TORSDOF 6
ENDMDL
MODEL 3
REMARK VINA RESULT:      -9.5      3.889      6.000
REMARK  6 active torsions:
REMARK  status: ('A' for Active; 'I' for Inactive)
REMARK    1  A    between atoms: C_4  and  C_5 
REMARK    2  A    between atoms: C_8  and  C_9 
REMARK    3  A    between atoms: C_9  and  N_10 
REMARK       I    between atoms: N_10  and  C_11 
REMARK       I    between atoms: C_11  and  N_12 
REMARK    4  A    between atoms: N_12  and  C_13 
REMARK    5  A    between atoms: C_15  and  C_16 
REMARK    6  A    between atoms: C_30  and  C_31 
ROOT
HETATM    1  C   UNL     1      40.312 -11.056   5.242  1.00  0.00     0.068 C 
HETATM    2  C   UNL     1      39.099 -11.965   4.875  1.00  0.00     0.001 C 
HETATM    3  C   UNL     1      39.307 -13.430   5.328  1.00  0.00     0.040 C 
HETATM    4  C   UNL     1      40.618 -14.002   4.764  1.00  0.00     0.206 C 
HETATM    5  N   UNL     1      41.223 -12.916   3.876  1.00  0.00    -0.065 N 
HETATM    6  H   UNL     1      42.117 -13.305   3.502  1.00  0.00     0.280 HD
HETATM    7  C   UNL     1      41.590 -11.656   4.631  1.00  0.00     0.246 C 
HETATM    8  C   UNL     1      39.012 -11.998   3.327  1.00  0.00     0.033 C 
HETATM    9  C   UNL     1      40.295 -12.592   2.731  1.00  0.00     0.236 C 
ENDROOT
BRANCH   4  10
HETATM   10  C   UNL     1      41.589 -14.522   5.859  1.00  0.00     0.157 C 
BRANCH  10  11
HETATM   11  N   UNL     1      42.700 -15.356   5.395  1.00  0.00    -0.341 N 
HETATM   12  C   UNL     1      42.569 -16.681   5.046  1.00  0.00     0.320 C 
HETATM   13  N   UNL     1      43.726 -17.186   4.514  1.00  0.00    -0.309 N 
HETATM   14  O   UNL     1      41.527 -17.292   5.255  1.00  0.00    -0.247 OA
HETATM   15  H   UNL     1      44.540 -16.587   4.541  1.00  0.00     0.170 HD
HETATM   16  H   UNL     1      43.418 -14.859   4.883  1.00  0.00     0.164 HD
BRANCH  13  17
HETATM   17  C   UNL     1      43.950 -18.491   4.020  1.00  0.00     0.037 A 
HETATM   18  C   UNL     1      44.246 -19.590   4.829  1.00  0.00     0.045 A 
HETATM   19  C   UNL     1      44.461 -20.865   4.273  1.00  0.00     0.050 A 
HETATM   20  C   UNL     1      44.375 -21.024   2.882  1.00  0.00     0.016 A 
HETATM   21  C   UNL     1      44.071 -19.935   2.069  1.00  0.00     0.003 A 
HETATM   22  C   UNL     1      43.857 -18.677   2.636  1.00  0.00     0.029 A 
BRANCH  19  23
HETATM   23  C   UNL     1      44.812 -22.041   5.151  1.00  0.00     0.417 C 
HETATM   24  F   UNL     1      46.144 -22.335   5.147  1.00  0.00    -0.166 F 
HETATM   25  F   UNL     1      44.477 -21.848   6.455  1.00  0.00    -0.166 F 
HETATM   26  F   UNL     1      44.180 -23.182   4.761  1.00  0.00    -0.166 F 
ENDBRANCH  19  23
ENDBRANCH  13  17
ENDBRANCH  10  11
ENDBRANCH   4  10
BRANCH   1  27
HETATM   27  C   UNL     1      40.523 -10.763   6.715  1.00  0.00     0.045 A 
HETATM   28  N   UNL     1      39.447 -10.452   7.457  1.00  0.00    -0.238 NA
HETATM   29  C   UNL     1      39.644 -10.224   8.770  1.00  0.00     0.123 A 
HETATM   30  C   UNL     1      38.469  -9.806   9.598  1.00  0.00     0.093 C 
HETATM   31  N   UNL     1      40.818 -10.371   9.394  1.00  0.00    -0.233 NA
HETATM   32  C   UNL     1      41.883 -10.720   8.643  1.00  0.00     0.077 A 
HETATM   33  C   UNL     1      41.779 -10.911   7.278  1.00  0.00     0.060 A 
BRANCH  32  34
HETATM   34  C   UNL     1      43.123 -10.908   9.418  1.00  0.00     0.033 A 
HETATM   35  S   UNL     1      44.375 -11.969   8.896  1.00  0.00    -0.100 SA
HETATM   36  C   UNL     1      45.338 -11.645  10.266  1.00  0.00     0.050 A 
HETATM   37  C   UNL     1      44.737 -10.747  11.117  1.00  0.00     0.008 A 
HETATM   38  C   UNL     1      43.469 -10.324  10.628  1.00  0.00     0.021 A 
ENDBRANCH  32  34
ENDBRANCH   1  27
TORSDOF 6
ENDMDL
MODEL 4
REMARK VINA RESULT:      -9.5      5.551      8.045
REMARK  6 active torsions:
REMARK  status: ('A' for Active; 'I' for Inactive)
REMARK    1  A    between atoms: C_4  and  C_5 
REMARK    2  A    between atoms: C_8  and  C_9 
REMARK    3  A    between atoms: C_9  and  N_10 
REMARK       I    between atoms: N_10  and  C_11 
REMARK       I    between atoms: C_11  and  N_12 
REMARK    4  A    between atoms: N_12  and  C_13 
REMARK    5  A    between atoms: C_15  and  C_16 
REMARK    6  A    between atoms: C_30  and  C_31 
ROOT
HETATM    1  C   UNL     1      41.008  -9.415   7.959  1.00  0.00     0.068 C 
HETATM    2  C   UNL     1      39.619 -10.116   7.846  1.00  0.00     0.001 C 
HETATM    3  C   UNL     1      39.736 -11.569   7.327  1.00  0.00     0.040 C 
HETATM    4  C   UNL     1      40.491 -11.618   5.989  1.00  0.00     0.206 C 
HETATM    5  N   UNL     1      40.797 -10.171   5.605  1.00  0.00    -0.065 N 
HETATM    6  H   UNL     1      41.317 -10.209   4.700  1.00  0.00     0.280 HD
HETATM    7  C   UNL     1      41.707  -9.467   6.590  1.00  0.00     0.246 C 
HETATM    8  C   UNL     1      38.807  -9.338   6.779  1.00  0.00     0.033 C 
HETATM    9  C   UNL     1      39.518  -9.392   5.420  1.00  0.00     0.236 C 
ENDROOT
BRANCH   4  10
HETATM   10  C   UNL     1      41.747 -12.532   6.018  1.00  0.00     0.157 C 
BRANCH  10  11
HETATM   11  N   UNL     1      41.512 -13.960   5.795  1.00  0.00    -0.341 N 
HETATM   12  C   UNL     1      42.513 -14.870   5.542  1.00  0.00     0.320 C 
HETATM   13  N   UNL     1      42.039 -16.157   5.512  1.00  0.00    -0.309 N 
HETATM   14  O   UNL     1      43.664 -14.506   5.331  1.00  0.00    -0.247 OA
HETATM   15  H   UNL     1      41.036 -16.273   5.565  1.00  0.00     0.170 HD
HETATM   16  H   UNL     1      40.717 -14.342   6.293  1.00  0.00     0.164 HD
BRANCH  13  17
HETATM   17  C   UNL     1      42.779 -17.343   5.311  1.00  0.00     0.037 A 
HETATM   18  C   UNL     1      43.066 -17.878   4.054  1.00  0.00     0.045 A 
HETATM   19  C   UNL     1      43.808 -19.068   3.923  1.00  0.00     0.050 A 
HETATM   20  C   UNL     1      44.259 -19.719   5.080  1.00  0.00     0.016 A 
HETATM   21  C   UNL     1      43.984 -19.187   6.337  1.00  0.00     0.003 A 
HETATM   22  C   UNL     1      43.250 -18.004   6.451  1.00  0.00     0.029 A 
BRANCH  19  23
HETATM   23  C   UNL     1      44.087 -19.657   2.562  1.00  0.00     0.417 C 
HETATM   24  F   UNL     1      44.179 -18.717   1.578  1.00  0.00    -0.166 F 
HETATM   25  F   UNL     1      45.250 -20.359   2.517  1.00  0.00    -0.166 F 
HETATM   26  F   UNL     1      43.108 -20.515   2.162  1.00  0.00    -0.166 F 
ENDBRANCH  19  23
ENDBRANCH  13  17
ENDBRANCH  10  11
ENDBRANCH   4  10
BRANCH   1  27
HETATM   27  C   UNL     1      41.940  -9.922   9.042  1.00  0.00     0.045 A 
HETATM   28  N   UNL     1      43.109 -10.469   8.666  1.00  0.00    -0.238 NA
HETATM   29  C   UNL     1      43.941 -10.886   9.640  1.00  0.00     0.123 A 
HETATM   30  C   UNL     1      45.214 -11.563   9.238  1.00  0.00     0.093 C 
HETATM   31  N   UNL     1      43.718 -10.715  10.948  1.00  0.00    -0.233 NA
HETATM   32  C   UNL     1      42.558 -10.131  11.311  1.00  0.00     0.077 A 
HETATM   33  C   UNL     1      41.622  -9.730  10.376  1.00  0.00     0.060 A 
BRANCH  32  34
HETATM   34  C   UNL     1      42.417  -9.938  12.766  1.00  0.00     0.033 A 
HETATM   35  S   UNL     1      41.113 -10.624  13.656  1.00  0.00    -0.100 SA
HETATM   36  C   UNL     1      41.647  -9.943  15.127  1.00  0.00     0.050 A 
HETATM   37  C   UNL     1      42.795  -9.205  14.965  1.00  0.00     0.008 A 
HETATM   38  C   UNL     1      43.237  -9.204  13.612  1.00  0.00     0.021 A 
ENDBRANCH  32  34
ENDBRANCH   1  27
TORSDOF 6
ENDMDL
MODEL 5
REMARK VINA RESULT:      -9.5      2.297      3.603
REMARK  6 active torsions:
REMARK  status: ('A' for Active; 'I' for Inactive)
REMARK    1  A    between atoms: C_4  and  C_5 
REMARK    2  A    between atoms: C_8  and  C_9 
REMARK    3  A    between atoms: C_9  and  N_10 
REMARK       I    between atoms: N_10  and  C_11 
REMARK       I    between atoms: C_11  and  N_12 
REMARK    4  A    between atoms: N_12  and  C_13 
REMARK    5  A    between atoms: C_15  and  C_16 
REMARK    6  A    between atoms: C_30  and  C_31 
ROOT
HETATM    1  C   UNL     1      39.516 -12.215   2.020  1.00  0.00     0.068 C 
HETATM    2  C   UNL     1      38.471 -13.331   1.714  1.00  0.00     0.001 C 
HETATM    3  C   UNL     1      39.138 -14.650   1.256  1.00  0.00     0.040 C 
HETATM    4  C   UNL     1      40.064 -14.412   0.052  1.00  0.00     0.206 C 
HETATM    5  N   UNL     1      39.931 -12.935  -0.318  1.00  0.00    -0.065 N 
HETATM    6  H   UNL     1      40.567 -12.775  -1.130  1.00  0.00     0.280 HD
HETATM    7  C   UNL     1      40.395 -11.998   0.777  1.00  0.00     0.246 C 
HETATM    8  C   UNL     1      37.622 -12.836   0.514  1.00  0.00     0.033 C 
HETATM    9  C   UNL     1      38.511 -12.617  -0.717  1.00  0.00     0.236 C 
ENDROOT
BRANCH   4  10
HETATM   10  C   UNL     1      41.531 -14.862   0.298  1.00  0.00     0.157 C 
BRANCH  10  11
HETATM   11  N   UNL     1      41.784 -15.586   1.544  1.00  0.00    -0.341 N 
HETATM   12  C   UNL     1      42.497 -16.761   1.615  1.00  0.00     0.320 C 
HETATM   13  N   UNL     1      42.707 -17.155   2.912  1.00  0.00    -0.309 N 
HETATM   14  O   UNL     1      42.833 -17.362   0.601  1.00  0.00    -0.247 OA
HETATM   15  H   UNL     1      42.240 -16.620   3.631  1.00  0.00     0.170 HD
HETATM   16  H   UNL     1      41.862 -15.001   2.367  1.00  0.00     0.164 HD
BRANCH  13  17
HETATM   17  C   UNL     1      43.420 -18.287   3.364  1.00  0.00     0.037 A 
HETATM   18  C   UNL     1      43.511 -19.486   2.653  1.00  0.00     0.045 A 
HETATM   19  C   UNL     1      44.237 -20.579   3.162  1.00  0.00     0.050 A 
HETATM   20  C   UNL     1      44.874 -20.453   4.405  1.00  0.00     0.016 A 
HETATM   21  C   UNL     1      44.797 -19.258   5.115  1.00  0.00     0.003 A 
HETATM   22  C   UNL     1      44.076 -18.181   4.596  1.00  0.00     0.029 A 
BRANCH  19  23
HETATM   23  C   UNL     1      44.303 -21.882   2.403  1.00  0.00     0.417 C 
HETATM   24  F   UNL     1      43.124 -22.215   1.804  1.00  0.00    -0.166 F 
HETATM   25  F   UNL     1      45.234 -21.871   1.412  1.00  0.00    -0.166 F 
HETATM   26  F   UNL     1      44.618 -22.932   3.210  1.00  0.00    -0.166 F 
ENDBRANCH  19  23
ENDBRANCH  13  17
ENDBRANCH  10  11
ENDBRANCH   4  10
BRANCH   1  27
HETATM   27  C   UNL     1      40.385 -12.415   3.247  1.00  0.00     0.045 A 
HETATM   28  N   UNL     1      41.599 -12.965   3.079  1.00  0.00    -0.238 NA
HETATM   29  C   UNL     1      42.373 -13.108   4.172  1.00  0.00     0.123 A 
HETATM   30  C   UNL     1      43.699 -13.785   4.015  1.00  0.00     0.093 C 
HETATM   31  N   UNL     1      42.047 -12.663   5.391  1.00  0.00    -0.233 NA
HETATM   32  C   UNL     1      40.840 -12.079   5.539  1.00  0.00     0.077 A 
HETATM   33  C   UNL     1      39.961 -11.949   4.480  1.00  0.00     0.060 A 
BRANCH  32  34
HETATM   34  C   UNL     1      40.585 -11.575   6.901  1.00  0.00     0.033 A 
HETATM   35  S   UNL     1      41.762 -10.674   7.776  1.00  0.00    -0.100 SA
HETATM   36  C   UNL     1      40.756 -10.528   9.147  1.00  0.00     0.050 A 
HETATM   37  C   UNL     1      39.542 -11.146   8.960  1.00  0.00     0.008 A 
HETATM   38  C   UNL     1      39.444 -11.744   7.672  1.00  0.00     0.021 A 
ENDBRANCH  32  34
ENDBRANCH   1  27
TORSDOF 6
ENDMDL
MODEL 6
REMARK VINA RESULT:      -9.3      2.442      5.728
REMARK  6 active torsions:
REMARK  status: ('A' for Active; 'I' for Inactive)
REMARK    1  A    between atoms: C_4  and  C_5 
REMARK    2  A    between atoms: C_8  and  C_9 
REMARK    3  A    between atoms: C_9  and  N_10 
REMARK       I    between atoms: N_10  and  C_11 
REMARK       I    between atoms: C_11  and  N_12 
REMARK    4  A    between atoms: N_12  and  C_13 
REMARK    5  A    between atoms: C_15  and  C_16 
REMARK    6  A    between atoms: C_30  and  C_31 
ROOT
HETATM    1  C   UNL     1      39.786 -13.825   3.691  1.00  0.00     0.068 C 
HETATM    2  C   UNL     1      40.034 -12.308   3.958  1.00  0.00     0.001 C 
HETATM    3  C   UNL     1      41.506 -12.011   4.330  1.00  0.00     0.040 C 
HETATM    4  C   UNL     1      41.956 -12.865   5.527  1.00  0.00     0.206 C 
HETATM    5  N   UNL     1      40.736 -13.665   5.978  1.00  0.00    -0.065 N 
HETATM    6  H   UNL     1      41.047 -14.250   6.786  1.00  0.00     0.280 HD
HETATM    7  C   UNL     1      40.226 -14.628   4.927  1.00  0.00     0.246 C 
HETATM    8  C   UNL     1      39.188 -11.925   5.200  1.00  0.00     0.033 C 
HETATM    9  C   UNL     1      39.631 -12.738   6.423  1.00  0.00     0.236 C 
ENDROOT
BRANCH   4  10
HETATM   10  C   UNL     1      43.201 -13.746   5.228  1.00  0.00     0.157 C 
BRANCH  10  11
HETATM   11  N   UNL     1      43.127 -15.140   5.669  1.00  0.00    -0.341 N 
HETATM   12  C   UNL     1      43.465 -16.213   4.876  1.00  0.00     0.320 C 
HETATM   13  N   UNL     1      43.441 -17.393   5.573  1.00  0.00    -0.309 N 
HETATM   14  O   UNL     1      43.704 -16.069   3.682  1.00  0.00    -0.247 OA
HETATM   15  H   UNL     1      43.085 -17.355   6.519  1.00  0.00     0.170 HD
HETATM   16  H   UNL     1      43.298 -15.282   6.657  1.00  0.00     0.164 HD
BRANCH  13  17
HETATM   17  C   UNL     1      43.759 -18.683   5.095  1.00  0.00     0.037 A 
HETATM   18  C   UNL     1      43.616 -19.078   3.763  1.00  0.00     0.045 A 
HETATM   19  C   UNL     1      43.950 -20.382   3.352  1.00  0.00     0.050 A 
HETATM   20  C   UNL     1      44.429 -21.294   4.303  1.00  0.00     0.016 A 
HETATM   21  C   UNL     1      44.583 -20.906   5.631  1.00  0.00     0.003 A 
HETATM   22  C   UNL     1      44.252 -19.607   6.024  1.00  0.00     0.029 A 
BRANCH  19  23
HETATM   23  C   UNL     1      43.762 -20.810   1.917  1.00  0.00     0.417 C 
HETATM   24  F   UNL     1      44.690 -21.719   1.502  1.00  0.00    -0.166 F 
HETATM   25  F   UNL     1      42.550 -21.383   1.688  1.00  0.00    -0.166 F 
HETATM   26  F   UNL     1      43.857 -19.763   1.051  1.00  0.00    -0.166 F 
ENDBRANCH  19  23
ENDBRANCH  13  17
ENDBRANCH  10  11
ENDBRANCH   4  10
BRANCH   1  27
HETATM   27  C   UNL     1      40.411 -14.407   2.439  1.00  0.00     0.045 A 
HETATM   28  N   UNL     1      40.507 -15.743   2.342  1.00  0.00    -0.238 NA
HETATM   29  C   UNL     1      41.036 -16.248   1.211  1.00  0.00     0.123 A 
HETATM   30  C   UNL     1      41.217 -17.731   1.117  1.00  0.00     0.093 C 
HETATM   31  N   UNL     1      41.391 -15.514   0.151  1.00  0.00    -0.233 NA
HETATM   32  C   UNL     1      41.255 -14.175   0.246  1.00  0.00     0.077 A 
HETATM   33  C   UNL     1      40.778 -13.573   1.396  1.00  0.00     0.060 A 
BRANCH  32  34
HETATM   34  C   UNL     1      41.622 -13.450  -0.984  1.00  0.00     0.033 A 
HETATM   35  S   UNL     1      42.402 -11.915  -0.940  1.00  0.00    -0.100 SA
HETATM   36  C   UNL     1      42.428 -11.784  -2.641  1.00  0.00     0.050 A 
HETATM   37  C   UNL     1      41.860 -12.879  -3.249  1.00  0.00     0.008 A 
HETATM   38  C   UNL     1      41.400 -13.833  -2.298  1.00  0.00     0.021 A 
ENDBRANCH  32  34
ENDBRANCH   1  27
TORSDOF 6
ENDMDL
MODEL 7
REMARK VINA RESULT:      -9.3      2.135      4.988
REMARK  6 active torsions:
REMARK  status: ('A' for Active; 'I' for Inactive)
REMARK    1  A    between atoms: C_4  and  C_5 
REMARK    2  A    between atoms: C_8  and  C_9 
REMARK    3  A    between atoms: C_9  and  N_10 
REMARK       I    between atoms: N_10  and  C_11 
REMARK       I    between atoms: C_11  and  N_12 
REMARK    4  A    between atoms: N_12  and  C_13 
REMARK    5  A    between atoms: C_15  and  C_16 
REMARK    6  A    between atoms: C_30  and  C_31 
ROOT
HETATM    1  C   UNL     1      40.029 -10.983   2.121  1.00  0.00     0.068 C 
HETATM    2  C   UNL     1      40.976 -10.988   3.361  1.00  0.00     0.001 C 
HETATM    3  C   UNL     1      41.435 -12.416   3.741  1.00  0.00     0.040 C 
HETATM    4  C   UNL     1      40.229 -13.343   3.961  1.00  0.00     0.206 C 
HETATM    5  N   UNL     1      38.978 -12.483   3.795  1.00  0.00    -0.065 N 
HETATM    6  H   UNL     1      38.161 -13.118   3.937  1.00  0.00     0.280 HD
HETATM    7  C   UNL     1      38.829 -11.902   2.405  1.00  0.00     0.246 C 
HETATM    8  C   UNL     1      40.148 -10.464   4.562  1.00  0.00     0.033 C 
HETATM    9  C   UNL     1      38.950 -11.386   4.830  1.00  0.00     0.236 C 
ENDROOT
BRANCH   4  10
HETATM   10  C   UNL     1      40.242 -14.604   3.053  1.00  0.00     0.157 C 
BRANCH  10  11
HETATM   11  N   UNL     1      41.527 -15.296   2.926  1.00  0.00    -0.341 N 
HETATM   12  C   UNL     1      41.816 -16.493   3.540  1.00  0.00     0.320 C 
HETATM   13  N   UNL     1      43.030 -16.990   3.144  1.00  0.00    -0.309 N 
HETATM   14  O   UNL     1      41.056 -16.981   4.369  1.00  0.00    -0.247 OA
HETATM   15  H   UNL     1      43.598 -16.393   2.559  1.00  0.00     0.170 HD
HETATM   16  H   UNL     1      41.996 -15.157   2.039  1.00  0.00     0.164 HD
BRANCH  13  17
HETATM   17  C   UNL     1      43.635 -18.204   3.541  1.00  0.00     0.037 A 
HETATM   18  C   UNL     1      43.634 -19.366   2.766  1.00  0.00     0.045 A 
HETATM   19  C   UNL     1      44.253 -20.544   3.223  1.00  0.00     0.050 A 
HETATM   20  C   UNL     1      44.878 -20.542   4.478  1.00  0.00     0.016 A 
HETATM   21  C   UNL     1      44.891 -19.385   5.253  1.00  0.00     0.003 A 
HETATM   22  C   UNL     1      44.275 -18.223   4.786  1.00  0.00     0.029 A 
BRANCH  19  23
HETATM   23  C   UNL     1      44.220 -21.804   2.393  1.00  0.00     0.417 C 
HETATM   24  F   UNL     1      45.159 -21.821   1.404  1.00  0.00    -0.166 F 
HETATM   25  F   UNL     1      44.432 -22.929   3.128  1.00  0.00    -0.166 F 
HETATM   26  F   UNL     1      43.022 -21.978   1.770  1.00  0.00    -0.166 F 
ENDBRANCH  19  23
ENDBRANCH  13  17
ENDBRANCH  10  11
ENDBRANCH   4  10
BRANCH   1  27
HETATM   27  C   UNL     1      40.654 -11.335   0.785  1.00  0.00     0.045 A 
HETATM   28  N   UNL     1      41.776 -10.690   0.422  1.00  0.00    -0.238 NA
HETATM   29  C   UNL     1      42.338 -11.035  -0.752  1.00  0.00     0.123 A 
HETATM   30  C   UNL     1      43.546 -10.276  -1.206  1.00  0.00     0.093 C 
HETATM   31  N   UNL     1      41.903 -12.029  -1.534  1.00  0.00    -0.233 NA
HETATM   32  C   UNL     1      40.797 -12.694  -1.140  1.00  0.00     0.077 A 
HETATM   33  C   UNL     1      40.125 -12.361   0.021  1.00  0.00     0.060 A 
BRANCH  32  34
HETATM   34  C   UNL     1      40.419 -13.803  -2.034  1.00  0.00     0.033 A 
HETATM   35  S   UNL     1      39.030 -13.724  -3.049  1.00  0.00    -0.100 SA
HETATM   36  C   UNL     1      39.285 -15.295  -3.665  1.00  0.00     0.050 A 
HETATM   37  C   UNL     1      40.402 -15.884  -3.122  1.00  0.00     0.008 A 
HETATM   38  C   UNL     1      41.052 -15.028  -2.189  1.00  0.00     0.021 A 
ENDBRANCH  32  34
ENDBRANCH   1  27
TORSDOF 6
ENDMDL
MODEL 8
REMARK VINA RESULT:      -9.2      2.494      5.718
REMARK  6 active torsions:
REMARK  status: ('A' for Active; 'I' for Inactive)
REMARK    1  A    between atoms: C_4  and  C_5 
REMARK    2  A    between atoms: C_8  and  C_9 
REMARK    3  A    between atoms: C_9  and  N_10 
REMARK       I    between atoms: N_10  and  C_11 
REMARK       I    between atoms: C_11  and  N_12 
REMARK    4  A    between atoms: N_12  and  C_13 
REMARK    5  A    between atoms: C_15  and  C_16 
REMARK    6  A    between atoms: C_30  and  C_31 
ROOT
HETATM    1  C   UNL     1      40.274 -12.182   3.398  1.00  0.00     0.068 C 
HETATM    2  C   UNL     1      41.491 -11.650   4.217  1.00  0.00     0.001 C 
HETATM    3  C   UNL     1      42.130 -12.750   5.097  1.00  0.00     0.040 C 
HETATM    4  C   UNL     1      41.083 -13.399   6.018  1.00  0.00     0.206 C 
HETATM    5  N   UNL     1      39.770 -12.654   5.781  1.00  0.00    -0.065 N 
HETATM    6  H   UNL     1      39.060 -13.103   6.402  1.00  0.00     0.280 HD
HETATM    7  C   UNL     1      39.247 -12.792   4.367  1.00  0.00     0.246 C 
HETATM    8  C   UNL     1      40.943 -10.578   5.193  1.00  0.00     0.033 C 
HETATM    9  C   UNL     1      39.915 -11.198   6.150  1.00  0.00     0.236 C 
ENDROOT
BRANCH   4  10
HETATM   10  C   UNL     1      40.967 -14.938   5.838  1.00  0.00     0.157 C 
BRANCH  10  11
HETATM   11  N   UNL     1      42.127 -15.610   5.251  1.00  0.00    -0.341 N 
HETATM   12  C   UNL     1      42.181 -16.960   4.993  1.00  0.00     0.320 C 
HETATM   13  N   UNL     1      43.321 -17.307   4.315  1.00  0.00    -0.309 N 
HETATM   14  O   UNL     1      41.303 -17.718   5.391  1.00  0.00    -0.247 OA
HETATM   15  H   UNL     1      44.012 -16.581   4.187  1.00  0.00     0.170 HD
HETATM   16  H   UNL     1      42.667 -15.041   4.610  1.00  0.00     0.164 HD
BRANCH  13  17
HETATM   17  C   UNL     1      43.695 -18.591   3.859  1.00  0.00     0.037 A 
HETATM   18  C   UNL     1      44.004 -19.658   4.705  1.00  0.00     0.045 A 
HETATM   19  C   UNL     1      44.373 -20.913   4.185  1.00  0.00     0.050 A 
HETATM   20  C   UNL     1      44.431 -21.084   2.794  1.00  0.00     0.016 A 
HETATM   21  C   UNL     1      44.116 -20.027   1.944  1.00  0.00     0.003 A 
HETATM   22  C   UNL     1      43.748 -18.788   2.475  1.00  0.00     0.029 A 
BRANCH  19  23
HETATM   23  C   UNL     1      44.736 -22.053   5.105  1.00  0.00     0.417 C 
HETATM   24  F   UNL     1      44.177 -23.241   4.736  1.00  0.00    -0.166 F 
HETATM   25  F   UNL     1      46.077 -22.275   5.170  1.00  0.00    -0.166 F 
HETATM   26  F   UNL     1      44.325 -21.832   6.385  1.00  0.00    -0.166 F 
ENDBRANCH  19  23
ENDBRANCH  13  17
ENDBRANCH  10  11
ENDBRANCH   4  10
BRANCH   1  27
HETATM   27  C   UNL     1      40.580 -13.156   2.278  1.00  0.00     0.045 A 
HETATM   28  N   UNL     1      40.423 -14.469   2.520  1.00  0.00    -0.238 NA
HETATM   29  C   UNL     1      40.669 -15.322   1.508  1.00  0.00     0.123 A 
HETATM   30  C   UNL     1      40.569 -16.790   1.781  1.00  0.00     0.093 C 
HETATM   31  N   UNL     1      40.975 -14.944   0.261  1.00  0.00    -0.233 NA
HETATM   32  C   UNL     1      41.094 -13.622   0.022  1.00  0.00     0.077 A 
HETATM   33  C   UNL     1      40.919 -12.684   1.021  1.00  0.00     0.060 A 
BRANCH  32  34
HETATM   34  C   UNL     1      41.384 -13.295  -1.387  1.00  0.00     0.033 A 
HETATM   35  S   UNL     1      42.679 -12.252  -1.833  1.00  0.00    -0.100 SA
HETATM   36  C   UNL     1      42.317 -12.374  -3.496  1.00  0.00     0.050 A 
HETATM   37  C   UNL     1      41.235 -13.191  -3.728  1.00  0.00     0.008 A 
HETATM   38  C   UNL     1      40.703 -13.720  -2.518  1.00  0.00     0.021 A 
ENDBRANCH  32  34
ENDBRANCH   1  27
TORSDOF 6
ENDMDL
MODEL 9
REMARK VINA RESULT:      -9.2      1.851      2.301
REMARK  6 active torsions:
REMARK  status: ('A' for Active; 'I' for Inactive)
REMARK    1  A    between atoms: C_4  and  C_5 
REMARK    2  A    between atoms: C_8  and  C_9 
REMARK    3  A    between atoms: C_9  and  N_10 
REMARK       I    between atoms: N_10  and  C_11 
REMARK       I    between atoms: C_11  and  N_12 
REMARK    4  A    between atoms: N_12  and  C_13 
REMARK    5  A    between atoms: C_15  and  C_16 
REMARK    6  A    between atoms: C_30  and  C_31 
ROOT
HETATM    1  C   UNL     1      40.589 -11.964  -1.199  1.00  0.00     0.068 C 
HETATM    2  C   UNL     1      40.010 -12.605  -2.498  1.00  0.00     0.001 C 
HETATM    3  C   UNL     1      39.782 -14.128  -2.348  1.00  0.00     0.040 C 
HETATM    4  C   UNL     1      41.072 -14.839  -1.907  1.00  0.00     0.206 C 
HETATM    5  N   UNL     1      42.162 -13.770  -1.846  1.00  0.00    -0.065 N 
HETATM    6  H   UNL     1      43.034 -14.255  -1.538  1.00  0.00     0.280 HD
HETATM    7  C   UNL     1      41.890 -12.691  -0.819  1.00  0.00     0.246 C 
HETATM    8  C   UNL     1      41.084 -12.434  -3.602  1.00  0.00     0.033 C 
HETATM    9  C   UNL     1      42.379 -13.158  -3.208  1.00  0.00     0.236 C 
ENDROOT
BRANCH   4  10
HETATM   10  C   UNL     1      40.917 -15.645  -0.588  1.00  0.00     0.157 C 
BRANCH  10  11
HETATM   11  N   UNL     1      42.138 -16.251  -0.053  1.00  0.00    -0.341 N 
HETATM   12  C   UNL     1      42.185 -16.971   1.119  1.00  0.00     0.320 C 
HETATM   13  N   UNL     1      43.414 -17.545   1.317  1.00  0.00    -0.309 N 
HETATM   14  O   UNL     1      41.222 -17.015   1.876  1.00  0.00    -0.247 OA
HETATM   15  H   UNL     1      44.144 -17.293   0.665  1.00  0.00     0.170 HD
HETATM   16  H   UNL     1      42.804 -16.551  -0.754  1.00  0.00     0.164 HD
BRANCH  13  17
HETATM   17  C   UNL     1      43.815 -18.373   2.389  1.00  0.00     0.037 A 
HETATM   18  C   UNL     1      43.991 -17.922   3.698  1.00  0.00     0.045 A 
HETATM   19  C   UNL     1      44.396 -18.800   4.721  1.00  0.00     0.050 A 
HETATM   20  C   UNL     1      44.626 -20.148   4.410  1.00  0.00     0.016 A 
HETATM   21  C   UNL     1      44.444 -20.608   3.108  1.00  0.00     0.003 A 
HETATM   22  C   UNL     1      44.039 -19.725   2.104  1.00  0.00     0.029 A 
BRANCH  19  23
HETATM   23  C   UNL     1      44.615 -18.298   6.127  1.00  0.00     0.417 C 
HETATM   24  F   UNL     1      44.214 -19.185   7.083  1.00  0.00    -0.166 F 
HETATM   25  F   UNL     1      45.920 -18.025   6.396  1.00  0.00    -0.166 F 
HETATM   26  F   UNL     1      43.927 -17.149   6.376  1.00  0.00    -0.166 F 
ENDBRANCH  19  23
ENDBRANCH  13  17
ENDBRANCH  10  11
ENDBRANCH   4  10
BRANCH   1  27
HETATM   27  C   UNL     1      39.660 -11.893  -0.002  1.00  0.00     0.045 A 
HETATM   28  N   UNL     1      38.378 -11.555  -0.217  1.00  0.00    -0.238 NA
HETATM   29  C   UNL     1      37.556 -11.525   0.850  1.00  0.00     0.123 A 
HETATM   30  C   UNL     1      36.142 -11.081   0.640  1.00  0.00     0.093 C 
HETATM   31  N   UNL     1      37.912 -11.890   2.087  1.00  0.00    -0.233 NA
HETATM   32  C   UNL     1      39.194 -12.263   2.282  1.00  0.00     0.077 A 
HETATM   33  C   UNL     1      40.116 -12.261   1.252  1.00  0.00     0.060 A 
BRANCH  32  34
HETATM   34  C   UNL     1      39.486 -12.696   3.661  1.00  0.00     0.033 A 
HETATM   35  S   UNL     1      40.456 -14.078   3.998  1.00  0.00    -0.100 SA
HETATM   36  C   UNL     1      40.274 -13.900   5.685  1.00  0.00     0.050 A 
HETATM   37  C   UNL     1      39.494 -12.815   6.006  1.00  0.00     0.008 A 
HETATM   38  C   UNL     1      39.045 -12.124   4.845  1.00  0.00     0.021 A 
ENDBRANCH  32  34
ENDBRANCH   1  27
TORSDOF 6
ENDMDL
MODEL 10
REMARK VINA RESULT:      -9.1      5.468      8.779
REMARK  6 active torsions:
REMARK  status: ('A' for Active; 'I' for Inactive)
REMARK    1  A    between atoms: C_4  and  C_5 
REMARK    2  A    between atoms: C_8  and  C_9 
REMARK    3  A    between atoms: C_9  and  N_10 
REMARK       I    between atoms: N_10  and  C_11 
REMARK       I    between atoms: C_11  and  N_12 
REMARK    4  A    between atoms: N_12  and  C_13 
REMARK    5  A    between atoms: C_15  and  C_16 
REMARK    6  A    between atoms: C_30  and  C_31 
ROOT
HETATM    1  C   UNL     1      40.766 -16.408   1.711  1.00  0.00     0.068 C 
HETATM    2  C   UNL     1      41.490 -15.523   0.650  1.00  0.00     0.001 C 
HETATM    3  C   UNL     1      42.419 -14.470   1.301  1.00  0.00     0.040 C 
HETATM    4  C   UNL     1      41.649 -13.604   2.311  1.00  0.00     0.206 C 
HETATM    5  N   UNL     1      40.191 -14.056   2.255  1.00  0.00    -0.065 N 
HETATM    6  H   UNL     1      39.673 -13.472   2.948  1.00  0.00     0.280 HD
HETATM    7  C   UNL     1      39.990 -15.496   2.677  1.00  0.00     0.246 C 
HETATM    8  C   UNL     1      40.391 -14.727  -0.099  1.00  0.00     0.033 C 
HETATM    9  C   UNL     1      39.620 -13.827   0.876  1.00  0.00     0.236 C 
ENDROOT
BRANCH   4  10
HETATM   10  C   UNL     1      42.254 -13.635   3.743  1.00  0.00     0.157 C 
BRANCH  10  11
HETATM   11  N   UNL     1      41.717 -12.659   4.693  1.00  0.00    -0.341 N 
HETATM   12  C   UNL     1      42.203 -12.484   5.968  1.00  0.00     0.320 C 
HETATM   13  N   UNL     1      41.619 -11.415   6.596  1.00  0.00    -0.309 N 
HETATM   14  O   UNL     1      43.027 -13.257   6.444  1.00  0.00    -0.247 OA
HETATM   15  H   UNL     1      40.853 -10.967   6.113  1.00  0.00     0.170 HD
HETATM   16  H   UNL     1      41.342 -11.818   4.270  1.00  0.00     0.164 HD
BRANCH  13  17
HETATM   17  C   UNL     1      41.892 -10.923   7.892  1.00  0.00     0.037 A 
HETATM   18  C   UNL     1      43.091 -11.143   8.573  1.00  0.00     0.045 A 
HETATM   19  C   UNL     1      43.297 -10.626   9.866  1.00  0.00     0.050 A 
HETATM   20  C   UNL     1      42.276  -9.881  10.472  1.00  0.00     0.016 A 
HETATM   21  C   UNL     1      41.081  -9.649   9.796  1.00  0.00     0.003 A 
HETATM   22  C   UNL     1      40.891 -10.166   8.513  1.00  0.00     0.029 A 
BRANCH  19  23
HETATM   23  C   UNL     1      44.584 -10.895  10.607  1.00  0.00     0.417 C 
HETATM   24  F   UNL     1      44.807 -12.222  10.832  1.00  0.00    -0.166 F 
HETATM   25  F   UNL     1      45.682 -10.439   9.947  1.00  0.00    -0.166 F 
HETATM   26  F   UNL     1      44.604 -10.304  11.834  1.00  0.00    -0.166 F 
ENDBRANCH  19  23
ENDBRANCH  13  17
ENDBRANCH  10  11
ENDBRANCH   4  10
BRANCH   1  27
HETATM   27  C   UNL     1      41.629 -17.382   2.489  1.00  0.00     0.045 A 
HETATM   28  N   UNL     1      42.262 -18.350   1.806  1.00  0.00    -0.238 NA
HETATM   29  C   UNL     1      43.050 -19.190   2.504  1.00  0.00     0.123 A 
HETATM   30  C   UNL     1      43.706 -20.317   1.771  1.00  0.00     0.093 C 
HETATM   31  N   UNL     1      43.308 -19.070   3.812  1.00  0.00    -0.233 NA
HETATM   32  C   UNL     1      42.694 -18.071   4.479  1.00  0.00     0.077 A 
HETATM   33  C   UNL     1      41.822 -17.204   3.848  1.00  0.00     0.060 A 
BRANCH  32  34
HETATM   34  C   UNL     1      43.073 -17.984   5.901  1.00  0.00     0.033 A 
HETATM   35  S   UNL     1      42.442 -16.765   6.940  1.00  0.00    -0.100 SA
HETATM   36  C   UNL     1      43.343 -17.319   8.279  1.00  0.00     0.050 A 
HETATM   37  C   UNL     1      44.114 -18.412   7.962  1.00  0.00     0.008 A 
HETATM   38  C   UNL     1      43.957 -18.793   6.599  1.00  0.00     0.021 A 
ENDBRANCH  32  34
ENDBRANCH   1  27
TORSDOF 6
ENDMDL
