MODEL 1
REMARK VINA RESULT:      -8.0      0.000      0.000
REMARK  8 active torsions:
REMARK  status: ('A' for Active; 'I' for Inactive)
REMARK    1  A    between atoms: C_4  and  O_5 
REMARK    2  A    between atoms: O_5  and  C_6 
REMARK    3  A    between atoms: C_6  and  C_7 
REMARK    4  A    between atoms: C_7  and  N_8 
REMARK    5  A    between atoms: N_8  and  C_9 
REMARK    6  A    between atoms: C_10  and  C_11 
REMARK       I    between atoms: C_11  and  N_12 
REMARK    7  A    between atoms: N_12  and  C_13 
REMARK    8  A    between atoms: C_13  and  C_14 
ROOT
HETATM    1  C   UNL     1      42.666 -16.331   6.825  1.00  0.00     0.024 A 
HETATM    2  C   UNL     1      42.821 -15.088   6.171  1.00  0.00     0.053 A 
HETATM    3  C   UNL     1      41.899 -14.694   5.183  1.00  0.00     0.019 A 
HETATM    4  C   UNL     1      40.845 -15.528   4.816  1.00  0.00     0.001 A 
HETATM    5  C   UNL     1      40.702 -16.767   5.430  1.00  0.00     0.002 A 
HETATM    6  C   UNL     1      41.601 -17.162   6.424  1.00  0.00     0.024 A 
ENDROOT
BRANCH   1   7
HETATM    7  N   UNL     1      43.465 -16.768   7.908  1.00  0.00    -0.290 NA
HETATM    8  H   UNL     1      44.157 -16.064   8.162  1.00  0.00     0.127 HD
BRANCH   7   9
HETATM    9  C   UNL     1      44.111 -18.085   7.728  1.00  0.00     0.119 C 
BRANCH   9  10
HETATM   10  C   UNL     1      45.074 -18.143   6.534  1.00  0.00     0.190 C 
BRANCH  10  11
HETATM   11  O   UNL     1      44.897 -19.351   5.790  1.00  0.00    -0.350 OA
BRANCH  11  12
HETATM   12  C   UNL     1      44.443 -19.253   4.503  1.00  0.00     0.068 A 
HETATM   13  C   UNL     1      43.944 -18.104   3.889  1.00  0.00     0.037 A 
HETATM   14  C   UNL     1      43.498 -18.154   2.564  1.00  0.00     0.003 A 
HETATM   15  C   UNL     1      43.550 -19.349   1.848  1.00  0.00     0.000 A 
HETATM   16  C   UNL     1      44.041 -20.498   2.458  1.00  0.00     0.003 A 
HETATM   17  C   UNL     1      44.480 -20.450   3.782  1.00  0.00     0.037 A 
ENDBRANCH  11  12
ENDBRANCH  10  11
ENDBRANCH   9  10
ENDBRANCH   7   9
ENDBRANCH   1   7
BRANCH   2  18
HETATM   18  C   UNL     1      43.959 -14.151   6.403  1.00  0.00     0.253 C 
HETATM   19  N   UNL     1      44.201 -13.801   7.706  1.00  0.00    -0.351 N 
HETATM   20  H   UNL     1      43.591 -14.175   8.430  1.00  0.00     0.163 HD
HETATM   21  O   UNL     1      44.646 -13.763   5.465  1.00  0.00    -0.268 OA
BRANCH  19  22
HETATM   22  C   UNL     1      45.342 -13.008   8.083  1.00  0.00     0.187 C 
BRANCH  22  23
HETATM   23  C   UNL     1      45.027 -12.275   9.331  1.00  0.00     0.070 A 
HETATM   24  O   UNL     1      44.353 -12.967  10.296  1.00  0.00    -0.325 OA
HETATM   25  C   UNL     1      44.170 -12.117  11.339  1.00  0.00     0.142 A 
HETATM   26  C   UNL     1      44.713 -10.886  11.057  1.00  0.00     0.027 A 
HETATM   27  C   UNL     1      45.265 -10.984   9.758  1.00  0.00     0.036 A 
ENDBRANCH  22  23
ENDBRANCH  19  22
ENDBRANCH   2  18
TORSDOF 8
ENDMDL
MODEL 2
REMARK VINA RESULT:      -7.8      1.946      3.222
REMARK  8 active torsions:
REMARK  status: ('A' for Active; 'I' for Inactive)
REMARK    1  A    between atoms: C_4  and  O_5 
REMARK    2  A    between atoms: O_5  and  C_6 
REMARK    3  A    between atoms: C_6  and  C_7 
REMARK    4  A    between atoms: C_7  and  N_8 
REMARK    5  A    between atoms: N_8  and  C_9 
REMARK    6  A    between atoms: C_10  and  C_11 
REMARK       I    between atoms: C_11  and  N_12 
REMARK    7  A    between atoms: N_12  and  C_13 
REMARK    8  A    between atoms: C_13  and  C_14 
ROOT
HETATM    1  C   UNL     1      41.793 -15.633   6.006  1.00  0.00     0.024 A 
HETATM    2  C   UNL     1      43.203 -15.551   5.974  1.00  0.00     0.053 A 
HETATM    3  C   UNL     1      43.972 -16.721   5.830  1.00  0.00     0.019 A 
HETATM    4  C   UNL     1      43.363 -17.971   5.747  1.00  0.00     0.001 A 
HETATM    5  C   UNL     1      41.977 -18.067   5.810  1.00  0.00     0.002 A 
HETATM    6  C   UNL     1      41.202 -16.911   5.935  1.00  0.00     0.024 A 
ENDROOT
BRANCH   1   7
HETATM    7  N   UNL     1      40.928 -14.513   6.029  1.00  0.00    -0.290 NA
HETATM    8  H   UNL     1      40.394 -14.478   6.897  1.00  0.00     0.127 HD
BRANCH   7   9
HETATM    9  C   UNL     1      40.027 -14.384   4.863  1.00  0.00     0.119 C 
BRANCH   9  10
HETATM   10  C   UNL     1      40.763 -14.149   3.536  1.00  0.00     0.190 C 
BRANCH  10  11
HETATM   11  O   UNL     1      40.502 -15.207   2.611  1.00  0.00    -0.350 OA
BRANCH  11  12
HETATM   12  C   UNL     1      41.497 -16.115   2.376  1.00  0.00     0.068 A 
HETATM   13  C   UNL     1      41.336 -17.487   2.183  1.00  0.00     0.037 A 
HETATM   14  C   UNL     1      42.452 -18.302   1.967  1.00  0.00     0.003 A 
HETATM   15  C   UNL     1      43.732 -17.751   1.940  1.00  0.00     0.000 A 
HETATM   16  C   UNL     1      43.899 -16.384   2.137  1.00  0.00     0.003 A 
HETATM   17  C   UNL     1      42.785 -15.572   2.359  1.00  0.00     0.037 A 
ENDBRANCH  11  12
ENDBRANCH  10  11
ENDBRANCH   9  10
ENDBRANCH   7   9
ENDBRANCH   1   7
BRANCH   2  18
HETATM   18  C   UNL     1      43.976 -14.287   6.152  1.00  0.00     0.253 C 
HETATM   19  N   UNL     1      44.802 -14.230   7.244  1.00  0.00    -0.351 N 
HETATM   20  H   UNL     1      44.828 -15.028   7.875  1.00  0.00     0.163 HD
HETATM   21  O   UNL     1      43.887 -13.382   5.329  1.00  0.00    -0.268 OA
BRANCH  19  22
HETATM   22  C   UNL     1      45.698 -13.124   7.465  1.00  0.00     0.187 C 
BRANCH  22  23
HETATM   23  C   UNL     1      45.359 -12.483   8.758  1.00  0.00     0.070 A 
HETATM   24  O   UNL     1      44.507 -13.166   9.578  1.00  0.00    -0.325 OA
HETATM   25  C   UNL     1      44.335 -12.408  10.691  1.00  0.00     0.142 A 
HETATM   26  C   UNL     1      45.060 -11.244  10.597  1.00  0.00     0.027 A 
HETATM   27  C   UNL     1      45.721 -11.289   9.347  1.00  0.00     0.036 A 
ENDBRANCH  22  23
ENDBRANCH  19  22
ENDBRANCH   2  18
TORSDOF 8
ENDMDL
MODEL 3
REMARK VINA RESULT:      -7.7      3.224      6.744
REMARK  8 active torsions:
REMARK  status: ('A' for Active; 'I' for Inactive)
REMARK    1  A    between atoms: C_4  and  O_5 
REMARK    2  A    between atoms: O_5  and  C_6 
REMARK    3  A    between atoms: C_6  and  C_7 
REMARK    4  A    between atoms: C_7  and  N_8 
REMARK    5  A    between atoms: N_8  and  C_9 
REMARK    6  A    between atoms: C_10  and  C_11 
REMARK       I    between atoms: C_11  and  N_12 
REMARK    7  A    between atoms: N_12  and  C_13 
REMARK    8  A    between atoms: C_13  and  C_14 
ROOT
HETATM    1  C   UNL     1      44.604 -20.218   4.170  1.00  0.00     0.024 A 
HETATM    2  C   UNL     1      44.035 -19.621   3.022  1.00  0.00     0.053 A 
HETATM    3  C   UNL     1      43.662 -20.422   1.927  1.00  0.00     0.019 A 
HETATM    4  C   UNL     1      43.872 -21.799   1.943  1.00  0.00     0.001 A 
HETATM    5  C   UNL     1      44.461 -22.392   3.054  1.00  0.00     0.002 A 
HETATM    6  C   UNL     1      44.819 -21.610   4.155  1.00  0.00     0.024 A 
ENDROOT
BRANCH   1   7
HETATM    7  N   UNL     1      44.904 -19.521   5.365  1.00  0.00    -0.290 NA
HETATM    8  H   UNL     1      45.836 -19.757   5.704  1.00  0.00     0.127 HD
BRANCH   7   9
HETATM    9  C   UNL     1      43.909 -19.665   6.449  1.00  0.00     0.119 C 
BRANCH   9  10
HETATM   10  C   UNL     1      44.124 -18.694   7.618  1.00  0.00     0.190 C 
BRANCH  10  11
HETATM   11  O   UNL     1      42.959 -17.900   7.847  1.00  0.00    -0.350 OA
BRANCH  11  12
HETATM   12  C   UNL     1      42.757 -16.809   7.046  1.00  0.00     0.068 A 
HETATM   13  C   UNL     1      43.630 -15.734   6.879  1.00  0.00     0.037 A 
HETATM   14  C   UNL     1      43.285 -14.673   6.035  1.00  0.00     0.003 A 
HETATM   15  C   UNL     1      42.070 -14.684   5.352  1.00  0.00     0.000 A 
HETATM   16  C   UNL     1      41.194 -15.751   5.519  1.00  0.00     0.003 A 
HETATM   17  C   UNL     1      41.536 -16.806   6.367  1.00  0.00     0.037 A 
ENDBRANCH  11  12
ENDBRANCH  10  11
ENDBRANCH   9  10
ENDBRANCH   7   9
ENDBRANCH   1   7
BRANCH   2  18
HETATM   18  C   UNL     1      43.850 -18.151   2.841  1.00  0.00     0.253 C 
HETATM   19  N   UNL     1      43.407 -17.743   1.610  1.00  0.00    -0.351 N 
HETATM   20  H   UNL     1      43.252 -18.447   0.892  1.00  0.00     0.163 HD
HETATM   21  O   UNL     1      44.052 -17.379   3.772  1.00  0.00    -0.268 OA
BRANCH  19  22
HETATM   22  C   UNL     1      43.065 -16.371   1.340  1.00  0.00     0.187 C 
BRANCH  22  23
HETATM   23  C   UNL     1      41.637 -16.158   1.671  1.00  0.00     0.070 A 
HETATM   24  O   UNL     1      41.224 -14.863   1.810  1.00  0.00    -0.325 OA
HETATM   25  C   UNL     1      39.901 -14.898   2.108  1.00  0.00     0.142 A 
HETATM   26  C   UNL     1      39.455 -16.198   2.168  1.00  0.00     0.027 A 
HETATM   27  C   UNL     1      40.576 -17.014   1.888  1.00  0.00     0.036 A 
ENDBRANCH  22  23
ENDBRANCH  19  22
ENDBRANCH   2  18
TORSDOF 8
ENDMDL
MODEL 4
REMARK VINA RESULT:      -7.6      1.567      2.652
REMARK  8 active torsions:
REMARK  status: ('A' for Active; 'I' for Inactive)
REMARK    1  A    between atoms: C_4  and  O_5 
REMARK    2  A    between atoms: O_5  and  C_6 
REMARK    3  A    between atoms: C_6  and  C_7 
REMARK    4  A    between atoms: C_7  and  N_8 
REMARK    5  A    between atoms: N_8  and  C_9 
REMARK    6  A    between atoms: C_10  and  C_11 
REMARK       I    between atoms: C_11  and  N_12 
REMARK    7  A    between atoms: N_12  and  C_13 
REMARK    8  A    between atoms: C_13  and  C_14 
ROOT
HETATM    1  C   UNL     1      43.060 -16.156   5.279  1.00  0.00     0.024 A 
HETATM    2  C   UNL     1      43.689 -15.676   6.450  1.00  0.00     0.053 A 
HETATM    3  C   UNL     1      43.610 -16.418   7.643  1.00  0.00     0.019 A 
HETATM    4  C   UNL     1      42.892 -17.611   7.698  1.00  0.00     0.001 A 
HETATM    5  C   UNL     1      42.242 -18.075   6.560  1.00  0.00     0.002 A 
HETATM    6  C   UNL     1      42.329 -17.357   5.364  1.00  0.00     0.024 A 
ENDROOT
BRANCH   1   7
HETATM    7  N   UNL     1      43.178 -15.550   4.006  1.00  0.00    -0.290 NA
HETATM    8  H   UNL     1      42.707 -14.646   3.983  1.00  0.00     0.127 HD
BRANCH   7   9
HETATM    9  C   UNL     1      42.745 -16.385   2.864  1.00  0.00     0.119 C 
BRANCH   9  10
HETATM   10  C   UNL     1      43.896 -17.132   2.175  1.00  0.00     0.190 C 
BRANCH  10  11
HETATM   11  O   UNL     1      43.435 -18.348   1.581  1.00  0.00    -0.350 OA
BRANCH  11  12
HETATM   12  C   UNL     1      43.817 -19.529   2.158  1.00  0.00     0.068 A 
HETATM   13  C   UNL     1      43.640 -20.805   1.623  1.00  0.00     0.037 A 
HETATM   14  C   UNL     1      44.069 -21.930   2.334  1.00  0.00     0.003 A 
HETATM   15  C   UNL     1      44.678 -21.786   3.580  1.00  0.00     0.000 A 
HETATM   16  C   UNL     1      44.852 -20.516   4.120  1.00  0.00     0.003 A 
HETATM   17  C   UNL     1      44.418 -19.394   3.413  1.00  0.00     0.037 A 
ENDBRANCH  11  12
ENDBRANCH  10  11
ENDBRANCH   9  10
ENDBRANCH   7   9
ENDBRANCH   1   7
BRANCH   2  18
HETATM   18  C   UNL     1      44.403 -14.369   6.548  1.00  0.00     0.253 C 
HETATM   19  N   UNL     1      44.659 -13.912   7.814  1.00  0.00    -0.351 N 
HETATM   20  H   UNL     1      44.337 -14.466   8.605  1.00  0.00     0.163 HD
HETATM   21  O   UNL     1      44.761 -13.779   5.535  1.00  0.00    -0.268 OA
BRANCH  19  22
HETATM   22  C   UNL     1      45.449 -12.731   8.052  1.00  0.00     0.187 C 
BRANCH  22  23
HETATM   23  C   UNL     1      45.031 -12.126   9.339  1.00  0.00     0.070 A 
HETATM   24  O   UNL     1      44.456 -12.961  10.253  1.00  0.00    -0.325 OA
HETATM   25  C   UNL     1      44.155 -12.209  11.343  1.00  0.00     0.142 A 
HETATM   26  C   UNL     1      44.524 -10.900  11.141  1.00  0.00     0.027 A 
HETATM   27  C   UNL     1      45.088 -10.843   9.844  1.00  0.00     0.036 A 
ENDBRANCH  22  23
ENDBRANCH  19  22
ENDBRANCH   2  18
TORSDOF 8
ENDMDL
MODEL 5
REMARK VINA RESULT:      -7.6      2.978      5.975
REMARK  8 active torsions:
REMARK  status: ('A' for Active; 'I' for Inactive)
REMARK    1  A    between atoms: C_4  and  O_5 
REMARK    2  A    between atoms: O_5  and  C_6 
REMARK    3  A    between atoms: C_6  and  C_7 
REMARK    4  A    between atoms: C_7  and  N_8 
REMARK    5  A    between atoms: N_8  and  C_9 
REMARK    6  A    between atoms: C_10  and  C_11 
REMARK       I    between atoms: C_11  and  N_12 
REMARK    7  A    between atoms: N_12  and  C_13 
REMARK    8  A    between atoms: C_13  and  C_14 
ROOT
HETATM    1  C   UNL     1      43.137 -16.553   6.725  1.00  0.00     0.024 A 
HETATM    2  C   UNL     1      42.747 -16.075   5.454  1.00  0.00     0.053 A 
HETATM    3  C   UNL     1      43.264 -14.858   4.973  1.00  0.00     0.019 A 
HETATM    4  C   UNL     1      44.137 -14.096   5.746  1.00  0.00     0.001 A 
HETATM    5  C   UNL     1      44.501 -14.541   7.012  1.00  0.00     0.002 A 
HETATM    6  C   UNL     1      44.009 -15.757   7.493  1.00  0.00     0.024 A 
ENDROOT
BRANCH   1   7
HETATM    7  N   UNL     1      42.770 -17.815   7.250  1.00  0.00    -0.290 NA
HETATM    8  H   UNL     1      42.182 -17.713   8.077  1.00  0.00     0.127 HD
BRANCH   7   9
HETATM    9  C   UNL     1      43.892 -18.738   7.525  1.00  0.00     0.119 C 
BRANCH   9  10
HETATM   10  C   UNL     1      44.077 -19.822   6.454  1.00  0.00     0.190 C 
BRANCH  10  11
HETATM   11  O   UNL     1      44.577 -19.262   5.238  1.00  0.00    -0.350 OA
BRANCH  11  12
HETATM   12  C   UNL     1      44.319 -19.928   4.071  1.00  0.00     0.068 A 
HETATM   13  C   UNL     1      43.677 -19.409   2.947  1.00  0.00     0.037 A 
HETATM   14  C   UNL     1      43.467 -20.215   1.823  1.00  0.00     0.003 A 
HETATM   15  C   UNL     1      43.899 -21.540   1.816  1.00  0.00     0.000 A 
HETATM   16  C   UNL     1      44.535 -22.065   2.936  1.00  0.00     0.003 A 
HETATM   17  C   UNL     1      44.738 -21.262   4.060  1.00  0.00     0.037 A 
ENDBRANCH  11  12
ENDBRANCH  10  11
ENDBRANCH   9  10
ENDBRANCH   7   9
ENDBRANCH   1   7
BRANCH   2  18
HETATM   18  C   UNL     1      41.746 -16.746   4.573  1.00  0.00     0.253 C 
HETATM   19  N   UNL     1      41.707 -16.324   3.269  1.00  0.00    -0.351 N 
HETATM   20  H   UNL     1      42.335 -15.577   2.982  1.00  0.00     0.163 HD
HETATM   21  O   UNL     1      41.039 -17.648   5.009  1.00  0.00    -0.268 OA
BRANCH  19  22
HETATM   22  C   UNL     1      40.881 -16.972   2.284  1.00  0.00     0.187 C 
BRANCH  22  23
HETATM   23  C   UNL     1      40.844 -16.134   1.062  1.00  0.00     0.070 A 
HETATM   24  O   UNL     1      40.056 -15.019   1.105  1.00  0.00    -0.325 OA
HETATM   25  C   UNL     1      40.168 -14.407  -0.102  1.00  0.00     0.142 A 
HETATM   26  C   UNL     1      41.015 -15.114  -0.923  1.00  0.00     0.027 A 
HETATM   27  C   UNL     1      41.451 -16.232  -0.173  1.00  0.00     0.036 A 
ENDBRANCH  22  23
ENDBRANCH  19  22
ENDBRANCH   2  18
TORSDOF 8
ENDMDL
MODEL 6
REMARK VINA RESULT:      -7.5      2.988      6.092
REMARK  8 active torsions:
REMARK  status: ('A' for Active; 'I' for Inactive)
REMARK    1  A    between atoms: C_4  and  O_5 
REMARK    2  A    between atoms: O_5  and  C_6 
REMARK    3  A    between atoms: C_6  and  C_7 
REMARK    4  A    between atoms: C_7  and  N_8 
REMARK    5  A    between atoms: N_8  and  C_9 
REMARK    6  A    between atoms: C_10  and  C_11 
REMARK       I    between atoms: C_11  and  N_12 
REMARK    7  A    between atoms: N_12  and  C_13 
REMARK    8  A    between atoms: C_13  and  C_14 
ROOT
HETATM    1  C   UNL     1      43.921 -19.756   3.128  1.00  0.00     0.024 A 
HETATM    2  C   UNL     1      44.357 -20.350   4.334  1.00  0.00     0.053 A 
HETATM    3  C   UNL     1      44.720 -21.709   4.356  1.00  0.00     0.019 A 
HETATM    4  C   UNL     1      44.629 -22.493   3.208  1.00  0.00     0.001 A 
HETATM    5  C   UNL     1      44.170 -21.927   2.024  1.00  0.00     0.002 A 
HETATM    6  C   UNL     1      43.823 -20.574   1.985  1.00  0.00     0.024 A 
ENDROOT
BRANCH   1   7
HETATM    7  N   UNL     1      43.647 -18.377   2.971  1.00  0.00    -0.290 NA
HETATM    8  H   UNL     1      42.646 -18.191   3.036  1.00  0.00     0.127 HD
BRANCH   7   9
HETATM    9  C   UNL     1      44.210 -17.753   1.754  1.00  0.00     0.119 C 
BRANCH   9  10
HETATM   10  C   UNL     1      43.146 -17.293   0.748  1.00  0.00     0.190 C 
BRANCH  10  11
HETATM   11  O   UNL     1      41.829 -17.474   1.274  1.00  0.00    -0.350 OA
BRANCH  11  12
HETATM   12  C   UNL     1      40.955 -16.425   1.189  1.00  0.00     0.068 A 
HETATM   13  C   UNL     1      39.896 -16.159   2.059  1.00  0.00     0.037 A 
HETATM   14  C   UNL     1      39.069 -15.053   1.841  1.00  0.00     0.003 A 
HETATM   15  C   UNL     1      39.296 -14.206   0.757  1.00  0.00     0.000 A 
HETATM   16  C   UNL     1      40.346 -14.470  -0.117  1.00  0.00     0.003 A 
HETATM   17  C   UNL     1      41.168 -15.578   0.098  1.00  0.00     0.037 A 
ENDBRANCH  11  12
ENDBRANCH  10  11
ENDBRANCH   9  10
ENDBRANCH   7   9
ENDBRANCH   1   7
BRANCH   2  18
HETATM   18  C   UNL     1      44.406 -19.646   5.649  1.00  0.00     0.253 C 
HETATM   19  N   UNL     1      44.993 -18.407   5.653  1.00  0.00    -0.351 N 
HETATM   20  H   UNL     1      45.375 -18.049   4.781  1.00  0.00     0.163 HD
HETATM   21  O   UNL     1      43.906 -20.156   6.646  1.00  0.00    -0.268 OA
BRANCH  19  22
HETATM   22  C   UNL     1      44.993 -17.568   6.823  1.00  0.00     0.187 C 
BRANCH  22  23
HETATM   23  C   UNL     1      44.345 -16.278   6.489  1.00  0.00     0.070 A 
HETATM   24  O   UNL     1      43.546 -16.260   5.382  1.00  0.00    -0.325 OA
HETATM   25  C   UNL     1      43.061 -14.998   5.263  1.00  0.00     0.142 A 
HETATM   26  C   UNL     1      43.540 -14.201   6.275  1.00  0.00     0.027 A 
HETATM   27  C   UNL     1      44.373 -15.026   7.068  1.00  0.00     0.036 A 
ENDBRANCH  22  23
ENDBRANCH  19  22
ENDBRANCH   2  18
TORSDOF 8
ENDMDL
MODEL 7
REMARK VINA RESULT:      -7.3      3.472      6.380
REMARK  8 active torsions:
REMARK  status: ('A' for Active; 'I' for Inactive)
REMARK    1  A    between atoms: C_4  and  O_5 
REMARK    2  A    between atoms: O_5  and  C_6 
REMARK    3  A    between atoms: C_6  and  C_7 
REMARK    4  A    between atoms: C_7  and  N_8 
REMARK    5  A    between atoms: N_8  and  C_9 
REMARK    6  A    between atoms: C_10  and  C_11 
REMARK       I    between atoms: C_11  and  N_12 
REMARK    7  A    between atoms: N_12  and  C_13 
REMARK    8  A    between atoms: C_13  and  C_14 
ROOT
HETATM    1  C   UNL     1      44.151 -19.839   2.987  1.00  0.00     0.024 A 
HETATM    2  C   UNL     1      44.464 -19.993   4.356  1.00  0.00     0.053 A 
HETATM    3  C   UNL     1      44.780 -21.267   4.866  1.00  0.00     0.019 A 
HETATM    4  C   UNL     1      44.761 -22.391   4.044  1.00  0.00     0.001 A 
HETATM    5  C   UNL     1      44.423 -22.256   2.702  1.00  0.00     0.002 A 
HETATM    6  C   UNL     1      44.124 -20.994   2.180  1.00  0.00     0.024 A 
ENDROOT
BRANCH   1   7
HETATM    7  N   UNL     1      43.936 -18.593   2.353  1.00  0.00    -0.290 NA
HETATM    8  H   UNL     1      44.367 -17.833   2.879  1.00  0.00     0.127 HD
BRANCH   7   9
HETATM    9  C   UNL     1      42.524 -18.273   2.048  1.00  0.00     0.119 C 
BRANCH   9  10
HETATM   10  C   UNL     1      42.105 -16.860   2.479  1.00  0.00     0.190 C 
BRANCH  10  11
HETATM   11  O   UNL     1      40.682 -16.729   2.490  1.00  0.00    -0.350 OA
BRANCH  11  12
HETATM   12  C   UNL     1      40.119 -15.766   1.697  1.00  0.00     0.068 A 
HETATM   13  C   UNL     1      38.892 -15.136   1.906  1.00  0.00     0.037 A 
HETATM   14  C   UNL     1      38.432 -14.175   1.000  1.00  0.00     0.003 A 
HETATM   15  C   UNL     1      39.196 -13.838  -0.117  1.00  0.00     0.000 A 
HETATM   16  C   UNL     1      40.417 -14.468  -0.333  1.00  0.00     0.003 A 
HETATM   17  C   UNL     1      40.873 -15.431   0.569  1.00  0.00     0.037 A 
ENDBRANCH  11  12
ENDBRANCH  10  11
ENDBRANCH   9  10
ENDBRANCH   7   9
ENDBRANCH   1   7
BRANCH   2  18
HETATM   18  C   UNL     1      44.423 -18.888   5.359  1.00  0.00     0.253 C 
HETATM   19  N   UNL     1      43.184 -18.376   5.646  1.00  0.00    -0.351 N 
HETATM   20  H   UNL     1      42.377 -18.754   5.157  1.00  0.00     0.163 HD
HETATM   21  O   UNL     1      45.452 -18.506   5.906  1.00  0.00    -0.268 OA
BRANCH  19  22
HETATM   22  C   UNL     1      42.988 -17.397   6.684  1.00  0.00     0.187 C 
BRANCH  22  23
HETATM   23  C   UNL     1      42.048 -16.361   6.195  1.00  0.00     0.070 A 
HETATM   24  O   UNL     1      42.600 -15.214   5.702  1.00  0.00    -0.325 OA
HETATM   25  C   UNL     1      41.574 -14.414   5.315  1.00  0.00     0.142 A 
HETATM   26  C   UNL     1      40.368 -15.028   5.557  1.00  0.00     0.027 A 
HETATM   27  C   UNL     1      40.671 -16.286   6.128  1.00  0.00     0.036 A 
ENDBRANCH  22  23
ENDBRANCH  19  22
ENDBRANCH   2  18
TORSDOF 8
ENDMDL
MODEL 8
REMARK VINA RESULT:      -7.2      4.611      8.231
REMARK  8 active torsions:
REMARK  status: ('A' for Active; 'I' for Inactive)
REMARK    1  A    between atoms: C_4  and  O_5 
REMARK    2  A    between atoms: O_5  and  C_6 
REMARK    3  A    between atoms: C_6  and  C_7 
REMARK    4  A    between atoms: C_7  and  N_8 
REMARK    5  A    between atoms: N_8  and  C_9 
REMARK    6  A    between atoms: C_10  and  C_11 
REMARK       I    between atoms: C_11  and  N_12 
REMARK    7  A    between atoms: N_12  and  C_13 
REMARK    8  A    between atoms: C_13  and  C_14 
ROOT
HETATM    1  C   UNL     1      41.593 -16.977   2.865  1.00  0.00     0.024 A 
HETATM    2  C   UNL     1      41.909 -16.614   1.537  1.00  0.00     0.053 A 
HETATM    3  C   UNL     1      42.962 -17.262   0.864  1.00  0.00     0.019 A 
HETATM    4  C   UNL     1      43.723 -18.240   1.500  1.00  0.00     0.001 A 
HETATM    5  C   UNL     1      43.442 -18.581   2.818  1.00  0.00     0.002 A 
HETATM    6  C   UNL     1      42.387 -17.958   3.491  1.00  0.00     0.024 A 
ENDROOT
BRANCH   1   7
HETATM    7  N   UNL     1      40.485 -16.474   3.587  1.00  0.00    -0.290 NA
HETATM    8  H   UNL     1      39.691 -16.302   2.971  1.00  0.00     0.127 HD
BRANCH   7   9
HETATM    9  C   UNL     1      40.759 -15.282   4.419  1.00  0.00     0.119 C 
BRANCH   9  10
HETATM   10  C   UNL     1      40.831 -15.582   5.923  1.00  0.00     0.190 C 
BRANCH  10  11
HETATM   11  O   UNL     1      42.125 -15.274   6.446  1.00  0.00    -0.350 OA
BRANCH  11  12
HETATM   12  C   UNL     1      43.013 -16.303   6.609  1.00  0.00     0.068 A 
HETATM   13  C   UNL     1      44.350 -16.312   6.211  1.00  0.00     0.037 A 
HETATM   14  C   UNL     1      45.140 -17.445   6.430  1.00  0.00     0.003 A 
HETATM   15  C   UNL     1      44.600 -18.572   7.048  1.00  0.00     0.000 A 
HETATM   16  C   UNL     1      43.266 -18.570   7.442  1.00  0.00     0.003 A 
HETATM   17  C   UNL     1      42.475 -17.441   7.217  1.00  0.00     0.037 A 
ENDBRANCH  11  12
ENDBRANCH  10  11
ENDBRANCH   9  10
ENDBRANCH   7   9
ENDBRANCH   1   7
BRANCH   2  18
HETATM   18  C   UNL     1      41.236 -15.517   0.780  1.00  0.00     0.253 C 
HETATM   19  N   UNL     1      41.927 -15.005  -0.288  1.00  0.00    -0.351 N 
HETATM   20  H   UNL     1      42.851 -15.378  -0.491  1.00  0.00     0.163 HD
HETATM   21  O   UNL     1      40.112 -15.143   1.096  1.00  0.00    -0.268 OA
BRANCH  19  22
HETATM   22  C   UNL     1      41.343 -14.035  -1.177  1.00  0.00     0.187 C 
BRANCH  22  23
HETATM   23  C   UNL     1      40.530 -14.743  -2.194  1.00  0.00     0.070 A 
HETATM   24  O   UNL     1      39.308 -14.208  -2.486  1.00  0.00    -0.325 OA
HETATM   25  C   UNL     1      38.741 -15.004  -3.428  1.00  0.00     0.142 A 
HETATM   26  C   UNL     1      39.579 -16.048  -3.743  1.00  0.00     0.027 A 
HETATM   27  C   UNL     1      40.735 -15.883  -2.945  1.00  0.00     0.036 A 
ENDBRANCH  22  23
ENDBRANCH  19  22
ENDBRANCH   2  18
TORSDOF 8
ENDMDL
MODEL 9
REMARK VINA RESULT:      -7.1      4.281      7.406
REMARK  8 active torsions:
REMARK  status: ('A' for Active; 'I' for Inactive)
REMARK    1  A    between atoms: C_4  and  O_5 
REMARK    2  A    between atoms: O_5  and  C_6 
REMARK    3  A    between atoms: C_6  and  C_7 
REMARK    4  A    between atoms: C_7  and  N_8 
REMARK    5  A    between atoms: N_8  and  C_9 
REMARK    6  A    between atoms: C_10  and  C_11 
REMARK       I    between atoms: C_11  and  N_12 
REMARK    7  A    between atoms: N_12  and  C_13 
REMARK    8  A    between atoms: C_13  and  C_14 
ROOT
HETATM    1  C   UNL     1      41.786 -17.286   2.999  1.00  0.00     0.024 A 
HETATM    2  C   UNL     1      42.055 -17.023   1.638  1.00  0.00     0.053 A 
HETATM    3  C   UNL     1      43.154 -17.636   1.008  1.00  0.00     0.019 A 
HETATM    4  C   UNL     1      44.004 -18.483   1.717  1.00  0.00     0.001 A 
HETATM    5  C   UNL     1      43.767 -18.723   3.065  1.00  0.00     0.002 A 
HETATM    6  C   UNL     1      42.669 -18.133   3.697  1.00  0.00     0.024 A 
ENDROOT
BRANCH   1   7
HETATM    7  N   UNL     1      40.645 -16.815   3.692  1.00  0.00    -0.290 NA
HETATM    8  H   UNL     1      39.833 -16.772   3.077  1.00  0.00     0.127 HD
BRANCH   7   9
HETATM    9  C   UNL     1      40.822 -15.532   4.405  1.00  0.00     0.119 C 
BRANCH   9  10
HETATM   10  C   UNL     1      40.679 -15.647   5.929  1.00  0.00     0.190 C 
BRANCH  10  11
HETATM   11  O   UNL     1      41.918 -15.366   6.583  1.00  0.00    -0.350 OA
BRANCH  11  12
HETATM   12  C   UNL     1      42.795 -16.400   6.770  1.00  0.00     0.068 A 
HETATM   13  C   UNL     1      42.510 -17.627   7.369  1.00  0.00     0.037 A 
HETATM   14  C   UNL     1      43.513 -18.591   7.509  1.00  0.00     0.003 A 
HETATM   15  C   UNL     1      44.804 -18.336   7.049  1.00  0.00     0.000 A 
HETATM   16  C   UNL     1      45.096 -17.111   6.456  1.00  0.00     0.003 A 
HETATM   17  C   UNL     1      44.095 -16.147   6.323  1.00  0.00     0.037 A 
ENDBRANCH  11  12
ENDBRANCH  10  11
ENDBRANCH   9  10
ENDBRANCH   7   9
ENDBRANCH   1   7
BRANCH   2  18
HETATM   18  C   UNL     1      41.282 -16.063   0.796  1.00  0.00     0.253 C 
HETATM   19  N   UNL     1      41.827 -15.748  -0.422  1.00  0.00    -0.351 N 
HETATM   20  H   UNL     1      42.721 -16.161  -0.674  1.00  0.00     0.163 HD
HETATM   21  O   UNL     1      40.203 -15.626   1.182  1.00  0.00    -0.268 OA
BRANCH  19  22
HETATM   22  C   UNL     1      41.126 -14.936  -1.383  1.00  0.00     0.187 C 
BRANCH  22  23
HETATM   23  C   UNL     1      41.796 -13.618  -1.478  1.00  0.00     0.070 A 
HETATM   24  O   UNL     1      41.825 -12.860  -0.342  1.00  0.00    -0.325 OA
HETATM   25  C   UNL     1      42.477 -11.710  -0.649  1.00  0.00     0.142 A 
HETATM   26  C   UNL     1      42.864 -11.714  -1.968  1.00  0.00     0.027 A 
HETATM   27  C   UNL     1      42.423 -12.946  -2.506  1.00  0.00     0.036 A 
ENDBRANCH  22  23
ENDBRANCH  19  22
ENDBRANCH   2  18
TORSDOF 8
ENDMDL
MODEL 10
REMARK VINA RESULT:      -7.0      4.057      6.956
REMARK  8 active torsions:
REMARK  status: ('A' for Active; 'I' for Inactive)
REMARK    1  A    between atoms: C_4  and  O_5 
REMARK    2  A    between atoms: O_5  and  C_6 
REMARK    3  A    between atoms: C_6  and  C_7 
REMARK    4  A    between atoms: C_7  and  N_8 
REMARK    5  A    between atoms: N_8  and  C_9 
REMARK    6  A    between atoms: C_10  and  C_11 
REMARK       I    between atoms: C_11  and  N_12 
REMARK    7  A    between atoms: N_12  and  C_13 
REMARK    8  A    between atoms: C_13  and  C_14 
ROOT
HETATM    1  C   UNL     1      40.159 -14.757   4.767  1.00  0.00     0.024 A 
HETATM    2  C   UNL     1      39.856 -14.204   3.502  1.00  0.00     0.053 A 
HETATM    3  C   UNL     1      39.519 -12.841   3.394  1.00  0.00     0.019 A 
HETATM    4  C   UNL     1      39.450 -12.030   4.524  1.00  0.00     0.001 A 
HETATM    5  C   UNL     1      39.714 -12.571   5.777  1.00  0.00     0.002 A 
HETATM    6  C   UNL     1      40.067 -13.918   5.895  1.00  0.00     0.024 A 
ENDROOT
BRANCH   1   7
HETATM    7  N   UNL     1      40.621 -16.078   4.969  1.00  0.00    -0.290 NA
HETATM    8  H   UNL     1      39.962 -16.617   5.531  1.00  0.00     0.127 HD
BRANCH   7   9
HETATM    9  C   UNL     1      41.987 -16.194   5.524  1.00  0.00     0.119 C 
BRANCH   9  10
HETATM   10  C   UNL     1      43.078 -16.338   4.454  1.00  0.00     0.190 C 
BRANCH  10  11
HETATM   11  O   UNL     1      42.658 -17.214   3.406  1.00  0.00    -0.350 OA
BRANCH  11  12
HETATM   12  C   UNL     1      43.272 -18.432   3.302  1.00  0.00     0.068 A 
HETATM   13  C   UNL     1      44.145 -19.000   4.230  1.00  0.00     0.037 A 
HETATM   14  C   UNL     1      44.714 -20.253   3.984  1.00  0.00     0.003 A 
HETATM   15  C   UNL     1      44.412 -20.946   2.813  1.00  0.00     0.000 A 
HETATM   16  C   UNL     1      43.547 -20.382   1.881  1.00  0.00     0.003 A 
HETATM   17  C   UNL     1      42.984 -19.128   2.124  1.00  0.00     0.037 A 
ENDBRANCH  11  12
ENDBRANCH  10  11
ENDBRANCH   9  10
ENDBRANCH   7   9
ENDBRANCH   1   7
BRANCH   2  18
HETATM   18  C   UNL     1      39.799 -14.987   2.233  1.00  0.00     0.253 C 
HETATM   19  N   UNL     1      41.003 -15.298   1.658  1.00  0.00    -0.351 N 
HETATM   20  H   UNL     1      41.855 -14.969   2.106  1.00  0.00     0.163 HD
HETATM   21  O   UNL     1      38.721 -15.350   1.774  1.00  0.00    -0.268 OA
BRANCH  19  22
HETATM   22  C   UNL     1      41.097 -16.155   0.504  1.00  0.00     0.187 C 
BRANCH  22  23
HETATM   23  C   UNL     1      41.244 -15.313  -0.707  1.00  0.00     0.070 A 
HETATM   24  O   UNL     1      41.770 -14.066  -0.529  1.00  0.00    -0.325 OA
HETATM   25  C   UNL     1      41.815 -13.476  -1.751  1.00  0.00     0.142 A 
HETATM   26  C   UNL     1      41.319 -14.324  -2.713  1.00  0.00     0.027 A 
HETATM   27  C   UNL     1      40.947 -15.512  -2.040  1.00  0.00     0.036 A 
ENDBRANCH  22  23
ENDBRANCH  19  22
ENDBRANCH   2  18
TORSDOF 8
ENDMDL
