MODEL 1
REMARK VINA RESULT:      -8.9      0.000      0.000
REMARK  3 active torsions:
REMARK  status: ('A' for Active; 'I' for Inactive)
REMARK    1  A    between atoms: C_4  and  C_5 
REMARK    2  A    between atoms: C_5  and  N_6 
REMARK    3  A    between atoms: C_16  and  C_17 
ROOT
HETATM    1  N   UNL     1      39.526 -12.307   0.481  1.00  0.00    -0.065 N 
HETATM    2  H   UNL     1      39.552 -11.354   0.891  1.00  0.00     0.280 HD
HETATM    3  C   UNL     1      40.881 -12.915   0.687  1.00  0.00     0.238 C 
HETATM    4  C   UNL     1      40.958 -13.503   2.083  1.00  0.00     0.077 C 
HETATM    5  C   UNL     1      39.957 -14.683   2.278  1.00  0.00     0.218 C 
HETATM    6  N   UNL     1      39.510 -14.678   3.702  1.00  0.00     0.102 N 
HETATM    7  C   UNL     1      40.623 -15.011   4.627  1.00  0.00     0.291 C 
HETATM    8  C   UNL     1      41.454 -16.289   4.316  1.00  0.00     0.160 C 
HETATM    9  N   UNL     1      41.420 -16.698   2.891  1.00  0.00    -0.331 N 
HETATM   10  C   UNL     1      40.664 -16.038   1.990  1.00  0.00     0.123 A 
HETATM   11  C   UNL     1      42.003 -17.848   2.304  1.00  0.00     0.061 A 
HETATM   12  C   UNL     1      41.436 -17.891   1.043  1.00  0.00     0.120 A 
HETATM   13  N   UNL     1      40.639 -16.782   0.884  1.00  0.00    -0.351 N 
HETATM   14  H   UNL     1      40.093 -16.611   0.045  1.00  0.00     0.166 HD
HETATM   15  C   UNL     1      38.704 -14.465   1.389  1.00  0.00     0.077 C 
HETATM   16  C   UNL     1      38.382 -12.988   1.200  1.00  0.00     0.238 C 
HETATM   17  H   UNL     1      38.773 -15.378   3.846  1.00  0.00     0.317 HD
ENDROOT
BRANCH   1  18
HETATM   18  C   UNL     1      39.243 -11.985  -0.984  1.00  0.00     0.299 C 
BRANCH  18  19
HETATM   19  C   UNL     1      39.971 -12.884  -1.910  1.00  0.00     0.079 A 
HETATM   20  O   UNL     1      39.394 -14.100  -2.146  1.00  0.00    -0.318 OA
HETATM   21  C   UNL     1      40.197 -14.753  -3.033  1.00  0.00     0.049 A 
HETATM   22  C   UNL     1      39.774 -16.105  -3.457  1.00  0.00     0.076 C 
HETATM   23  C   UNL     1      41.276 -13.962  -3.366  1.00  0.00     0.035 A 
HETATM   24  C   UNL     1      41.131 -12.756  -2.641  1.00  0.00     0.037 A 
ENDBRANCH  18  19
ENDBRANCH   1  18
BRANCH  11  25
HETATM   25  C   UNL     1      43.004 -18.850   2.827  1.00  0.00    -0.008 A 
HETATM   26  C   UNL     1      43.659 -18.675   4.048  1.00  0.00     0.014 A 
HETATM   27  C   UNL     1      44.624 -19.595   4.475  1.00  0.00     0.001 A 
HETATM   28  C   UNL     1      44.945 -20.696   3.690  1.00  0.00     0.000 A 
HETATM   29  C   UNL     1      44.298 -20.887   2.475  1.00  0.00     0.001 A 
HETATM   30  C   UNL     1      43.334 -19.970   2.043  1.00  0.00     0.014 A 
ENDBRANCH  11  25
TORSDOF 3
ENDMDL
MODEL 2
REMARK VINA RESULT:      -8.8      2.749      8.083
REMARK  3 active torsions:
REMARK  status: ('A' for Active; 'I' for Inactive)
REMARK    1  A    between atoms: C_4  and  C_5 
REMARK    2  A    between atoms: C_5  and  N_6 
REMARK    3  A    between atoms: C_16  and  C_17 
ROOT
HETATM    1  N   UNL     1      43.027 -17.805   2.544  1.00  0.00    -0.065 N 
HETATM    2  H   UNL     1      42.756 -18.346   3.386  1.00  0.00     0.280 HD
HETATM    3  C   UNL     1      41.944 -17.997   1.526  1.00  0.00     0.238 C 
HETATM    4  C   UNL     1      40.816 -17.022   1.806  1.00  0.00     0.077 C 
HETATM    5  C   UNL     1      41.268 -15.539   1.633  1.00  0.00     0.218 C 
HETATM    6  N   UNL     1      40.499 -14.707   2.605  1.00  0.00     0.102 N 
HETATM    7  C   UNL     1      39.053 -14.670   2.270  1.00  0.00     0.291 C 
HETATM    8  C   UNL     1      38.665 -14.307   0.808  1.00  0.00     0.160 C 
HETATM    9  N   UNL     1      39.731 -14.586  -0.185  1.00  0.00    -0.331 N 
HETATM   10  C   UNL     1      40.941 -15.043   0.196  1.00  0.00     0.123 A 
HETATM   11  C   UNL     1      39.721 -14.299  -1.572  1.00  0.00     0.061 A 
HETATM   12  C   UNL     1      41.037 -14.494  -1.952  1.00  0.00     0.120 A 
HETATM   13  N   UNL     1      41.744 -14.948  -0.865  1.00  0.00    -0.351 N 
HETATM   14  H   UNL     1      42.742 -15.133  -0.894  1.00  0.00     0.166 HD
HETATM   15  C   UNL     1      42.774 -15.401   1.982  1.00  0.00     0.077 C 
HETATM   16  C   UNL     1      43.209 -16.392   3.054  1.00  0.00     0.238 C 
HETATM   17  H   UNL     1      40.840 -13.739   2.592  1.00  0.00     0.317 HD
ENDROOT
BRANCH   1  18
HETATM   18  C   UNL     1      44.327 -18.504   2.156  1.00  0.00     0.299 C 
BRANCH  18  19
HETATM   19  C   UNL     1      44.317 -19.946   2.496  1.00  0.00     0.079 A 
HETATM   20  O   UNL     1      44.765 -20.273   3.745  1.00  0.00    -0.318 OA
HETATM   21  C   UNL     1      44.648 -21.626   3.865  1.00  0.00     0.049 A 
HETATM   22  C   UNL     1      45.067 -22.227   5.150  1.00  0.00     0.076 C 
HETATM   23  C   UNL     1      44.128 -22.161   2.707  1.00  0.00     0.035 A 
HETATM   24  C   UNL     1      43.914 -21.077   1.822  1.00  0.00     0.037 A 
ENDBRANCH  18  19
ENDBRANCH   1  18
BRANCH  11  25
HETATM   25  C   UNL     1      38.613 -13.881  -2.508  1.00  0.00    -0.008 A 
HETATM   26  C   UNL     1      38.132 -12.570  -2.548  1.00  0.00     0.014 A 
HETATM   27  C   UNL     1      37.064 -12.229  -3.387  1.00  0.00     0.001 A 
HETATM   28  C   UNL     1      36.466 -13.191  -4.193  1.00  0.00     0.000 A 
HETATM   29  C   UNL     1      36.937 -14.499  -4.168  1.00  0.00     0.001 A 
HETATM   30  C   UNL     1      38.003 -14.844  -3.331  1.00  0.00     0.014 A 
ENDBRANCH  11  25
TORSDOF 3
ENDMDL
MODEL 3
REMARK VINA RESULT:      -8.5      1.712      2.209
REMARK  3 active torsions:
REMARK  status: ('A' for Active; 'I' for Inactive)
REMARK    1  A    between atoms: C_4  and  C_5 
REMARK    2  A    between atoms: C_5  and  N_6 
REMARK    3  A    between atoms: C_16  and  C_17 
ROOT
HETATM    1  N   UNL     1      40.948 -12.012   2.931  1.00  0.00    -0.065 N 
HETATM    2  H   UNL     1      41.078 -11.286   3.660  1.00  0.00     0.280 HD
HETATM    3  C   UNL     1      42.178 -12.869   2.935  1.00  0.00     0.238 C 
HETATM    4  C   UNL     1      42.052 -13.919   4.024  1.00  0.00     0.077 C 
HETATM    5  C   UNL     1      40.877 -14.907   3.750  1.00  0.00     0.218 C 
HETATM    6  N   UNL     1      40.318 -15.334   5.067  1.00  0.00     0.102 N 
HETATM    7  C   UNL     1      41.290 -16.153   5.835  1.00  0.00     0.291 C 
HETATM    8  C   UNL     1      41.949 -17.357   5.102  1.00  0.00     0.160 C 
HETATM    9  N   UNL     1      41.975 -17.222   3.626  1.00  0.00    -0.331 N 
HETATM   10  C   UNL     1      41.400 -16.170   3.008  1.00  0.00     0.123 A 
HETATM   11  C   UNL     1      42.431 -18.169   2.675  1.00  0.00     0.061 A 
HETATM   12  C   UNL     1      41.971 -17.666   1.472  1.00  0.00     0.120 A 
HETATM   13  N   UNL     1      41.360 -16.458   1.706  1.00  0.00    -0.351 N 
HETATM   14  H   UNL     1      40.917 -15.911   0.973  1.00  0.00     0.166 HD
HETATM   15  C   UNL     1      39.748 -14.184   2.971  1.00  0.00     0.077 C 
HETATM   16  C   UNL     1      39.661 -12.705   3.324  1.00  0.00     0.238 C 
HETATM   17  H   UNL     1      39.478 -15.908   4.929  1.00  0.00     0.317 HD
ENDROOT
BRANCH   1  18
HETATM   18  C   UNL     1      40.839 -11.150   1.677  1.00  0.00     0.299 C 
BRANCH  18  19
HETATM   19  C   UNL     1      40.899 -11.952   0.433  1.00  0.00     0.079 A 
HETATM   20  O   UNL     1      41.999 -11.757  -0.356  1.00  0.00    -0.318 OA
HETATM   21  C   UNL     1      41.875 -12.599  -1.421  1.00  0.00     0.049 A 
HETATM   22  C   UNL     1      42.961 -12.580  -2.424  1.00  0.00     0.076 C 
HETATM   23  C   UNL     1      40.710 -13.329  -1.315  1.00  0.00     0.035 A 
HETATM   24  C   UNL     1      40.080 -12.911  -0.119  1.00  0.00     0.037 A 
ENDBRANCH  18  19
ENDBRANCH   1  18
BRANCH  11  25
HETATM   25  C   UNL     1      43.229 -19.442   2.823  1.00  0.00    -0.008 A 
HETATM   26  C   UNL     1      44.140 -19.629   3.863  1.00  0.00     0.014 A 
HETATM   27  C   UNL     1      44.906 -20.799   3.938  1.00  0.00     0.001 A 
HETATM   28  C   UNL     1      44.769 -21.793   2.975  1.00  0.00     0.000 A 
HETATM   29  C   UNL     1      43.861 -21.624   1.937  1.00  0.00     0.001 A 
HETATM   30  C   UNL     1      43.095 -20.456   1.858  1.00  0.00     0.014 A 
ENDBRANCH  11  25
TORSDOF 3
ENDMDL
MODEL 4
REMARK VINA RESULT:      -8.4      4.321      7.567
REMARK  3 active torsions:
REMARK  status: ('A' for Active; 'I' for Inactive)
REMARK    1  A    between atoms: C_4  and  C_5 
REMARK    2  A    between atoms: C_5  and  N_6 
REMARK    3  A    between atoms: C_16  and  C_17 
ROOT
HETATM    1  N   UNL     1      42.735 -17.537   1.711  1.00  0.00    -0.065 N 
HETATM    2  H   UNL     1      42.472 -17.247   0.750  1.00  0.00     0.280 HD
HETATM    3  C   UNL     1      43.819 -16.609   2.172  1.00  0.00     0.238 C 
HETATM    4  C   UNL     1      43.191 -15.337   2.712  1.00  0.00     0.077 C 
HETATM    5  C   UNL     1      42.327 -15.605   3.982  1.00  0.00     0.218 C 
HETATM    6  N   UNL     1      41.198 -14.629   3.985  1.00  0.00     0.102 N 
HETATM    7  C   UNL     1      41.678 -13.237   4.179  1.00  0.00     0.291 C 
HETATM    8  C   UNL     1      42.638 -12.970   5.373  1.00  0.00     0.160 C 
HETATM    9  N   UNL     1      43.390 -14.167   5.821  1.00  0.00    -0.331 N 
HETATM   10  C   UNL     1      43.176 -15.377   5.266  1.00  0.00     0.123 A 
HETATM   11  C   UNL     1      44.276 -14.274   6.921  1.00  0.00     0.061 A 
HETATM   12  C   UNL     1      44.463 -15.638   7.054  1.00  0.00     0.120 A 
HETATM   13  N   UNL     1      43.791 -16.274   6.037  1.00  0.00    -0.351 N 
HETATM   14  H   UNL     1      43.759 -17.285   5.945  1.00  0.00     0.166 HD
HETATM   15  C   UNL     1      41.718 -17.030   3.917  1.00  0.00     0.077 C 
HETATM   16  C   UNL     1      41.437 -17.471   2.486  1.00  0.00     0.238 C 
HETATM   17  H   UNL     1      40.549 -14.837   4.753  1.00  0.00     0.317 HD
ENDROOT
BRANCH   1  18
HETATM   18  C   UNL     1      43.244 -18.953   1.458  1.00  0.00     0.299 C 
BRANCH  18  19
HETATM   19  C   UNL     1      43.869 -19.551   2.661  1.00  0.00     0.079 A 
HETATM   20  O   UNL     1      43.956 -20.915   2.679  1.00  0.00    -0.318 OA
HETATM   21  C   UNL     1      44.579 -21.256   3.843  1.00  0.00     0.049 A 
HETATM   22  C   UNL     1      44.800 -22.697   4.091  1.00  0.00     0.076 C 
HETATM   23  C   UNL     1      44.891 -20.123   4.562  1.00  0.00     0.035 A 
HETATM   24  C   UNL     1      44.433 -19.022   3.800  1.00  0.00     0.037 A 
ENDBRANCH  18  19
ENDBRANCH   1  18
BRANCH  11  25
HETATM   25  C   UNL     1      44.922 -13.231   7.801  1.00  0.00    -0.008 A 
HETATM   26  C   UNL     1      44.261 -12.675   8.898  1.00  0.00     0.014 A 
HETATM   27  C   UNL     1      44.867 -11.669   9.660  1.00  0.00     0.001 A 
HETATM   28  C   UNL     1      46.138 -11.208   9.334  1.00  0.00     0.000 A 
HETATM   29  C   UNL     1      46.811 -11.756   8.248  1.00  0.00     0.001 A 
HETATM   30  C   UNL     1      46.208 -12.761   7.485  1.00  0.00     0.014 A 
ENDBRANCH  11  25
TORSDOF 3
ENDMDL
MODEL 5
REMARK VINA RESULT:      -8.4      2.671      7.265
REMARK  3 active torsions:
REMARK  status: ('A' for Active; 'I' for Inactive)
REMARK    1  A    between atoms: C_4  and  C_5 
REMARK    2  A    between atoms: C_5  and  N_6 
REMARK    3  A    between atoms: C_16  and  C_17 
ROOT
HETATM    1  N   UNL     1      42.090 -15.665   6.537  1.00  0.00    -0.065 N 
HETATM    2  H   UNL     1      41.736 -15.138   7.358  1.00  0.00     0.280 HD
HETATM    3  C   UNL     1      40.965 -15.758   5.551  1.00  0.00     0.238 C 
HETATM    4  C   UNL     1      40.914 -14.483   4.729  1.00  0.00     0.077 C 
HETATM    5  C   UNL     1      42.195 -14.298   3.858  1.00  0.00     0.218 C 
HETATM    6  N   UNL     1      42.461 -12.834   3.736  1.00  0.00     0.102 N 
HETATM    7  C   UNL     1      41.404 -12.148   2.951  1.00  0.00     0.291 C 
HETATM    8  C   UNL     1      41.032 -12.756   1.568  1.00  0.00     0.160 C 
HETATM    9  N   UNL     1      41.343 -14.200   1.441  1.00  0.00    -0.331 N 
HETATM   10  C   UNL     1      41.961 -14.873   2.432  1.00  0.00     0.123 A 
HETATM   11  C   UNL     1      41.198 -15.021   0.296  1.00  0.00     0.061 A 
HETATM   12  C   UNL     1      41.887 -16.172   0.634  1.00  0.00     0.120 A 
HETATM   13  N   UNL     1      42.329 -16.053   1.930  1.00  0.00    -0.351 N 
HETATM   14  H   UNL     1      42.887 -16.766   2.391  1.00  0.00     0.166 HD
HETATM   15  C   UNL     1      43.415 -14.942   4.567  1.00  0.00     0.077 C 
HETATM   16  C   UNL     1      43.300 -14.875   6.084  1.00  0.00     0.238 C 
HETATM   17  H   UNL     1      43.352 -12.673   3.254  1.00  0.00     0.317 HD
ENDROOT
BRANCH   1  18
HETATM   18  C   UNL     1      42.423 -17.010   7.176  1.00  0.00     0.299 C 
BRANCH  18  19
HETATM   19  C   UNL     1      43.405 -17.785   6.383  1.00  0.00     0.079 A 
HETATM   20  O   UNL     1      42.974 -18.236   5.166  1.00  0.00    -0.318 OA
HETATM   21  C   UNL     1      44.022 -18.891   4.593  1.00  0.00     0.049 A 
HETATM   22  C   UNL     1      43.803 -19.469   3.249  1.00  0.00     0.076 C 
HETATM   23  C   UNL     1      45.116 -18.859   5.431  1.00  0.00     0.035 A 
HETATM   24  C   UNL     1      44.718 -18.145   6.586  1.00  0.00     0.037 A 
ENDBRANCH  18  19
ENDBRANCH   1  18
BRANCH  11  25
HETATM   25  C   UNL     1      40.491 -14.803  -1.020  1.00  0.00    -0.008 A 
HETATM   26  C   UNL     1      39.343 -14.014  -1.122  1.00  0.00     0.014 A 
HETATM   27  C   UNL     1      38.679 -13.879  -2.347  1.00  0.00     0.001 A 
HETATM   28  C   UNL     1      39.154 -14.528  -3.481  1.00  0.00     0.000 A 
HETATM   29  C   UNL     1      40.298 -15.312  -3.397  1.00  0.00     0.001 A 
HETATM   30  C   UNL     1      40.964 -15.451  -2.175  1.00  0.00     0.014 A 
ENDBRANCH  11  25
TORSDOF 3
ENDMDL
MODEL 6
REMARK VINA RESULT:      -8.3      4.657      7.350
REMARK  3 active torsions:
REMARK  status: ('A' for Active; 'I' for Inactive)
REMARK    1  A    between atoms: C_4  and  C_5 
REMARK    2  A    between atoms: C_5  and  N_6 
REMARK    3  A    between atoms: C_16  and  C_17 
ROOT
HETATM    1  N   UNL     1      39.925 -11.829   6.608  1.00  0.00    -0.065 N 
HETATM    2  H   UNL     1      39.313 -11.161   6.103  1.00  0.00     0.280 HD
HETATM    3  C   UNL     1      39.658 -13.190   6.040  1.00  0.00     0.238 C 
HETATM    4  C   UNL     1      40.477 -13.373   4.776  1.00  0.00     0.077 C 
HETATM    5  C   UNL     1      42.010 -13.354   5.063  1.00  0.00     0.218 C 
HETATM    6  N   UNL     1      42.694 -12.760   3.877  1.00  0.00     0.102 N 
HETATM    7  C   UNL     1      42.576 -13.634   2.683  1.00  0.00     0.291 C 
HETATM    8  C   UNL     1      42.965 -15.131   2.849  1.00  0.00     0.160 C 
HETATM    9  N   UNL     1      42.867 -15.628   4.243  1.00  0.00    -0.331 N 
HETATM   10  C   UNL     1      42.538 -14.804   5.259  1.00  0.00     0.123 A 
HETATM   11  C   UNL     1      43.221 -16.908   4.736  1.00  0.00     0.061 A 
HETATM   12  C   UNL     1      43.205 -16.742   6.109  1.00  0.00     0.120 A 
HETATM   13  N   UNL     1      42.782 -15.465   6.391  1.00  0.00    -0.351 N 
HETATM   14  H   UNL     1      42.718 -15.101   7.337  1.00  0.00     0.166 HD
HETATM   15  C   UNL     1      42.308 -12.443   6.284  1.00  0.00     0.077 C 
HETATM   16  C   UNL     1      41.322 -11.287   6.393  1.00  0.00     0.238 C 
HETATM   17  H   UNL     1      43.695 -12.637   4.067  1.00  0.00     0.317 HD
ENDROOT
BRANCH   1  18
HETATM   18  C   UNL     1      39.407 -11.678   8.036  1.00  0.00     0.299 C 
BRANCH  18  19
HETATM   19  C   UNL     1      39.974 -10.492   8.720  1.00  0.00     0.079 A 
HETATM   20  O   UNL     1      40.998 -10.734   9.592  1.00  0.00    -0.318 OA
HETATM   21  C   UNL     1      41.389  -9.525  10.086  1.00  0.00     0.049 A 
HETATM   22  C   UNL     1      42.505  -9.523  11.057  1.00  0.00     0.076 C 
HETATM   23  C   UNL     1      40.627  -8.518   9.534  1.00  0.00     0.035 A 
HETATM   24  C   UNL     1      39.713  -9.142   8.652  1.00  0.00     0.037 A 
ENDBRANCH  18  19
ENDBRANCH   1  18
BRANCH  11  25
HETATM   25  C   UNL     1      43.553 -18.203   4.034  1.00  0.00    -0.008 A 
HETATM   26  C   UNL     1      44.463 -19.120   4.562  1.00  0.00     0.014 A 
HETATM   27  C   UNL     1      44.791 -20.284   3.857  1.00  0.00     0.001 A 
HETATM   28  C   UNL     1      44.214 -20.544   2.619  1.00  0.00     0.000 A 
HETATM   29  C   UNL     1      43.302 -19.643   2.083  1.00  0.00     0.001 A 
HETATM   30  C   UNL     1      42.973 -18.479   2.783  1.00  0.00     0.014 A 
ENDBRANCH  11  25
TORSDOF 3
ENDMDL
MODEL 7
REMARK VINA RESULT:      -8.3      3.295      5.573
REMARK  3 active torsions:
REMARK  status: ('A' for Active; 'I' for Inactive)
REMARK    1  A    between atoms: C_4  and  C_5 
REMARK    2  A    between atoms: C_5  and  N_6 
REMARK    3  A    between atoms: C_16  and  C_17 
ROOT
HETATM    1  N   UNL     1      40.064 -12.880   4.489  1.00  0.00    -0.065 N 
HETATM    2  H   UNL     1      39.268 -12.456   3.977  1.00  0.00     0.280 HD
HETATM    3  C   UNL     1      39.867 -14.366   4.461  1.00  0.00     0.238 C 
HETATM    4  C   UNL     1      40.399 -14.916   3.151  1.00  0.00     0.077 C 
HETATM    5  C   UNL     1      41.940 -14.714   3.014  1.00  0.00     0.218 C 
HETATM    6  N   UNL     1      42.252 -14.515   1.568  1.00  0.00     0.102 N 
HETATM    7  C   UNL     1      41.991 -15.745   0.778  1.00  0.00     0.291 C 
HETATM    8  C   UNL     1      42.611 -17.075   1.296  1.00  0.00     0.160 C 
HETATM    9  N   UNL     1      42.897 -17.079   2.751  1.00  0.00    -0.331 N 
HETATM   10  C   UNL     1      42.693 -15.982   3.509  1.00  0.00     0.123 A 
HETATM   11  C   UNL     1      43.526 -18.097   3.509  1.00  0.00     0.061 A 
HETATM   12  C   UNL     1      43.794 -17.482   4.718  1.00  0.00     0.120 A 
HETATM   13  N   UNL     1      43.274 -16.210   4.687  1.00  0.00    -0.351 N 
HETATM   14  H   UNL     1      43.373 -15.554   5.456  1.00  0.00     0.166 HD
HETATM   15  C   UNL     1      42.375 -13.431   3.771  1.00  0.00     0.077 C 
HETATM   16  C   UNL     1      41.288 -12.364   3.765  1.00  0.00     0.238 C 
HETATM   17  H   UNL     1      43.244 -14.279   1.447  1.00  0.00     0.317 HD
ENDROOT
BRANCH   1  18
HETATM   18  C   UNL     1      39.862 -12.288   5.881  1.00  0.00     0.299 C 
BRANCH  18  19
HETATM   19  C   UNL     1      39.726 -10.813   5.853  1.00  0.00     0.079 A 
HETATM   20  O   UNL     1      38.573 -10.326   5.303  1.00  0.00    -0.318 OA
HETATM   21  C   UNL     1      38.633  -8.968   5.399  1.00  0.00     0.049 A 
HETATM   22  C   UNL     1      37.481  -8.203   4.874  1.00  0.00     0.076 C 
HETATM   23  C   UNL     1      39.810  -8.587   6.008  1.00  0.00     0.035 A 
HETATM   24  C   UNL     1      40.516  -9.778   6.301  1.00  0.00     0.037 A 
ENDBRANCH  18  19
ENDBRANCH   1  18
BRANCH  11  25
HETATM   25  C   UNL     1      43.867 -19.532   3.184  1.00  0.00    -0.008 A 
HETATM   26  C   UNL     1      43.481 -20.132   1.984  1.00  0.00     0.014 A 
HETATM   27  C   UNL     1      43.765 -21.481   1.739  1.00  0.00     0.001 A 
HETATM   28  C   UNL     1      44.436 -22.243   2.689  1.00  0.00     0.000 A 
HETATM   29  C   UNL     1      44.832 -21.658   3.886  1.00  0.00     0.001 A 
HETATM   30  C   UNL     1      44.549 -20.312   4.135  1.00  0.00     0.014 A 
ENDBRANCH  11  25
TORSDOF 3
ENDMDL
MODEL 8
REMARK VINA RESULT:      -8.0      4.858      7.618
REMARK  3 active torsions:
REMARK  status: ('A' for Active; 'I' for Inactive)
REMARK    1  A    between atoms: C_4  and  C_5 
REMARK    2  A    between atoms: C_5  and  N_6 
REMARK    3  A    between atoms: C_16  and  C_17 
ROOT
HETATM    1  N   UNL     1      39.487 -10.647   6.780  1.00  0.00    -0.065 N 
HETATM    2  H   UNL     1      38.485 -10.443   6.603  1.00  0.00     0.280 HD
HETATM    3  C   UNL     1      39.570 -12.055   7.287  1.00  0.00     0.238 C 
HETATM    4  C   UNL     1      39.569 -13.011   6.109  1.00  0.00     0.077 C 
HETATM    5  C   UNL     1      40.832 -12.835   5.211  1.00  0.00     0.218 C 
HETATM    6  N   UNL     1      40.442 -13.140   3.802  1.00  0.00     0.102 N 
HETATM    7  C   UNL     1      40.091 -14.573   3.630  1.00  0.00     0.291 C 
HETATM    8  C   UNL     1      41.104 -15.627   4.161  1.00  0.00     0.160 C 
HETATM    9  N   UNL     1      41.989 -15.123   5.238  1.00  0.00    -0.331 N 
HETATM   10  C   UNL     1      41.941 -13.837   5.641  1.00  0.00     0.123 A 
HETATM   11  C   UNL     1      43.058 -15.803   5.872  1.00  0.00     0.061 A 
HETATM   12  C   UNL     1      43.710 -14.802   6.570  1.00  0.00     0.120 A 
HETATM   13  N   UNL     1      43.007 -13.631   6.415  1.00  0.00    -0.351 N 
HETATM   14  H   UNL     1      43.311 -12.748   6.814  1.00  0.00     0.166 HD
HETATM   15  C   UNL     1      41.313 -11.360   5.258  1.00  0.00     0.077 C 
HETATM   16  C   UNL     1      40.159 -10.385   5.449  1.00  0.00     0.238 C 
HETATM   17  H   UNL     1      41.221 -12.938   3.165  1.00  0.00     0.317 HD
ENDROOT
BRANCH   1  18
HETATM   18  C   UNL     1      39.808  -9.615   7.858  1.00  0.00     0.299 C 
BRANCH  18  19
HETATM   19  C   UNL     1      40.842 -10.091   8.805  1.00  0.00     0.079 A 
HETATM   20  O   UNL     1      40.409 -10.400  10.064  1.00  0.00    -0.318 OA
HETATM   21  C   UNL     1      41.497 -10.838  10.760  1.00  0.00     0.049 A 
HETATM   22  C   UNL     1      41.278 -11.245  12.165  1.00  0.00     0.076 C 
HETATM   23  C   UNL     1      42.615 -10.815   9.955  1.00  0.00     0.035 A 
HETATM   24  C   UNL     1      42.193 -10.333   8.693  1.00  0.00     0.037 A 
ENDBRANCH  18  19
ENDBRANCH   1  18
BRANCH  11  25
HETATM   25  C   UNL     1      43.478 -17.253   5.864  1.00  0.00    -0.008 A 
HETATM   26  C   UNL     1      43.883 -17.901   4.695  1.00  0.00     0.014 A 
HETATM   27  C   UNL     1      44.211 -19.262   4.713  1.00  0.00     0.001 A 
HETATM   28  C   UNL     1      44.137 -19.989   5.895  1.00  0.00     0.000 A 
HETATM   29  C   UNL     1      43.741 -19.357   7.068  1.00  0.00     0.001 A 
HETATM   30  C   UNL     1      43.411 -17.999   7.055  1.00  0.00     0.014 A 
ENDBRANCH  11  25
TORSDOF 3
ENDMDL
MODEL 9
REMARK VINA RESULT:      -8.0      2.799      8.298
REMARK  3 active torsions:
REMARK  status: ('A' for Active; 'I' for Inactive)
REMARK    1  A    between atoms: C_4  and  C_5 
REMARK    2  A    between atoms: C_5  and  N_6 
REMARK    3  A    between atoms: C_16  and  C_17 
ROOT
HETATM    1  N   UNL     1      41.638 -16.861   1.892  1.00  0.00    -0.065 N 
HETATM    2  H   UNL     1      41.284 -17.816   1.697  1.00  0.00     0.280 HD
HETATM    3  C   UNL     1      42.312 -16.375   0.644  1.00  0.00     0.238 C 
HETATM    4  C   UNL     1      41.266 -15.810  -0.301  1.00  0.00     0.077 C 
HETATM    5  C   UNL     1      40.564 -14.550   0.290  1.00  0.00     0.218 C 
HETATM    6  N   UNL     1      39.157 -14.530  -0.208  1.00  0.00     0.102 N 
HETATM    7  C   UNL     1      39.098 -14.305  -1.674  1.00  0.00     0.291 C 
HETATM    8  C   UNL     1      39.901 -13.101  -2.246  1.00  0.00     0.160 C 
HETATM    9  N   UNL     1      41.038 -12.676  -1.395  1.00  0.00    -0.331 N 
HETATM   10  C   UNL     1      41.276 -13.258  -0.202  1.00  0.00     0.123 A 
HETATM   11  C   UNL     1      41.907 -11.575  -1.594  1.00  0.00     0.061 A 
HETATM   12  C   UNL     1      42.577 -11.470  -0.389  1.00  0.00     0.120 A 
HETATM   13  N   UNL     1      42.179 -12.503   0.425  1.00  0.00    -0.351 N 
HETATM   14  H   UNL     1      42.516 -12.618   1.376  1.00  0.00     0.166 HD
HETATM   15  C   UNL     1      40.515 -14.648   1.838  1.00  0.00     0.077 C 
HETATM   16  C   UNL     1      40.408 -16.089   2.320  1.00  0.00     0.238 C 
HETATM   17  H   UNL     1      38.631 -13.770   0.239  1.00  0.00     0.317 HD
ENDROOT
BRANCH   1  18
HETATM   18  C   UNL     1      42.627 -17.141   3.020  1.00  0.00     0.299 C 
BRANCH  18  19
HETATM   19  C   UNL     1      43.260 -18.474   2.898  1.00  0.00     0.079 A 
HETATM   20  O   UNL     1      43.841 -18.971   4.031  1.00  0.00    -0.318 OA
HETATM   21  C   UNL     1      44.334 -20.202   3.716  1.00  0.00     0.049 A 
HETATM   22  C   UNL     1      45.009 -20.954   4.795  1.00  0.00     0.076 C 
HETATM   23  C   UNL     1      44.069 -20.494   2.395  1.00  0.00     0.035 A 
HETATM   24  C   UNL     1      43.376 -19.379   1.867  1.00  0.00     0.037 A 
ENDBRANCH  18  19
ENDBRANCH   1  18
BRANCH  11  25
HETATM   25  C   UNL     1      42.132 -10.669  -2.781  1.00  0.00    -0.008 A 
HETATM   26  C   UNL     1      42.135  -9.278  -2.662  1.00  0.00     0.014 A 
HETATM   27  C   UNL     1      42.290  -8.467  -3.793  1.00  0.00     0.001 A 
HETATM   28  C   UNL     1      42.444  -9.036  -5.052  1.00  0.00     0.000 A 
HETATM   29  C   UNL     1      42.449 -10.419  -5.186  1.00  0.00     0.001 A 
HETATM   30  C   UNL     1      42.293 -11.233  -4.059  1.00  0.00     0.014 A 
ENDBRANCH  11  25
TORSDOF 3
ENDMDL
MODEL 10
REMARK VINA RESULT:      -7.8      1.628      2.178
REMARK  3 active torsions:
REMARK  status: ('A' for Active; 'I' for Inactive)
REMARK    1  A    between atoms: C_4  and  C_5 
REMARK    2  A    between atoms: C_5  and  N_6 
REMARK    3  A    between atoms: C_16  and  C_17 
ROOT
HETATM    1  N   UNL     1      40.314 -11.781   1.718  1.00  0.00    -0.065 N 
HETATM    2  H   UNL     1      40.355 -10.956   2.345  1.00  0.00     0.280 HD
HETATM    3  C   UNL     1      41.593 -12.541   1.900  1.00  0.00     0.238 C 
HETATM    4  C   UNL     1      41.470 -13.441   3.116  1.00  0.00     0.077 C 
HETATM    5  C   UNL     1      40.378 -14.537   2.924  1.00  0.00     0.218 C 
HETATM    6  N   UNL     1      39.771 -14.822   4.258  1.00  0.00     0.102 N 
HETATM    7  C   UNL     1      40.746 -15.460   5.178  1.00  0.00     0.291 C 
HETATM    8  C   UNL     1      41.521 -16.702   4.650  1.00  0.00     0.160 C 
HETATM    9  N   UNL     1      41.624 -16.765   3.173  1.00  0.00    -0.331 N 
HETATM   10  C   UNL     1      41.021 -15.848   2.388  1.00  0.00     0.123 A 
HETATM   11  C   UNL     1      42.193 -17.796   2.385  1.00  0.00     0.061 A 
HETATM   12  C   UNL     1      41.773 -17.494   1.103  1.00  0.00     0.120 A 
HETATM   13  N   UNL     1      41.074 -16.310   1.139  1.00  0.00    -0.351 N 
HETATM   14  H   UNL     1      40.641 -15.900   0.317  1.00  0.00     0.166 HD
HETATM   15  C   UNL     1      39.252 -14.006   1.997  1.00  0.00     0.077 C 
HETATM   16  C   UNL     1      39.052 -12.503   2.138  1.00  0.00     0.238 C 
HETATM   17  H   UNL     1      38.978 -15.466   4.159  1.00  0.00     0.317 HD
ENDROOT
BRANCH   1  18
HETATM   18  C   UNL     1      40.223 -11.104   0.352  1.00  0.00     0.299 C 
BRANCH  18  19
HETATM   19  C   UNL     1      39.117 -11.643  -0.473  1.00  0.00     0.079 A 
HETATM   20  O   UNL     1      37.944 -10.943  -0.438  1.00  0.00    -0.318 OA
HETATM   21  C   UNL     1      37.078 -11.582  -1.275  1.00  0.00     0.049 A 
HETATM   22  C   UNL     1      35.725 -11.000  -1.416  1.00  0.00     0.076 C 
HETATM   23  C   UNL     1      37.690 -12.677  -1.844  1.00  0.00     0.035 A 
HETATM   24  C   UNL     1      39.007 -12.718  -1.327  1.00  0.00     0.037 A 
ENDBRANCH  18  19
ENDBRANCH   1  18
BRANCH  11  25
HETATM   25  C   UNL     1      43.059 -18.979   2.746  1.00  0.00    -0.008 A 
HETATM   26  C   UNL     1      43.834 -19.004   3.907  1.00  0.00     0.014 A 
HETATM   27  C   UNL     1      44.670 -20.093   4.182  1.00  0.00     0.001 A 
HETATM   28  C   UNL     1      44.741 -21.166   3.302  1.00  0.00     0.000 A 
HETATM   29  C   UNL     1      43.972 -21.159   2.144  1.00  0.00     0.001 A 
HETATM   30  C   UNL     1      43.136 -20.073   1.865  1.00  0.00     0.014 A 
ENDBRANCH  11  25
TORSDOF 3
ENDMDL
