MODEL 1
REMARK VINA RESULT:      -9.9      0.000      0.000
REMARK  7 active torsions:
REMARK  status: ('A' for Active; 'I' for Inactive)
REMARK    1  A    between atoms: C_2  and  C_3 
REMARK    2  A    between atoms: C_3  and  N_4 
REMARK    3  A    between atoms: C_8  and  C_27 
REMARK    4  A    between atoms: C_8  and  C_9 
REMARK    5  A    between atoms: N_12  and  C_14 
REMARK    6  A    between atoms: C_14  and  C_15 
REMARK    7  A    between atoms: C_27  and  C_28 
ROOT
HETATM    1  N   UNL     1      42.485 -15.958   4.700  1.00  0.00    -0.268 N 
HETATM    2  C   UNL     1      42.861 -14.956   3.863  1.00  0.00     0.326 C 
HETATM    3  O   UNL     1      43.124 -13.799   4.137  1.00  0.00    -0.247 OA
HETATM    4  N   UNL     1      42.932 -15.455   2.578  1.00  0.00    -0.324 N 
HETATM    5  C   UNL     1      42.771 -16.895   2.534  1.00  0.00     0.123 C 
HETATM    6  C   UNL     1      42.369 -17.130   4.012  1.00  0.00     0.257 C 
HETATM    7  O   UNL     1      42.057 -18.224   4.466  1.00  0.00    -0.270 OA
HETATM    8  H   UNL     1      43.351 -14.856   1.877  1.00  0.00     0.165 HD
ENDROOT
BRANCH   5   9
HETATM    9  C   UNL     1      44.111 -17.632   2.293  1.00  0.00     0.080 C 
BRANCH   9  10
HETATM   10  C   UNL     1      44.131 -19.128   2.523  1.00  0.00    -0.052 A 
HETATM   11  C   UNL     1      44.785 -19.677   3.633  1.00  0.00     0.049 A 
HETATM   12  C   UNL     1      44.792 -21.057   3.824  1.00  0.00     0.116 A 
HETATM   13  F   UNL     1      45.427 -21.565   4.887  1.00  0.00    -0.206 F 
HETATM   14  C   UNL     1      44.160 -21.909   2.929  1.00  0.00     0.042 A 
HETATM   15  C   UNL     1      43.508 -21.375   1.820  1.00  0.00     0.003 A 
HETATM   16  C   UNL     1      43.494 -19.993   1.617  1.00  0.00     0.007 A 
ENDBRANCH   9  10
ENDBRANCH   5   9
BRANCH   5  17
HETATM   17  C   UNL     1      41.568 -17.298   1.607  1.00  0.00     0.027 C 
HETATM   18  C   UNL     1      41.629 -16.776   0.159  1.00  0.00     0.035 C 
HETATM   19  C   UNL     1      41.143 -15.346  -0.047  1.00  0.00     0.235 C 
HETATM   20  N   UNL     1      39.787 -15.131   0.572  1.00  0.00    -0.067 N 
HETATM   21  H   UNL     1      39.124 -15.689   0.016  1.00  0.00     0.280 HD
HETATM   22  C   UNL     1      39.687 -15.583   2.007  1.00  0.00     0.235 C 
HETATM   23  C   UNL     1      40.158 -17.018   2.163  1.00  0.00     0.035 C 
BRANCH  20  24
HETATM   24  C   UNL     1      39.304 -13.686   0.461  1.00  0.00     0.273 C 
BRANCH  24  25
HETATM   25  C   UNL     1      40.132 -12.805  -0.434  1.00  0.00    -0.030 A 
HETATM   26  C   UNL     1      41.192 -12.046   0.082  1.00  0.00     0.048 A 
HETATM   27  C   UNL     1      41.930 -11.211  -0.760  1.00  0.00     0.102 A 
HETATM   28  C   UNL     1      41.596 -11.096  -2.111  1.00  0.00     0.102 A 
HETATM   29  O   UNL     1      42.967 -10.525  -0.185  1.00  0.00    -0.346 OA
HETATM   30  O   UNL     1      42.252 -10.270  -2.983  1.00  0.00    -0.346 OA
HETATM   31  C   UNL     1      40.556 -11.856  -2.635  1.00  0.00     0.040 A 
HETATM   32  C   UNL     1      43.083  -9.326  -2.297  1.00  0.00     0.202 C 
HETATM   33  C   UNL     1      43.861 -10.005  -1.182  1.00  0.00     0.202 C 
HETATM   34  C   UNL     1      39.827 -12.708  -1.804  1.00  0.00     0.012 A 
ENDBRANCH  24  25
ENDBRANCH  20  24
ENDBRANCH   5  17
BRANCH   1  35
HETATM   35  C   UNL     1      42.370 -15.823   6.140  1.00  0.00     0.140 C 
BRANCH  35  36
HETATM   36  C   UNL     1      43.683 -16.107   6.884  1.00  0.00    -0.004 C 
HETATM   37  C   UNL     1      43.400 -16.976   8.111  1.00  0.00     0.011 C 
HETATM   38  C   UNL     1      44.387 -14.818   7.308  1.00  0.00     0.011 C 
ENDBRANCH  35  36
ENDBRANCH   1  35
TORSDOF 7
ENDMDL
MODEL 2
REMARK VINA RESULT:      -9.8      2.222      3.172
REMARK  7 active torsions:
REMARK  status: ('A' for Active; 'I' for Inactive)
REMARK    1  A    between atoms: C_2  and  C_3 
REMARK    2  A    between atoms: C_3  and  N_4 
REMARK    3  A    between atoms: C_8  and  C_27 
REMARK    4  A    between atoms: C_8  and  C_9 
REMARK    5  A    between atoms: N_12  and  C_14 
REMARK    6  A    between atoms: C_14  and  C_15 
REMARK    7  A    between atoms: C_27  and  C_28 
ROOT
HETATM    1  N   UNL     1      42.460 -15.939   4.660  1.00  0.00    -0.268 N 
HETATM    2  C   UNL     1      42.830 -14.935   3.824  1.00  0.00     0.326 C 
HETATM    3  O   UNL     1      43.086 -13.776   4.099  1.00  0.00    -0.247 OA
HETATM    4  N   UNL     1      42.903 -15.432   2.538  1.00  0.00    -0.324 N 
HETATM    5  C   UNL     1      42.750 -16.874   2.494  1.00  0.00     0.123 C 
HETATM    6  C   UNL     1      42.350 -17.112   3.971  1.00  0.00     0.257 C 
HETATM    7  O   UNL     1      42.045 -18.207   4.425  1.00  0.00    -0.270 OA
HETATM    8  H   UNL     1      43.318 -14.831   1.838  1.00  0.00     0.165 HD
ENDROOT
BRANCH   5   9
HETATM    9  C   UNL     1      44.094 -17.603   2.253  1.00  0.00     0.080 C 
BRANCH   9  10
HETATM   10  C   UNL     1      44.123 -19.098   2.480  1.00  0.00    -0.052 A 
HETATM   11  C   UNL     1      44.775 -19.645   3.594  1.00  0.00     0.049 A 
HETATM   12  C   UNL     1      44.789 -21.025   3.783  1.00  0.00     0.116 A 
HETATM   13  F   UNL     1      45.422 -21.530   4.848  1.00  0.00    -0.206 F 
HETATM   14  C   UNL     1      44.168 -21.880   2.883  1.00  0.00     0.042 A 
HETATM   15  C   UNL     1      43.518 -21.349   1.772  1.00  0.00     0.003 A 
HETATM   16  C   UNL     1      43.496 -19.966   1.570  1.00  0.00     0.007 A 
ENDBRANCH   9  10
ENDBRANCH   5   9
BRANCH   5  17
HETATM   17  C   UNL     1      41.550 -17.283   1.567  1.00  0.00     0.027 C 
HETATM   18  C   UNL     1      41.583 -16.721   0.133  1.00  0.00     0.035 C 
HETATM   19  C   UNL     1      41.059 -15.299  -0.031  1.00  0.00     0.235 C 
HETATM   20  N   UNL     1      39.703 -15.136   0.606  1.00  0.00    -0.067 N 
HETATM   21  H   UNL     1      39.050 -15.696   0.041  1.00  0.00     0.280 HD
HETATM   22  C   UNL     1      39.629 -15.629   2.029  1.00  0.00     0.235 C 
HETATM   23  C   UNL     1      40.138 -17.054   2.142  1.00  0.00     0.035 C 
BRANCH  20  24
HETATM   24  C   UNL     1      39.183 -13.701   0.538  1.00  0.00     0.273 C 
BRANCH  24  25
HETATM   25  C   UNL     1      39.682 -12.790   1.625  1.00  0.00    -0.030 A 
HETATM   26  C   UNL     1      38.938 -12.589   2.796  1.00  0.00     0.048 A 
HETATM   27  C   UNL     1      39.404 -11.716   3.781  1.00  0.00     0.102 A 
HETATM   28  C   UNL     1      40.593 -11.008   3.592  1.00  0.00     0.102 A 
HETATM   29  O   UNL     1      38.633 -11.596   4.907  1.00  0.00    -0.346 OA
HETATM   30  O   UNL     1      41.088 -10.109   4.498  1.00  0.00    -0.346 OA
HETATM   31  C   UNL     1      41.346 -11.212   2.441  1.00  0.00     0.040 A 
HETATM   32  C   UNL     1      40.109  -9.751   5.481  1.00  0.00     0.202 C 
HETATM   33  C   UNL     1      39.369 -10.983   5.977  1.00  0.00     0.202 C 
HETATM   34  C   UNL     1      40.897 -12.099   1.462  1.00  0.00     0.012 A 
ENDBRANCH  24  25
ENDBRANCH  20  24
ENDBRANCH   5  17
BRANCH   1  35
HETATM   35  C   UNL     1      42.344 -15.806   6.100  1.00  0.00     0.140 C 
BRANCH  35  36
HETATM   36  C   UNL     1      43.656 -16.096   6.845  1.00  0.00    -0.004 C 
HETATM   37  C   UNL     1      43.367 -16.960   8.075  1.00  0.00     0.011 C 
HETATM   38  C   UNL     1      44.368 -14.810   7.266  1.00  0.00     0.011 C 
ENDBRANCH  35  36
ENDBRANCH   1  35
TORSDOF 7
ENDMDL
MODEL 3
REMARK VINA RESULT:      -9.6      2.362      3.372
REMARK  7 active torsions:
REMARK  status: ('A' for Active; 'I' for Inactive)
REMARK    1  A    between atoms: C_2  and  C_3 
REMARK    2  A    between atoms: C_3  and  N_4 
REMARK    3  A    between atoms: C_8  and  C_27 
REMARK    4  A    between atoms: C_8  and  C_9 
REMARK    5  A    between atoms: N_12  and  C_14 
REMARK    6  A    between atoms: C_14  and  C_15 
REMARK    7  A    between atoms: C_27  and  C_28 
ROOT
HETATM    1  N   UNL     1      42.352 -15.994   4.760  1.00  0.00    -0.268 N 
HETATM    2  C   UNL     1      42.716 -14.916   4.017  1.00  0.00     0.326 C 
HETATM    3  O   UNL     1      42.969 -13.787   4.395  1.00  0.00    -0.247 OA
HETATM    4  N   UNL     1      42.786 -15.295   2.691  1.00  0.00    -0.324 N 
HETATM    5  C   UNL     1      42.638 -16.727   2.517  1.00  0.00     0.123 C 
HETATM    6  C   UNL     1      42.245 -17.100   3.968  1.00  0.00     0.257 C 
HETATM    7  O   UNL     1      41.945 -18.233   4.321  1.00  0.00    -0.270 OA
HETATM    8  H   UNL     1      43.196 -14.631   2.047  1.00  0.00     0.165 HD
ENDROOT
BRANCH   5   9
HETATM    9  C   UNL     1      43.984 -17.426   2.206  1.00  0.00     0.080 C 
BRANCH   9  10
HETATM   10  C   UNL     1      44.096 -18.897   2.542  1.00  0.00    -0.052 A 
HETATM   11  C   UNL     1      43.553 -19.872   1.696  1.00  0.00     0.049 A 
HETATM   12  C   UNL     1      43.667 -21.221   2.027  1.00  0.00     0.116 A 
HETATM   13  F   UNL     1      43.136 -22.139   1.211  1.00  0.00    -0.206 F 
HETATM   14  C   UNL     1      44.312 -21.624   3.187  1.00  0.00     0.042 A 
HETATM   15  C   UNL     1      44.856 -20.663   4.037  1.00  0.00     0.003 A 
HETATM   16  C   UNL     1      44.748 -19.307   3.718  1.00  0.00     0.007 A 
ENDBRANCH   9  10
ENDBRANCH   5   9
BRANCH   5  17
HETATM   17  C   UNL     1      41.436 -17.055   1.560  1.00  0.00     0.027 C 
HETATM   18  C   UNL     1      41.615 -16.646   0.087  1.00  0.00     0.035 C 
HETATM   19  C   UNL     1      41.308 -15.188  -0.236  1.00  0.00     0.235 C 
HETATM   20  N   UNL     1      39.962 -14.778   0.302  1.00  0.00    -0.067 N 
HETATM   21  H   UNL     1      39.262 -15.294  -0.249  1.00  0.00     0.280 HD
HETATM   22  C   UNL     1      39.752 -15.114   1.757  1.00  0.00     0.235 C 
HETATM   23  C   UNL     1      40.046 -16.578   2.028  1.00  0.00     0.035 C 
BRANCH  20  24
HETATM   24  C   UNL     1      39.656 -13.299   0.073  1.00  0.00     0.273 C 
BRANCH  24  25
HETATM   25  C   UNL     1      38.652 -13.015  -1.010  1.00  0.00    -0.030 A 
HETATM   26  C   UNL     1      38.372 -13.966  -2.001  1.00  0.00     0.048 A 
HETATM   27  C   UNL     1      37.458 -13.673  -3.015  1.00  0.00     0.102 A 
HETATM   28  C   UNL     1      36.844 -12.420  -3.072  1.00  0.00     0.102 A 
HETATM   29  O   UNL     1      37.219 -14.666  -3.929  1.00  0.00    -0.346 OA
HETATM   30  O   UNL     1      35.969 -12.053  -4.058  1.00  0.00    -0.346 OA
HETATM   31  C   UNL     1      37.103 -11.475  -2.085  1.00  0.00     0.040 A 
HETATM   32  C   UNL     1      36.006 -12.960  -5.167  1.00  0.00     0.202 C 
HETATM   33  C   UNL     1      36.025 -14.401  -4.682  1.00  0.00     0.202 C 
HETATM   34  C   UNL     1      38.000 -11.769  -1.057  1.00  0.00     0.012 A 
ENDBRANCH  24  25
ENDBRANCH  20  24
ENDBRANCH   5  17
BRANCH   1  35
HETATM   35  C   UNL     1      42.241 -15.992   6.207  1.00  0.00     0.140 C 
BRANCH  35  36
HETATM   36  C   UNL     1      43.568 -16.298   6.918  1.00  0.00    -0.004 C 
HETATM   37  C   UNL     1      43.302 -17.166   8.150  1.00  0.00     0.011 C 
HETATM   38  C   UNL     1      44.302 -15.020   7.328  1.00  0.00     0.011 C 
ENDBRANCH  35  36
ENDBRANCH   1  35
TORSDOF 7
ENDMDL
MODEL 4
REMARK VINA RESULT:      -9.4      2.352      3.450
REMARK  7 active torsions:
REMARK  status: ('A' for Active; 'I' for Inactive)
REMARK    1  A    between atoms: C_2  and  C_3 
REMARK    2  A    between atoms: C_3  and  N_4 
REMARK    3  A    between atoms: C_8  and  C_27 
REMARK    4  A    between atoms: C_8  and  C_9 
REMARK    5  A    between atoms: N_12  and  C_14 
REMARK    6  A    between atoms: C_14  and  C_15 
REMARK    7  A    between atoms: C_27  and  C_28 
ROOT
HETATM    1  N   UNL     1      42.392 -14.774   4.986  1.00  0.00    -0.268 N 
HETATM    2  C   UNL     1      43.291 -14.536   3.997  1.00  0.00     0.326 C 
HETATM    3  O   UNL     1      43.688 -13.465   3.574  1.00  0.00    -0.247 OA
HETATM    4  N   UNL     1      43.745 -15.746   3.509  1.00  0.00    -0.324 N 
HETATM    5  C   UNL     1      43.281 -16.869   4.301  1.00  0.00     0.123 C 
HETATM    6  C   UNL     1      42.286 -16.115   5.217  1.00  0.00     0.257 C 
HETATM    7  O   UNL     1      41.574 -16.666   6.047  1.00  0.00    -0.270 OA
HETATM    8  H   UNL     1      44.533 -15.718   2.875  1.00  0.00     0.165 HD
ENDROOT
BRANCH   5   9
HETATM    9  C   UNL     1      44.394 -17.454   5.204  1.00  0.00     0.080 C 
BRANCH   9  10
HETATM   10  C   UNL     1      44.380 -18.948   5.444  1.00  0.00    -0.052 A 
HETATM   11  C   UNL     1      43.771 -19.488   6.583  1.00  0.00     0.049 A 
HETATM   12  C   UNL     1      43.771 -20.867   6.784  1.00  0.00     0.116 A 
HETATM   13  F   UNL     1      43.190 -21.366   7.882  1.00  0.00    -0.206 F 
HETATM   14  C   UNL     1      44.367 -21.726   5.872  1.00  0.00     0.042 A 
HETATM   15  C   UNL     1      44.977 -21.201   4.735  1.00  0.00     0.003 A 
HETATM   16  C   UNL     1      44.984 -19.820   4.522  1.00  0.00     0.007 A 
ENDBRANCH   9  10
ENDBRANCH   5   9
BRANCH   5  17
HETATM   17  C   UNL     1      42.484 -17.892   3.413  1.00  0.00     0.027 C 
HETATM   18  C   UNL     1      43.148 -18.290   2.082  1.00  0.00     0.035 C 
HETATM   19  C   UNL     1      42.941 -17.319   0.925  1.00  0.00     0.235 C 
HETATM   20  N   UNL     1      41.485 -16.978   0.747  1.00  0.00    -0.067 N 
HETATM   21  H   UNL     1      41.025 -17.838   0.419  1.00  0.00     0.280 HD
HETATM   22  C   UNL     1      40.797 -16.536   2.014  1.00  0.00     0.235 C 
HETATM   23  C   UNL     1      41.010 -17.541   3.131  1.00  0.00     0.035 C 
BRANCH  20  24
HETATM   24  C   UNL     1      41.247 -15.940  -0.348  1.00  0.00     0.273 C 
BRANCH  24  25
HETATM   25  C   UNL     1      40.843 -14.576   0.142  1.00  0.00    -0.030 A 
HETATM   26  C   UNL     1      39.495 -14.192   0.176  1.00  0.00     0.048 A 
HETATM   27  C   UNL     1      39.142 -12.912   0.607  1.00  0.00     0.102 A 
HETATM   28  C   UNL     1      40.128 -11.993   0.971  1.00  0.00     0.102 A 
HETATM   29  O   UNL     1      37.803 -12.624   0.638  1.00  0.00    -0.346 OA
HETATM   30  O   UNL     1      39.855 -10.711   1.366  1.00  0.00    -0.346 OA
HETATM   31  C   UNL     1      41.467 -12.369   0.955  1.00  0.00     0.040 A 
HETATM   32  C   UNL     1      38.507 -10.335   1.060  1.00  0.00     0.202 C 
HETATM   33  C   UNL     1      37.542 -11.452   1.426  1.00  0.00     0.202 C 
HETATM   34  C   UNL     1      41.825 -13.654   0.546  1.00  0.00     0.012 A 
ENDBRANCH  24  25
ENDBRANCH  20  24
ENDBRANCH   5  17
BRANCH   1  35
HETATM   35  C   UNL     1      41.753 -13.740   5.778  1.00  0.00     0.140 C 
BRANCH  35  36
HETATM   36  C   UNL     1      40.221 -13.746   5.663  1.00  0.00    -0.004 C 
HETATM   37  C   UNL     1      39.815 -13.565   4.199  1.00  0.00     0.011 C 
HETATM   38  C   UNL     1      39.582 -12.653   6.521  1.00  0.00     0.011 C 
ENDBRANCH  35  36
ENDBRANCH   1  35
TORSDOF 7
ENDMDL
MODEL 5
REMARK VINA RESULT:      -9.3      3.224      7.532
REMARK  7 active torsions:
REMARK  status: ('A' for Active; 'I' for Inactive)
REMARK    1  A    between atoms: C_2  and  C_3 
REMARK    2  A    between atoms: C_3  and  N_4 
REMARK    3  A    between atoms: C_8  and  C_27 
REMARK    4  A    between atoms: C_8  and  C_9 
REMARK    5  A    between atoms: N_12  and  C_14 
REMARK    6  A    between atoms: C_14  and  C_15 
REMARK    7  A    between atoms: C_27  and  C_28 
ROOT
HETATM    1  N   UNL     1      41.777 -15.782   2.545  1.00  0.00    -0.268 N 
HETATM    2  C   UNL     1      41.171 -16.997   2.509  1.00  0.00     0.326 C 
HETATM    3  O   UNL     1      40.297 -17.386   1.756  1.00  0.00    -0.247 OA
HETATM    4  N   UNL     1      41.723 -17.797   3.490  1.00  0.00    -0.324 N 
HETATM    5  C   UNL     1      42.876 -17.183   4.120  1.00  0.00     0.123 C 
HETATM    6  C   UNL     1      42.769 -15.776   3.482  1.00  0.00     0.257 C 
HETATM    7  O   UNL     1      43.513 -14.844   3.762  1.00  0.00    -0.270 OA
HETATM    8  H   UNL     1      41.474 -18.778   3.474  1.00  0.00     0.165 HD
ENDROOT
BRANCH   5   9
HETATM    9  C   UNL     1      44.210 -17.809   3.646  1.00  0.00     0.080 C 
BRANCH   9  10
HETATM   10  C   UNL     1      44.238 -19.307   3.435  1.00  0.00    -0.052 A 
HETATM   11  C   UNL     1      44.634 -20.172   4.462  1.00  0.00     0.049 A 
HETATM   12  C   UNL     1      44.653 -21.548   4.244  1.00  0.00     0.116 A 
HETATM   13  F   UNL     1      45.041 -22.360   5.235  1.00  0.00    -0.206 F 
HETATM   14  C   UNL     1      44.284 -22.086   3.019  1.00  0.00     0.042 A 
HETATM   15  C   UNL     1      43.889 -21.236   1.989  1.00  0.00     0.003 A 
HETATM   16  C   UNL     1      43.867 -19.854   2.194  1.00  0.00     0.007 A 
ENDBRANCH   9  10
ENDBRANCH   5   9
BRANCH   5  17
HETATM   17  C   UNL     1      42.667 -17.059   5.673  1.00  0.00     0.027 C 
HETATM   18  C   UNL     1      41.832 -15.855   6.147  1.00  0.00     0.035 C 
HETATM   19  C   UNL     1      42.587 -14.536   6.271  1.00  0.00     0.235 C 
HETATM   20  N   UNL     1      43.848 -14.698   7.078  1.00  0.00    -0.067 N 
HETATM   21  H   UNL     1      43.550 -14.892   8.044  1.00  0.00     0.280 HD
HETATM   22  C   UNL     1      44.727 -15.837   6.624  1.00  0.00     0.235 C 
HETATM   23  C   UNL     1      43.942 -17.133   6.537  1.00  0.00     0.035 C 
BRANCH  20  24
HETATM   24  C   UNL     1      44.676 -13.416   7.151  1.00  0.00     0.273 C 
BRANCH  24  25
HETATM   25  C   UNL     1      44.467 -12.593   8.393  1.00  0.00    -0.030 A 
HETATM   26  C   UNL     1      43.366 -11.733   8.511  1.00  0.00     0.048 A 
HETATM   27  C   UNL     1      43.206 -10.955   9.659  1.00  0.00     0.102 A 
HETATM   28  C   UNL     1      44.157 -10.998  10.681  1.00  0.00     0.102 A 
HETATM   29  O   UNL     1      42.090 -10.162   9.710  1.00  0.00    -0.346 OA
HETATM   30  O   UNL     1      44.082 -10.236  11.815  1.00  0.00    -0.346 OA
HETATM   31  C   UNL     1      45.245 -11.859  10.580  1.00  0.00     0.040 A 
HETATM   32  C   UNL     1      43.117  -9.185  11.686  1.00  0.00     0.202 C 
HETATM   33  C   UNL     1      41.838  -9.705  11.048  1.00  0.00     0.202 C 
HETATM   34  C   UNL     1      45.400 -12.655   9.444  1.00  0.00     0.012 A 
ENDBRANCH  24  25
ENDBRANCH  20  24
ENDBRANCH   5  17
BRANCH   1  35
HETATM   35  C   UNL     1      41.503 -14.702   1.616  1.00  0.00     0.140 C 
BRANCH  35  36
HETATM   36  C   UNL     1      40.274 -13.865   2.002  1.00  0.00    -0.004 C 
HETATM   37  C   UNL     1      39.690 -13.203   0.753  1.00  0.00     0.011 C 
HETATM   38  C   UNL     1      40.617 -12.801   3.046  1.00  0.00     0.011 C 
ENDBRANCH  35  36
ENDBRANCH   1  35
TORSDOF 7
ENDMDL
MODEL 6
REMARK VINA RESULT:      -9.2      1.976      4.272
REMARK  7 active torsions:
REMARK  status: ('A' for Active; 'I' for Inactive)
REMARK    1  A    between atoms: C_2  and  C_3 
REMARK    2  A    between atoms: C_3  and  N_4 
REMARK    3  A    between atoms: C_8  and  C_27 
REMARK    4  A    between atoms: C_8  and  C_9 
REMARK    5  A    between atoms: N_12  and  C_14 
REMARK    6  A    between atoms: C_14  and  C_15 
REMARK    7  A    between atoms: C_27  and  C_28 
ROOT
HETATM    1  N   UNL     1      43.727 -19.002   3.549  1.00  0.00    -0.268 N 
HETATM    2  C   UNL     1      42.871 -18.508   4.481  1.00  0.00     0.326 C 
HETATM    3  O   UNL     1      42.749 -18.838   5.647  1.00  0.00    -0.247 OA
HETATM    4  N   UNL     1      42.120 -17.503   3.905  1.00  0.00    -0.324 N 
HETATM    5  C   UNL     1      42.583 -17.160   2.574  1.00  0.00     0.123 C 
HETATM    6  C   UNL     1      43.611 -18.302   2.383  1.00  0.00     0.257 C 
HETATM    7  O   UNL     1      44.242 -18.483   1.349  1.00  0.00    -0.270 OA
HETATM    8  H   UNL     1      41.550 -16.943   4.528  1.00  0.00     0.165 HD
ENDROOT
BRANCH   5   9
HETATM    9  C   UNL     1      43.363 -15.823   2.548  1.00  0.00     0.080 C 
BRANCH   9  10
HETATM   10  C   UNL     1      43.065 -14.824   3.645  1.00  0.00    -0.052 A 
HETATM   11  C   UNL     1      43.642 -14.955   4.915  1.00  0.00     0.049 A 
HETATM   12  C   UNL     1      43.352 -14.024   5.910  1.00  0.00     0.116 A 
HETATM   13  F   UNL     1      43.908 -14.169   7.119  1.00  0.00    -0.206 F 
HETATM   14  C   UNL     1      42.495 -12.960   5.670  1.00  0.00     0.042 A 
HETATM   15  C   UNL     1      41.913 -12.819   4.412  1.00  0.00     0.003 A 
HETATM   16  C   UNL     1      42.195 -13.746   3.406  1.00  0.00     0.007 A 
ENDBRANCH   9  10
ENDBRANCH   5   9
BRANCH   5  17
HETATM   17  C   UNL     1      41.431 -17.324   1.519  1.00  0.00     0.027 C 
HETATM   18  C   UNL     1      41.632 -16.589   0.181  1.00  0.00     0.035 C 
HETATM   19  C   UNL     1      41.252 -15.112   0.176  1.00  0.00     0.235 C 
HETATM   20  N   UNL     1      39.869 -14.899   0.733  1.00  0.00    -0.067 N 
HETATM   21  H   UNL     1      39.217 -15.313   0.053  1.00  0.00     0.280 HD
HETATM   22  C   UNL     1      39.634 -15.561   2.067  1.00  0.00     0.235 C 
HETATM   23  C   UNL     1      40.003 -17.032   2.020  1.00  0.00     0.035 C 
BRANCH  20  24
HETATM   24  C   UNL     1      39.486 -13.423   0.824  1.00  0.00     0.273 C 
BRANCH  24  25
HETATM   25  C   UNL     1      40.210 -12.516  -0.133  1.00  0.00    -0.030 A 
HETATM   26  C   UNL     1      41.362 -11.822   0.263  1.00  0.00     0.048 A 
HETATM   27  C   UNL     1      42.003 -10.962  -0.631  1.00  0.00     0.102 A 
HETATM   28  C   UNL     1      41.482 -10.757  -1.911  1.00  0.00     0.102 A 
HETATM   29  O   UNL     1      43.139 -10.343  -0.178  1.00  0.00    -0.346 OA
HETATM   30  O   UNL     1      42.037  -9.901  -2.823  1.00  0.00    -0.346 OA
HETATM   31  C   UNL     1      40.348 -11.452  -2.318  1.00  0.00     0.040 A 
HETATM   32  C   UNL     1      42.995  -9.025  -2.216  1.00  0.00     0.202 C 
HETATM   33  C   UNL     1      43.899  -9.793  -1.265  1.00  0.00     0.202 C 
HETATM   34  C   UNL     1      39.715 -12.329  -1.436  1.00  0.00     0.012 A 
ENDBRANCH  24  25
ENDBRANCH  20  24
ENDBRANCH   5  17
BRANCH   1  35
HETATM   35  C   UNL     1      44.721 -20.026   3.809  1.00  0.00     0.140 C 
BRANCH  35  36
HETATM   36  C   UNL     1      44.220 -21.448   3.513  1.00  0.00    -0.004 C 
HETATM   37  C   UNL     1      44.776 -22.417   4.559  1.00  0.00     0.011 C 
HETATM   38  C   UNL     1      44.616 -21.910   2.110  1.00  0.00     0.011 C 
ENDBRANCH  35  36
ENDBRANCH   1  35
TORSDOF 7
ENDMDL
MODEL 7
REMARK VINA RESULT:      -9.2      3.743      7.196
REMARK  7 active torsions:
REMARK  status: ('A' for Active; 'I' for Inactive)
REMARK    1  A    between atoms: C_2  and  C_3 
REMARK    2  A    between atoms: C_3  and  N_4 
REMARK    3  A    between atoms: C_8  and  C_27 
REMARK    4  A    between atoms: C_8  and  C_9 
REMARK    5  A    between atoms: N_12  and  C_14 
REMARK    6  A    between atoms: C_14  and  C_15 
REMARK    7  A    between atoms: C_27  and  C_28 
ROOT
HETATM    1  N   UNL     1      40.859 -15.323   1.079  1.00  0.00    -0.268 N 
HETATM    2  C   UNL     1      39.908 -15.031   2.003  1.00  0.00     0.326 C 
HETATM    3  O   UNL     1      38.810 -14.536   1.829  1.00  0.00    -0.247 OA
HETATM    4  N   UNL     1      40.368 -15.411   3.248  1.00  0.00    -0.324 N 
HETATM    5  C   UNL     1      41.611 -16.154   3.175  1.00  0.00     0.123 C 
HETATM    6  C   UNL     1      41.916 -15.952   1.671  1.00  0.00     0.257 C 
HETATM    7  O   UNL     1      42.934 -16.357   1.123  1.00  0.00    -0.270 OA
HETATM    8  H   UNL     1      39.699 -15.393   4.008  1.00  0.00     0.165 HD
ENDROOT
BRANCH   5   9
HETATM    9  C   UNL     1      41.406 -17.671   3.409  1.00  0.00     0.080 C 
BRANCH   9  10
HETATM   10  C   UNL     1      42.599 -18.465   3.895  1.00  0.00    -0.052 A 
HETATM   11  C   UNL     1      43.465 -19.089   2.989  1.00  0.00     0.049 A 
HETATM   12  C   UNL     1      44.557 -19.817   3.460  1.00  0.00     0.116 A 
HETATM   13  F   UNL     1      45.371 -20.413   2.580  1.00  0.00    -0.206 F 
HETATM   14  C   UNL     1      44.806 -19.939   4.820  1.00  0.00     0.042 A 
HETATM   15  C   UNL     1      43.951 -19.324   5.730  1.00  0.00     0.003 A 
HETATM   16  C   UNL     1      42.852 -18.592   5.272  1.00  0.00     0.007 A 
ENDBRANCH   9  10
ENDBRANCH   5   9
BRANCH   5  17
HETATM   17  C   UNL     1      42.734 -15.456   4.024  1.00  0.00     0.027 C 
HETATM   18  C   UNL     1      42.413 -15.232   5.513  1.00  0.00     0.035 C 
HETATM   19  C   UNL     1      41.581 -13.995   5.831  1.00  0.00     0.235 C 
HETATM   20  N   UNL     1      42.163 -12.762   5.189  1.00  0.00    -0.067 N 
HETATM   21  H   UNL     1      43.054 -12.578   5.672  1.00  0.00     0.280 HD
HETATM   22  C   UNL     1      42.453 -12.912   3.717  1.00  0.00     0.235 C 
HETATM   23  C   UNL     1      43.301 -14.142   3.450  1.00  0.00     0.035 C 
BRANCH  20  24
HETATM   24  C   UNL     1      41.308 -11.516   5.414  1.00  0.00     0.273 C 
BRANCH  24  25
HETATM   25  C   UNL     1      41.010 -11.198   6.853  1.00  0.00    -0.030 A 
HETATM   26  C   UNL     1      42.033 -10.825   7.737  1.00  0.00     0.048 A 
HETATM   27  C   UNL     1      41.740 -10.562   9.076  1.00  0.00     0.102 A 
HETATM   28  C   UNL     1      40.436 -10.705   9.555  1.00  0.00     0.102 A 
HETATM   29  O   UNL     1      42.789 -10.176   9.868  1.00  0.00    -0.346 OA
HETATM   30  O   UNL     1      40.086 -10.501  10.863  1.00  0.00    -0.346 OA
HETATM   31  C   UNL     1      39.411 -11.060   8.684  1.00  0.00     0.040 A 
HETATM   32  C   UNL     1      41.234 -10.443  11.718  1.00  0.00     0.202 C 
HETATM   33  C   UNL     1      42.326  -9.589  11.094  1.00  0.00     0.202 C 
HETATM   34  C   UNL     1      39.694 -11.303   7.339  1.00  0.00     0.012 A 
ENDBRANCH  24  25
ENDBRANCH  20  24
ENDBRANCH   5  17
BRANCH   1  35
HETATM   35  C   UNL     1      40.702 -15.126  -0.350  1.00  0.00     0.140 C 
BRANCH  35  36
HETATM   36  C   UNL     1      41.673 -14.086  -0.930  1.00  0.00    -0.004 C 
HETATM   37  C   UNL     1      41.463 -12.741  -0.233  1.00  0.00     0.011 C 
HETATM   38  C   UNL     1      41.497 -13.925  -2.441  1.00  0.00     0.011 C 
ENDBRANCH  35  36
ENDBRANCH   1  35
TORSDOF 7
ENDMDL
MODEL 8
REMARK VINA RESULT:      -9.2      2.443      4.748
REMARK  7 active torsions:
REMARK  status: ('A' for Active; 'I' for Inactive)
REMARK    1  A    between atoms: C_2  and  C_3 
REMARK    2  A    between atoms: C_3  and  N_4 
REMARK    3  A    between atoms: C_8  and  C_27 
REMARK    4  A    between atoms: C_8  and  C_9 
REMARK    5  A    between atoms: N_12  and  C_14 
REMARK    6  A    between atoms: C_14  and  C_15 
REMARK    7  A    between atoms: C_27  and  C_28 
ROOT
HETATM    1  N   UNL     1      43.745 -19.046   3.636  1.00  0.00    -0.268 N 
HETATM    2  C   UNL     1      42.901 -18.527   4.565  1.00  0.00     0.326 C 
HETATM    3  O   UNL     1      42.781 -18.837   5.736  1.00  0.00    -0.247 OA
HETATM    4  N   UNL     1      42.159 -17.521   3.978  1.00  0.00    -0.324 N 
HETATM    5  C   UNL     1      42.619 -17.204   2.640  1.00  0.00     0.123 C 
HETATM    6  C   UNL     1      43.631 -18.363   2.460  1.00  0.00     0.257 C 
HETATM    7  O   UNL     1      44.254 -18.567   1.425  1.00  0.00    -0.270 OA
HETATM    8  H   UNL     1      41.601 -16.944   4.595  1.00  0.00     0.165 HD
ENDROOT
BRANCH   5   9
HETATM    9  C   UNL     1      43.417 -15.878   2.589  1.00  0.00     0.080 C 
BRANCH   9  10
HETATM   10  C   UNL     1      43.045 -14.806   3.590  1.00  0.00    -0.052 A 
HETATM   11  C   UNL     1      42.407 -13.628   3.179  1.00  0.00     0.049 A 
HETATM   12  C   UNL     1      42.075 -12.654   4.118  1.00  0.00     0.116 A 
HETATM   13  F   UNL     1      41.472 -11.531   3.707  1.00  0.00    -0.206 F 
HETATM   14  C   UNL     1      42.364 -12.825   5.464  1.00  0.00     0.042 A 
HETATM   15  C   UNL     1      42.999 -13.991   5.885  1.00  0.00     0.003 A 
HETATM   16  C   UNL     1      43.338 -14.976   4.953  1.00  0.00     0.007 A 
ENDBRANCH   9  10
ENDBRANCH   5   9
BRANCH   5  17
HETATM   17  C   UNL     1      41.460 -17.369   1.593  1.00  0.00     0.027 C 
HETATM   18  C   UNL     1      41.703 -16.734   0.211  1.00  0.00     0.035 C 
HETATM   19  C   UNL     1      41.409 -15.241   0.110  1.00  0.00     0.235 C 
HETATM   20  N   UNL     1      40.041 -14.913   0.647  1.00  0.00    -0.067 N 
HETATM   21  H   UNL     1      39.365 -15.331  -0.007  1.00  0.00     0.280 HD
HETATM   22  C   UNL     1      39.768 -15.473   2.021  1.00  0.00     0.235 C 
HETATM   23  C   UNL     1      40.051 -16.963   2.069  1.00  0.00     0.035 C 
BRANCH  20  24
HETATM   24  C   UNL     1      39.744 -13.414   0.642  1.00  0.00     0.273 C 
BRANCH  24  25
HETATM   25  C   UNL     1      40.488 -12.620  -0.397  1.00  0.00    -0.030 A 
HETATM   26  C   UNL     1      40.062 -12.603  -1.732  1.00  0.00     0.048 A 
HETATM   27  C   UNL     1      40.782 -11.884  -2.688  1.00  0.00     0.102 A 
HETATM   28  C   UNL     1      41.951 -11.208  -2.330  1.00  0.00     0.102 A 
HETATM   29  O   UNL     1      40.284 -11.893  -3.964  1.00  0.00    -0.346 OA
HETATM   30  O   UNL     1      42.725 -10.517  -3.222  1.00  0.00    -0.346 OA
HETATM   31  C   UNL     1      42.374 -11.207  -1.005  1.00  0.00     0.040 A 
HETATM   32  C   UNL     1      42.383 -10.828  -4.578  1.00  0.00     0.202 C 
HETATM   33  C   UNL     1      40.873 -10.851  -4.759  1.00  0.00     0.202 C 
HETATM   34  C   UNL     1      41.647 -11.907  -0.041  1.00  0.00     0.012 A 
ENDBRANCH  24  25
ENDBRANCH  20  24
ENDBRANCH   5  17
BRANCH   1  35
HETATM   35  C   UNL     1      44.726 -20.079   3.906  1.00  0.00     0.140 C 
BRANCH  35  36
HETATM   36  C   UNL     1      44.209 -21.498   3.621  1.00  0.00    -0.004 C 
HETATM   37  C   UNL     1      44.807 -22.475   4.636  1.00  0.00     0.011 C 
HETATM   38  C   UNL     1      44.545 -21.950   2.200  1.00  0.00     0.011 C 
ENDBRANCH  35  36
ENDBRANCH   1  35
TORSDOF 7
ENDMDL
MODEL 9
REMARK VINA RESULT:      -9.0      2.850      4.229
REMARK  7 active torsions:
REMARK  status: ('A' for Active; 'I' for Inactive)
REMARK    1  A    between atoms: C_2  and  C_3 
REMARK    2  A    between atoms: C_3  and  N_4 
REMARK    3  A    between atoms: C_8  and  C_27 
REMARK    4  A    between atoms: C_8  and  C_9 
REMARK    5  A    between atoms: N_12  and  C_14 
REMARK    6  A    between atoms: C_14  and  C_15 
REMARK    7  A    between atoms: C_27  and  C_28 
ROOT
HETATM    1  N   UNL     1      41.748 -13.959   4.068  1.00  0.00    -0.268 N 
HETATM    2  C   UNL     1      42.793 -14.316   3.278  1.00  0.00     0.326 C 
HETATM    3  O   UNL     1      43.770 -13.658   2.971  1.00  0.00    -0.247 OA
HETATM    4  N   UNL     1      42.605 -15.617   2.853  1.00  0.00    -0.324 N 
HETATM    5  C   UNL     1      41.478 -16.254   3.508  1.00  0.00     0.123 C 
HETATM    6  C   UNL     1      40.900 -15.015   4.236  1.00  0.00     0.257 C 
HETATM    7  O   UNL     1      39.869 -15.034   4.896  1.00  0.00    -0.270 OA
HETATM    8  H   UNL     1      43.383 -16.062   2.384  1.00  0.00     0.165 HD
ENDROOT
BRANCH   5   9
HETATM    9  C   UNL     1      41.922 -17.266   4.592  1.00  0.00     0.080 C 
BRANCH   9  10
HETATM   10  C   UNL     1      42.951 -18.301   4.195  1.00  0.00    -0.052 A 
HETATM   11  C   UNL     1      42.882 -18.946   2.953  1.00  0.00     0.049 A 
HETATM   12  C   UNL     1      43.839 -19.897   2.609  1.00  0.00     0.116 A 
HETATM   13  F   UNL     1      43.754 -20.508   1.421  1.00  0.00    -0.206 F 
HETATM   14  C   UNL     1      44.871 -20.225   3.477  1.00  0.00     0.042 A 
HETATM   15  C   UNL     1      44.950 -19.592   4.716  1.00  0.00     0.003 A 
HETATM   16  C   UNL     1      43.995 -18.637   5.073  1.00  0.00     0.007 A 
ENDBRANCH   9  10
ENDBRANCH   5   9
BRANCH   5  17
HETATM   17  C   UNL     1      40.431 -16.763   2.454  1.00  0.00     0.027 C 
HETATM   18  C   UNL     1      41.011 -17.311   1.137  1.00  0.00     0.035 C 
HETATM   19  C   UNL     1      41.368 -16.265   0.087  1.00  0.00     0.235 C 
HETATM   20  N   UNL     1      40.223 -15.316  -0.155  1.00  0.00    -0.067 N 
HETATM   21  H   UNL     1      39.483 -15.867  -0.612  1.00  0.00     0.280 HD
HETATM   22  C   UNL     1      39.648 -14.714   1.102  1.00  0.00     0.235 C 
HETATM   23  C   UNL     1      39.286 -15.791   2.109  1.00  0.00     0.035 C 
BRANCH  20  24
HETATM   24  C   UNL     1      40.573 -14.201  -1.138  1.00  0.00     0.273 C 
BRANCH  24  25
HETATM   25  C   UNL     1      39.411 -13.651  -1.918  1.00  0.00    -0.030 A 
HETATM   26  C   UNL     1      38.698 -14.459  -2.815  1.00  0.00     0.048 A 
HETATM   27  C   UNL     1      37.640 -13.922  -3.552  1.00  0.00     0.102 A 
HETATM   28  C   UNL     1      37.309 -12.571  -3.431  1.00  0.00     0.102 A 
HETATM   29  O   UNL     1      36.975 -14.784  -4.385  1.00  0.00    -0.346 OA
HETATM   30  O   UNL     1      36.310 -11.972  -4.150  1.00  0.00    -0.346 OA
HETATM   31  C   UNL     1      38.001 -11.765  -2.534  1.00  0.00     0.040 A 
HETATM   32  C   UNL     1      35.875 -12.792  -5.242  1.00  0.00     0.202 C 
HETATM   33  C   UNL     1      35.713 -14.237  -4.797  1.00  0.00     0.202 C 
HETATM   34  C   UNL     1      39.045 -12.300  -1.778  1.00  0.00     0.012 A 
ENDBRANCH  24  25
ENDBRANCH  20  24
ENDBRANCH   5  17
BRANCH   1  35
HETATM   35  C   UNL     1      41.635 -12.684   4.751  1.00  0.00     0.140 C 
BRANCH  35  36
HETATM   36  C   UNL     1      41.078 -11.564   3.858  1.00  0.00    -0.004 C 
HETATM   37  C   UNL     1      41.201 -10.221   4.581  1.00  0.00     0.011 C 
HETATM   38  C   UNL     1      39.620 -11.817   3.471  1.00  0.00     0.011 C 
ENDBRANCH  35  36
ENDBRANCH   1  35
TORSDOF 7
ENDMDL
MODEL 10
REMARK VINA RESULT:      -9.0      3.885      9.087
REMARK  7 active torsions:
REMARK  status: ('A' for Active; 'I' for Inactive)
REMARK    1  A    between atoms: C_2  and  C_3 
REMARK    2  A    between atoms: C_3  and  N_4 
REMARK    3  A    between atoms: C_8  and  C_27 
REMARK    4  A    between atoms: C_8  and  C_9 
REMARK    5  A    between atoms: N_12  and  C_14 
REMARK    6  A    between atoms: C_14  and  C_15 
REMARK    7  A    between atoms: C_27  and  C_28 
ROOT
HETATM    1  N   UNL     1      40.017 -12.286   2.685  1.00  0.00    -0.268 N 
HETATM    2  C   UNL     1      41.301 -11.954   2.394  1.00  0.00     0.326 C 
HETATM    3  O   UNL     1      41.793 -11.708   1.308  1.00  0.00    -0.247 OA
HETATM    4  N   UNL     1      42.024 -11.908   3.570  1.00  0.00    -0.324 N 
HETATM    5  C   UNL     1      41.182 -12.041   4.743  1.00  0.00     0.123 C 
HETATM    6  C   UNL     1      39.851 -12.396   4.035  1.00  0.00     0.257 C 
HETATM    7  O   UNL     1      38.817 -12.673   4.630  1.00  0.00    -0.270 OA
HETATM    8  H   UNL     1      42.959 -11.522   3.518  1.00  0.00     0.165 HD
ENDROOT
BRANCH   5   9
HETATM    9  C   UNL     1      40.974 -10.693   5.475  1.00  0.00     0.080 C 
BRANCH   9  10
HETATM   10  C   UNL     1      40.831 -10.737   6.981  1.00  0.00    -0.052 A 
HETATM   11  C   UNL     1      41.906 -10.408   7.816  1.00  0.00     0.049 A 
HETATM   12  C   UNL     1      41.751 -10.457   9.200  1.00  0.00     0.116 A 
HETATM   13  F   UNL     1      42.791 -10.146   9.984  1.00  0.00    -0.206 F 
HETATM   14  C   UNL     1      40.544 -10.828   9.776  1.00  0.00     0.042 A 
HETATM   15  C   UNL     1      39.467 -11.158   8.955  1.00  0.00     0.003 A 
HETATM   16  C   UNL     1      39.610 -11.114   7.566  1.00  0.00     0.007 A 
ENDBRANCH   9  10
ENDBRANCH   5   9
BRANCH   5  17
HETATM   17  C   UNL     1      41.634 -13.260   5.624  1.00  0.00     0.027 C 
HETATM   18  C   UNL     1      43.153 -13.502   5.713  1.00  0.00     0.035 C 
HETATM   19  C   UNL     1      43.766 -14.277   4.552  1.00  0.00     0.235 C 
HETATM   20  N   UNL     1      43.009 -15.550   4.280  1.00  0.00    -0.067 N 
HETATM   21  H   UNL     1      43.176 -16.164   5.090  1.00  0.00     0.280 HD
HETATM   22  C   UNL     1      41.519 -15.362   4.138  1.00  0.00     0.235 C 
HETATM   23  C   UNL     1      40.948 -14.607   5.324  1.00  0.00     0.035 C 
BRANCH  20  24
HETATM   24  C   UNL     1      43.542 -16.312   3.068  1.00  0.00     0.273 C 
BRANCH  24  25
HETATM   25  C   UNL     1      43.798 -17.776   3.298  1.00  0.00    -0.030 A 
HETATM   26  C   UNL     1      43.929 -18.291   4.595  1.00  0.00     0.048 A 
HETATM   27  C   UNL     1      44.196 -19.648   4.787  1.00  0.00     0.102 A 
HETATM   28  C   UNL     1      44.373 -20.495   3.691  1.00  0.00     0.102 A 
HETATM   29  O   UNL     1      44.280 -20.078   6.085  1.00  0.00    -0.346 OA
HETATM   30  O   UNL     1      44.674 -21.825   3.806  1.00  0.00    -0.346 OA
HETATM   31  C   UNL     1      44.231 -19.997   2.400  1.00  0.00     0.040 A 
HETATM   32  C   UNL     1      45.092 -22.163   5.134  1.00  0.00     0.202 C 
HETATM   33  C   UNL     1      44.187 -21.509   6.166  1.00  0.00     0.202 C 
HETATM   34  C   UNL     1      43.943 -18.646   2.201  1.00  0.00     0.012 A 
ENDBRANCH  24  25
ENDBRANCH  20  24
ENDBRANCH   5  17
BRANCH   1  35
HETATM   35  C   UNL     1      38.949 -12.365   1.706  1.00  0.00     0.140 C 
BRANCH  35  36
HETATM   36  C   UNL     1      38.612 -13.804   1.288  1.00  0.00    -0.004 C 
HETATM   37  C   UNL     1      39.650 -14.303   0.280  1.00  0.00     0.011 C 
HETATM   38  C   UNL     1      37.209 -13.909   0.688  1.00  0.00     0.011 C 
ENDBRANCH  35  36
ENDBRANCH   1  35
TORSDOF 7
ENDMDL
