MODEL 1
REMARK VINA RESULT:      -9.0      0.000      0.000
REMARK  8 active torsions:
REMARK  status: ('A' for Active; 'I' for Inactive)
REMARK    1  A    between atoms: C_4  and  C_5 
REMARK    2  A    between atoms: C_5  and  N_6 
REMARK       I    between atoms: N_6  and  C_7 
REMARK    3  A    between atoms: C_7  and  C_8 
REMARK    4  A    between atoms: C_11  and  C_12 
REMARK    5  A    between atoms: C_12  and  O_13 
REMARK    6  A    between atoms: O_13  and  C_14 
REMARK    7  A    between atoms: C_25  and  C_26 
REMARK    8  A    between atoms: C_26  and  O_27 
ROOT
HETATM    1  N   UNL     1      44.379 -12.948   8.503  1.00  0.00    -0.351 N 
HETATM    2  C   UNL     1      45.053 -13.478   7.430  1.00  0.00     0.251 C 
HETATM    3  O   UNL     1      46.183 -13.120   7.115  1.00  0.00    -0.268 OA
HETATM    4  H   UNL     1      43.399 -13.133   8.680  1.00  0.00     0.163 HD
ENDROOT
BRANCH   2   5
HETATM    5  C   UNL     1      44.332 -14.493   6.612  1.00  0.00     0.032 A 
HETATM    6  C   UNL     1      44.383 -15.829   7.028  1.00  0.00     0.017 A 
HETATM    7  C   UNL     1      43.745 -16.826   6.287  1.00  0.00     0.010 A 
HETATM    8  C   UNL     1      43.045 -16.503   5.118  1.00  0.00    -0.034 A 
HETATM    9  C   UNL     1      42.961 -15.159   4.726  1.00  0.00     0.010 A 
HETATM   10  C   UNL     1      43.602 -14.158   5.466  1.00  0.00     0.017 A 
BRANCH   8  11
HETATM   11  C   UNL     1      42.373 -17.589   4.312  1.00  0.00     0.214 C 
BRANCH  11  12
HETATM   12  O   UNL     1      43.215 -17.931   3.214  1.00  0.00    -0.347 OA
BRANCH  12  13
HETATM   13  C   UNL     1      43.652 -19.225   3.152  1.00  0.00     0.069 A 
HETATM   14  C   UNL     1      44.397 -19.892   4.127  1.00  0.00     0.037 A 
HETATM   15  C   UNL     1      44.777 -21.224   3.934  1.00  0.00     0.003 A 
HETATM   16  C   UNL     1      44.417 -21.895   2.767  1.00  0.00     0.000 A 
HETATM   17  C   UNL     1      43.678 -21.235   1.789  1.00  0.00     0.003 A 
HETATM   18  C   UNL     1      43.297 -19.905   1.984  1.00  0.00     0.037 A 
ENDBRANCH  12  13
ENDBRANCH  11  12
ENDBRANCH   8  11
ENDBRANCH   2   5
BRANCH   1  19
HETATM   19  C   UNL     1      44.957 -11.872   9.279  1.00  0.00     0.182 C 
BRANCH  19  20
HETATM   20  C   UNL     1      43.997 -11.319  10.310  1.00  0.00     0.052 A 
HETATM   21  N   UNL     1      42.661 -11.405  10.064  1.00  0.00    -0.256 NA
HETATM   22  C   UNL     1      41.801 -10.901  10.991  1.00  0.00     0.040 A 
HETATM   23  C   UNL     1      40.345 -11.040  10.650  1.00  0.00     0.071 C 
HETATM   24  C   UNL     1      42.230 -10.291  12.178  1.00  0.00    -0.006 A 
HETATM   25  C   UNL     1      43.613 -10.223  12.397  1.00  0.00     0.014 A 
HETATM   26  C   UNL     1      44.504 -10.735  11.462  1.00  0.00     0.029 A 
BRANCH  24  27
HETATM   27  C   UNL     1      41.268  -9.765  13.218  1.00  0.00     0.149 C 
HETATM   28  C   UNL     1      41.782 -10.018  14.632  1.00  0.00     0.044 C 
BRANCH  27  29
HETATM   29  O   UNL     1      41.084  -8.359  13.040  1.00  0.00    -0.391 OA
HETATM   30  H   UNL     1      40.604  -8.029  13.819  1.00  0.00     0.210 HD
ENDBRANCH  27  29
ENDBRANCH  24  27
ENDBRANCH  19  20
ENDBRANCH   1  19
TORSDOF 8
ENDMDL
MODEL 2
REMARK VINA RESULT:      -8.8      5.969      9.386
REMARK  8 active torsions:
REMARK  status: ('A' for Active; 'I' for Inactive)
REMARK    1  A    between atoms: C_4  and  C_5 
REMARK    2  A    between atoms: C_5  and  N_6 
REMARK       I    between atoms: N_6  and  C_7 
REMARK    3  A    between atoms: C_7  and  C_8 
REMARK    4  A    between atoms: C_11  and  C_12 
REMARK    5  A    between atoms: C_12  and  O_13 
REMARK    6  A    between atoms: O_13  and  C_14 
REMARK    7  A    between atoms: C_25  and  C_26 
REMARK    8  A    between atoms: C_26  and  O_27 
ROOT
HETATM    1  N   UNL     1      39.898 -15.376   2.840  1.00  0.00    -0.351 N 
HETATM    2  C   UNL     1      40.826 -14.917   3.743  1.00  0.00     0.251 C 
HETATM    3  O   UNL     1      41.000 -13.723   3.964  1.00  0.00    -0.268 OA
HETATM    4  H   UNL     1      39.850 -16.345   2.549  1.00  0.00     0.163 HD
ENDROOT
BRANCH   2   5
HETATM    5  C   UNL     1      41.667 -15.937   4.428  1.00  0.00     0.032 A 
HETATM    6  C   UNL     1      41.192 -17.254   4.481  1.00  0.00     0.017 A 
HETATM    7  C   UNL     1      41.928 -18.246   5.129  1.00  0.00     0.010 A 
HETATM    8  C   UNL     1      43.152 -17.940   5.736  1.00  0.00    -0.034 A 
HETATM    9  C   UNL     1      43.646 -16.630   5.646  1.00  0.00     0.010 A 
HETATM   10  C   UNL     1      42.908 -15.632   4.998  1.00  0.00     0.017 A 
BRANCH   8  11
HETATM   11  C   UNL     1      43.934 -19.016   6.453  1.00  0.00     0.214 C 
BRANCH  11  12
HETATM   12  O   UNL     1      45.056 -19.374   5.652  1.00  0.00    -0.347 OA
BRANCH  12  13
HETATM   13  C   UNL     1      44.835 -20.279   4.650  1.00  0.00     0.069 A 
HETATM   14  C   UNL     1      44.598 -19.979   3.306  1.00  0.00     0.037 A 
HETATM   15  C   UNL     1      44.390 -21.008   2.382  1.00  0.00     0.003 A 
HETATM   16  C   UNL     1      44.414 -22.338   2.795  1.00  0.00     0.000 A 
HETATM   17  C   UNL     1      44.646 -22.644   4.133  1.00  0.00     0.003 A 
HETATM   18  C   UNL     1      44.856 -21.616   5.055  1.00  0.00     0.037 A 
ENDBRANCH  12  13
ENDBRANCH  11  12
ENDBRANCH   8  11
ENDBRANCH   2   5
BRANCH   1  19
HETATM   19  C   UNL     1      39.123 -14.450   2.043  1.00  0.00     0.182 C 
BRANCH  19  20
HETATM   20  C   UNL     1      39.631 -14.340   0.622  1.00  0.00     0.052 A 
HETATM   21  N   UNL     1      38.755 -13.973  -0.354  1.00  0.00    -0.256 NA
HETATM   22  C   UNL     1      39.215 -13.881  -1.631  1.00  0.00     0.040 A 
HETATM   23  C   UNL     1      38.191 -13.463  -2.647  1.00  0.00     0.071 C 
HETATM   24  C   UNL     1      40.543 -14.158  -1.987  1.00  0.00    -0.006 A 
HETATM   25  C   UNL     1      41.415 -14.532  -0.956  1.00  0.00     0.014 A 
HETATM   26  C   UNL     1      40.962 -14.627   0.355  1.00  0.00     0.029 A 
BRANCH  24  27
HETATM   27  C   UNL     1      41.053 -14.020  -3.403  1.00  0.00     0.149 C 
HETATM   28  C   UNL     1      41.647 -12.637  -3.650  1.00  0.00     0.044 C 
BRANCH  27  29
HETATM   29  O   UNL     1      42.060 -15.004  -3.652  1.00  0.00    -0.391 OA
HETATM   30  H   UNL     1      41.739 -15.569  -4.376  1.00  0.00     0.210 HD
ENDBRANCH  27  29
ENDBRANCH  24  27
ENDBRANCH  19  20
ENDBRANCH   1  19
TORSDOF 8
ENDMDL
MODEL 3
REMARK VINA RESULT:      -8.5      1.942      2.856
REMARK  8 active torsions:
REMARK  status: ('A' for Active; 'I' for Inactive)
REMARK    1  A    between atoms: C_4  and  C_5 
REMARK    2  A    between atoms: C_5  and  N_6 
REMARK       I    between atoms: N_6  and  C_7 
REMARK    3  A    between atoms: C_7  and  C_8 
REMARK    4  A    between atoms: C_11  and  C_12 
REMARK    5  A    between atoms: C_12  and  O_13 
REMARK    6  A    between atoms: O_13  and  C_14 
REMARK    7  A    between atoms: C_25  and  C_26 
REMARK    8  A    between atoms: C_26  and  O_27 
ROOT
HETATM    1  N   UNL     1      42.600 -12.955   6.708  1.00  0.00    -0.351 N 
HETATM    2  C   UNL     1      42.047 -13.888   5.865  1.00  0.00     0.251 C 
HETATM    3  O   UNL     1      41.126 -13.626   5.100  1.00  0.00    -0.268 OA
HETATM    4  H   UNL     1      43.258 -13.198   7.439  1.00  0.00     0.163 HD
ENDROOT
BRANCH   2   5
HETATM    5  C   UNL     1      42.583 -15.276   5.946  1.00  0.00     0.032 A 
HETATM    6  C   UNL     1      41.758 -16.325   5.524  1.00  0.00     0.017 A 
HETATM    7  C   UNL     1      42.199 -17.647   5.598  1.00  0.00     0.010 A 
HETATM    8  C   UNL     1      43.475 -17.942   6.095  1.00  0.00    -0.034 A 
HETATM    9  C   UNL     1      44.316 -16.886   6.478  1.00  0.00     0.010 A 
HETATM   10  C   UNL     1      43.873 -15.560   6.407  1.00  0.00     0.017 A 
BRANCH   8  11
HETATM   11  C   UNL     1      43.939 -19.377   6.190  1.00  0.00     0.214 C 
BRANCH  11  12
HETATM   12  O   UNL     1      44.954 -19.593   5.215  1.00  0.00    -0.347 OA
BRANCH  12  13
HETATM   13  C   UNL     1      44.578 -20.231   4.064  1.00  0.00     0.069 A 
HETATM   14  C   UNL     1      43.999 -19.635   2.942  1.00  0.00     0.037 A 
HETATM   15  C   UNL     1      43.665 -20.410   1.827  1.00  0.00     0.003 A 
HETATM   16  C   UNL     1      43.906 -21.782   1.828  1.00  0.00     0.000 A 
HETATM   17  C   UNL     1      44.480 -22.384   2.945  1.00  0.00     0.003 A 
HETATM   18  C   UNL     1      44.815 -21.609   4.057  1.00  0.00     0.037 A 
ENDBRANCH  12  13
ENDBRANCH  11  12
ENDBRANCH   8  11
ENDBRANCH   2   5
BRANCH   1  19
HETATM   19  C   UNL     1      42.060 -11.615   6.781  1.00  0.00     0.182 C 
BRANCH  19  20
HETATM   20  C   UNL     1      42.303 -10.963   8.125  1.00  0.00     0.052 A 
HETATM   21  N   UNL     1      43.486 -11.202   8.757  1.00  0.00    -0.256 NA
HETATM   22  C   UNL     1      43.699 -10.619   9.967  1.00  0.00     0.040 A 
HETATM   23  C   UNL     1      45.028 -10.925  10.596  1.00  0.00     0.071 C 
HETATM   24  C   UNL     1      42.754  -9.794  10.595  1.00  0.00    -0.006 A 
HETATM   25  C   UNL     1      41.549  -9.570   9.914  1.00  0.00     0.014 A 
HETATM   26  C   UNL     1      41.318 -10.156   8.675  1.00  0.00     0.029 A 
BRANCH  24  27
HETATM   27  C   UNL     1      43.012  -9.123  11.924  1.00  0.00     0.149 C 
HETATM   28  C   UNL     1      42.313  -7.770  12.011  1.00  0.00     0.044 C 
BRANCH  27  29
HETATM   29  O   UNL     1      42.538  -9.955  12.986  1.00  0.00    -0.391 OA
HETATM   30  H   UNL     1      42.685 -10.878  12.718  1.00  0.00     0.210 HD
ENDBRANCH  27  29
ENDBRANCH  24  27
ENDBRANCH  19  20
ENDBRANCH   1  19
TORSDOF 8
ENDMDL
MODEL 4
REMARK VINA RESULT:      -8.5      1.248      2.179
REMARK  8 active torsions:
REMARK  status: ('A' for Active; 'I' for Inactive)
REMARK    1  A    between atoms: C_4  and  C_5 
REMARK    2  A    between atoms: C_5  and  N_6 
REMARK       I    between atoms: N_6  and  C_7 
REMARK    3  A    between atoms: C_7  and  C_8 
REMARK    4  A    between atoms: C_11  and  C_12 
REMARK    5  A    between atoms: C_12  and  O_13 
REMARK    6  A    between atoms: O_13  and  C_14 
REMARK    7  A    between atoms: C_25  and  C_26 
REMARK    8  A    between atoms: C_26  and  O_27 
ROOT
HETATM    1  N   UNL     1      44.420 -12.995   8.933  1.00  0.00    -0.351 N 
HETATM    2  C   UNL     1      45.108 -13.349   7.799  1.00  0.00     0.251 C 
HETATM    3  O   UNL     1      46.234 -12.931   7.549  1.00  0.00    -0.268 OA
HETATM    4  H   UNL     1      43.442 -13.220   9.074  1.00  0.00     0.163 HD
ENDROOT
BRANCH   2   5
HETATM    5  C   UNL     1      44.409 -14.245   6.835  1.00  0.00     0.032 A 
HETATM    6  C   UNL     1      43.975 -13.694   5.623  1.00  0.00     0.017 A 
HETATM    7  C   UNL     1      43.295 -14.480   4.691  1.00  0.00     0.010 A 
HETATM    8  C   UNL     1      43.038 -15.832   4.956  1.00  0.00    -0.034 A 
HETATM    9  C   UNL     1      43.511 -16.391   6.152  1.00  0.00     0.010 A 
HETATM   10  C   UNL     1      44.191 -15.603   7.089  1.00  0.00     0.017 A 
BRANCH   8  11
HETATM   11  C   UNL     1      42.285 -16.672   3.952  1.00  0.00     0.214 C 
BRANCH  11  12
HETATM   12  O   UNL     1      42.256 -18.019   4.414  1.00  0.00    -0.347 OA
BRANCH  12  13
HETATM   13  C   UNL     1      43.015 -18.924   3.724  1.00  0.00     0.069 A 
HETATM   14  C   UNL     1      42.870 -19.268   2.378  1.00  0.00     0.037 A 
HETATM   15  C   UNL     1      43.722 -20.212   1.797  1.00  0.00     0.003 A 
HETATM   16  C   UNL     1      44.722 -20.818   2.556  1.00  0.00     0.000 A 
HETATM   17  C   UNL     1      44.870 -20.482   3.899  1.00  0.00     0.003 A 
HETATM   18  C   UNL     1      44.019 -19.537   4.479  1.00  0.00     0.037 A 
ENDBRANCH  12  13
ENDBRANCH  11  12
ENDBRANCH   8  11
ENDBRANCH   2   5
BRANCH   1  19
HETATM   19  C   UNL     1      44.975 -12.035   9.863  1.00  0.00     0.182 C 
BRANCH  19  20
HETATM   20  C   UNL     1      43.938 -11.060  10.380  1.00  0.00     0.052 A 
HETATM   21  N   UNL     1      44.043 -10.624  11.665  1.00  0.00    -0.256 NA
HETATM   22  C   UNL     1      43.106  -9.752  12.128  1.00  0.00     0.040 A 
HETATM   23  C   UNL     1      43.294  -9.313  13.552  1.00  0.00     0.071 C 
HETATM   24  C   UNL     1      42.036  -9.294  11.345  1.00  0.00    -0.006 A 
HETATM   25  C   UNL     1      41.963  -9.764  10.026  1.00  0.00     0.014 A 
HETATM   26  C   UNL     1      42.914 -10.652   9.538  1.00  0.00     0.029 A 
BRANCH  24  27
HETATM   27  C   UNL     1      41.019  -8.299  11.855  1.00  0.00     0.149 C 
HETATM   28  C   UNL     1      40.654  -7.276  10.785  1.00  0.00     0.044 C 
BRANCH  27  29
HETATM   29  O   UNL     1      39.833  -8.985  12.260  1.00  0.00    -0.391 OA
HETATM   30  H   UNL     1      40.105  -9.847  12.621  1.00  0.00     0.210 HD
ENDBRANCH  27  29
ENDBRANCH  24  27
ENDBRANCH  19  20
ENDBRANCH   1  19
TORSDOF 8
ENDMDL
MODEL 5
REMARK VINA RESULT:      -8.5      1.460      2.133
REMARK  8 active torsions:
REMARK  status: ('A' for Active; 'I' for Inactive)
REMARK    1  A    between atoms: C_4  and  C_5 
REMARK    2  A    between atoms: C_5  and  N_6 
REMARK       I    between atoms: N_6  and  C_7 
REMARK    3  A    between atoms: C_7  and  C_8 
REMARK    4  A    between atoms: C_11  and  C_12 
REMARK    5  A    between atoms: C_12  and  O_13 
REMARK    6  A    between atoms: O_13  and  C_14 
REMARK    7  A    between atoms: C_25  and  C_26 
REMARK    8  A    between atoms: C_26  and  O_27 
ROOT
HETATM    1  N   UNL     1      44.158 -13.020   8.510  1.00  0.00    -0.351 N 
HETATM    2  C   UNL     1      44.758 -13.684   7.468  1.00  0.00     0.251 C 
HETATM    3  O   UNL     1      45.838 -13.342   6.998  1.00  0.00    -0.268 OA
HETATM    4  H   UNL     1      43.207 -13.207   8.804  1.00  0.00     0.163 HD
ENDROOT
BRANCH   2   5
HETATM    5  C   UNL     1      44.015 -14.834   6.881  1.00  0.00     0.032 A 
HETATM    6  C   UNL     1      42.892 -14.557   6.091  1.00  0.00     0.017 A 
HETATM    7  C   UNL     1      42.145 -15.596   5.533  1.00  0.00     0.010 A 
HETATM    8  C   UNL     1      42.508 -16.930   5.757  1.00  0.00    -0.034 A 
HETATM    9  C   UNL     1      43.657 -17.204   6.514  1.00  0.00     0.010 A 
HETATM   10  C   UNL     1      44.406 -16.164   7.075  1.00  0.00     0.017 A 
BRANCH   8  11
HETATM   11  C   UNL     1      41.683 -18.050   5.166  1.00  0.00     0.214 C 
BRANCH  11  12
HETATM   12  O   UNL     1      42.485 -18.761   4.227  1.00  0.00    -0.347 OA
BRANCH  12  13
HETATM   13  C   UNL     1      42.663 -18.179   3.002  1.00  0.00     0.069 A 
HETATM   14  C   UNL     1      43.858 -18.122   2.281  1.00  0.00     0.037 A 
HETATM   15  C   UNL     1      43.897 -17.494   1.032  1.00  0.00     0.003 A 
HETATM   16  C   UNL     1      42.745 -16.920   0.498  1.00  0.00     0.000 A 
HETATM   17  C   UNL     1      41.551 -16.971   1.212  1.00  0.00     0.003 A 
HETATM   18  C   UNL     1      41.513 -17.599   2.459  1.00  0.00     0.037 A 
ENDBRANCH  12  13
ENDBRANCH  11  12
ENDBRANCH   8  11
ENDBRANCH   2   5
BRANCH   1  19
HETATM   19  C   UNL     1      44.752 -11.821   9.060  1.00  0.00     0.182 C 
BRANCH  19  20
HETATM   20  C   UNL     1      43.939 -11.238  10.196  1.00  0.00     0.052 A 
HETATM   21  N   UNL     1      42.581 -11.305  10.122  1.00  0.00    -0.256 NA
HETATM   22  C   UNL     1      41.854 -10.775  11.142  1.00  0.00     0.040 A 
HETATM   23  C   UNL     1      40.364 -10.895  10.991  1.00  0.00     0.071 C 
HETATM   24  C   UNL     1      42.438 -10.156  12.256  1.00  0.00    -0.006 A 
HETATM   25  C   UNL     1      43.838 -10.106  12.297  1.00  0.00     0.014 A 
HETATM   26  C   UNL     1      44.596 -10.647  11.265  1.00  0.00     0.029 A 
BRANCH  24  27
HETATM   27  C   UNL     1      41.623  -9.600  13.401  1.00  0.00     0.149 C 
HETATM   28  C   UNL     1      42.331  -9.799  14.737  1.00  0.00     0.044 C 
BRANCH  27  29
HETATM   29  O   UNL     1      41.400  -8.202  13.202  1.00  0.00    -0.391 OA
HETATM   30  H   UNL     1      40.469  -8.024  13.418  1.00  0.00     0.210 HD
ENDBRANCH  27  29
ENDBRANCH  24  27
ENDBRANCH  19  20
ENDBRANCH   1  19
TORSDOF 8
ENDMDL
MODEL 6
REMARK VINA RESULT:      -8.3      2.000      2.781
REMARK  8 active torsions:
REMARK  status: ('A' for Active; 'I' for Inactive)
REMARK    1  A    between atoms: C_4  and  C_5 
REMARK    2  A    between atoms: C_5  and  N_6 
REMARK       I    between atoms: N_6  and  C_7 
REMARK    3  A    between atoms: C_7  and  C_8 
REMARK    4  A    between atoms: C_11  and  C_12 
REMARK    5  A    between atoms: C_12  and  O_13 
REMARK    6  A    between atoms: O_13  and  C_14 
REMARK    7  A    between atoms: C_25  and  C_26 
REMARK    8  A    between atoms: C_26  and  O_27 
ROOT
HETATM    1  N   UNL     1      42.027 -12.126   6.926  1.00  0.00    -0.351 N 
HETATM    2  C   UNL     1      41.414 -12.660   5.818  1.00  0.00     0.251 C 
HETATM    3  O   UNL     1      40.692 -12.000   5.078  1.00  0.00    -0.268 OA
HETATM    4  H   UNL     1      42.503 -12.695   7.616  1.00  0.00     0.163 HD
ENDROOT
BRANCH   2   5
HETATM    5  C   UNL     1      41.622 -14.113   5.563  1.00  0.00     0.032 A 
HETATM    6  C   UNL     1      42.838 -14.514   4.994  1.00  0.00     0.017 A 
HETATM    7  C   UNL     1      43.078 -15.859   4.713  1.00  0.00     0.010 A 
HETATM    8  C   UNL     1      42.107 -16.828   4.996  1.00  0.00    -0.034 A 
HETATM    9  C   UNL     1      40.907 -16.430   5.604  1.00  0.00     0.010 A 
HETATM   10  C   UNL     1      40.663 -15.080   5.885  1.00  0.00     0.017 A 
BRANCH   8  11
HETATM   11  C   UNL     1      42.367 -18.280   4.671  1.00  0.00     0.214 C 
BRANCH  11  12
HETATM   12  O   UNL     1      43.338 -18.349   3.631  1.00  0.00    -0.347 OA
BRANCH  12  13
HETATM   13  C   UNL     1      43.678 -19.597   3.187  1.00  0.00     0.069 A 
HETATM   14  C   UNL     1      43.341 -20.153   1.950  1.00  0.00     0.037 A 
HETATM   15  C   UNL     1      43.760 -21.446   1.623  1.00  0.00     0.003 A 
HETATM   16  C   UNL     1      44.515 -22.191   2.527  1.00  0.00     0.000 A 
HETATM   17  C   UNL     1      44.851 -21.644   3.763  1.00  0.00     0.003 A 
HETATM   18  C   UNL     1      44.434 -20.351   4.089  1.00  0.00     0.037 A 
ENDBRANCH  12  13
ENDBRANCH  11  12
ENDBRANCH   8  11
ENDBRANCH   2   5
BRANCH   1  19
HETATM   19  C   UNL     1      41.782 -10.754   7.314  1.00  0.00     0.182 C 
BRANCH  19  20
HETATM   20  C   UNL     1      42.180 -10.478   8.749  1.00  0.00     0.052 A 
HETATM   21  N   UNL     1      43.445 -10.791   9.143  1.00  0.00    -0.256 NA
HETATM   22  C   UNL     1      43.797 -10.546  10.434  1.00  0.00     0.040 A 
HETATM   23  C   UNL     1      45.210 -10.912  10.788  1.00  0.00     0.071 C 
HETATM   24  C   UNL     1      42.914  -9.997  11.375  1.00  0.00    -0.006 A 
HETATM   25  C   UNL     1      41.621  -9.686  10.932  1.00  0.00     0.014 A 
HETATM   26  C   UNL     1      41.247  -9.927   9.616  1.00  0.00     0.029 A 
BRANCH  24  27
HETATM   27  C   UNL     1      43.324  -9.696  12.799  1.00  0.00     0.149 C 
HETATM   28  C   UNL     1      42.801  -8.338  13.254  1.00  0.00     0.044 C 
BRANCH  27  29
HETATM   29  O   UNL     1      42.811 -10.704  13.673  1.00  0.00    -0.391 OA
HETATM   30  H   UNL     1      42.120 -11.185  13.186  1.00  0.00     0.210 HD
ENDBRANCH  27  29
ENDBRANCH  24  27
ENDBRANCH  19  20
ENDBRANCH   1  19
TORSDOF 8
ENDMDL
MODEL 7
REMARK VINA RESULT:      -8.0      5.744      9.317
REMARK  8 active torsions:
REMARK  status: ('A' for Active; 'I' for Inactive)
REMARK    1  A    between atoms: C_4  and  C_5 
REMARK    2  A    between atoms: C_5  and  N_6 
REMARK       I    between atoms: N_6  and  C_7 
REMARK    3  A    between atoms: C_7  and  C_8 
REMARK    4  A    between atoms: C_11  and  C_12 
REMARK    5  A    between atoms: C_12  and  O_13 
REMARK    6  A    between atoms: O_13  and  C_14 
REMARK    7  A    between atoms: C_25  and  C_26 
REMARK    8  A    between atoms: C_26  and  O_27 
ROOT
HETATM    1  N   UNL     1      40.428 -14.633   2.947  1.00  0.00    -0.351 N 
HETATM    2  C   UNL     1      40.944 -14.568   4.218  1.00  0.00     0.251 C 
HETATM    3  O   UNL     1      40.849 -13.568   4.921  1.00  0.00    -0.268 OA
HETATM    4  H   UNL     1      40.628 -15.398   2.313  1.00  0.00     0.163 HD
ENDROOT
BRANCH   2   5
HETATM    5  C   UNL     1      41.683 -15.764   4.711  1.00  0.00     0.032 A 
HETATM    6  C   UNL     1      43.001 -15.587   5.150  1.00  0.00     0.017 A 
HETATM    7  C   UNL     1      43.749 -16.676   5.601  1.00  0.00     0.010 A 
HETATM    8  C   UNL     1      43.191 -17.961   5.622  1.00  0.00    -0.034 A 
HETATM    9  C   UNL     1      41.857 -18.128   5.221  1.00  0.00     0.010 A 
HETATM   10  C   UNL     1      41.106 -17.038   4.765  1.00  0.00     0.017 A 
BRANCH   8  11
HETATM   11  C   UNL     1      44.012 -19.138   6.094  1.00  0.00     0.214 C 
BRANCH  11  12
HETATM   12  O   UNL     1      45.030 -19.399   5.132  1.00  0.00    -0.347 OA
BRANCH  12  13
HETATM   13  C   UNL     1      44.739 -20.313   4.158  1.00  0.00     0.069 A 
HETATM   14  C   UNL     1      44.884 -21.699   4.257  1.00  0.00     0.037 A 
HETATM   15  C   UNL     1      44.543 -22.521   3.178  1.00  0.00     0.003 A 
HETATM   16  C   UNL     1      44.059 -21.964   1.996  1.00  0.00     0.000 A 
HETATM   17  C   UNL     1      43.916 -20.583   1.889  1.00  0.00     0.003 A 
HETATM   18  C   UNL     1      44.254 -19.763   2.968  1.00  0.00     0.037 A 
ENDBRANCH  12  13
ENDBRANCH  11  12
ENDBRANCH   8  11
ENDBRANCH   2   5
BRANCH   1  19
HETATM   19  C   UNL     1      39.801 -13.476   2.345  1.00  0.00     0.182 C 
BRANCH  19  20
HETATM   20  C   UNL     1      39.506 -13.675   0.874  1.00  0.00     0.052 A 
HETATM   21  N   UNL     1      40.554 -13.787   0.012  1.00  0.00    -0.256 NA
HETATM   22  C   UNL     1      40.285 -13.960  -1.311  1.00  0.00     0.040 A 
HETATM   23  C   UNL     1      41.493 -14.082  -2.195  1.00  0.00     0.071 C 
HETATM   24  C   UNL     1      38.981 -14.017  -1.824  1.00  0.00    -0.006 A 
HETATM   25  C   UNL     1      37.928 -13.900  -0.906  1.00  0.00     0.014 A 
HETATM   26  C   UNL     1      38.186 -13.726   0.449  1.00  0.00     0.029 A 
BRANCH  24  27
HETATM   27  C   UNL     1      38.691 -14.243  -3.290  1.00  0.00     0.149 C 
HETATM   28  C   UNL     1      37.484 -15.155  -3.484  1.00  0.00     0.044 C 
BRANCH  27  29
HETATM   29  O   UNL     1      38.431 -12.992  -3.930  1.00  0.00    -0.391 OA
HETATM   30  H   UNL     1      37.466 -12.910  -4.024  1.00  0.00     0.210 HD
ENDBRANCH  27  29
ENDBRANCH  24  27
ENDBRANCH  19  20
ENDBRANCH   1  19
TORSDOF 8
ENDMDL
MODEL 8
REMARK VINA RESULT:      -7.9      1.813      2.392
REMARK  8 active torsions:
REMARK  status: ('A' for Active; 'I' for Inactive)
REMARK    1  A    between atoms: C_4  and  C_5 
REMARK    2  A    between atoms: C_5  and  N_6 
REMARK       I    between atoms: N_6  and  C_7 
REMARK    3  A    between atoms: C_7  and  C_8 
REMARK    4  A    between atoms: C_11  and  C_12 
REMARK    5  A    between atoms: C_12  and  O_13 
REMARK    6  A    between atoms: O_13  and  C_14 
REMARK    7  A    between atoms: C_25  and  C_26 
REMARK    8  A    between atoms: C_26  and  O_27 
ROOT
HETATM    1  N   UNL     1      43.980 -12.942   7.465  1.00  0.00    -0.351 N 
HETATM    2  C   UNL     1      43.966 -14.236   7.006  1.00  0.00     0.251 C 
HETATM    3  O   UNL     1      44.692 -15.110   7.468  1.00  0.00    -0.268 OA
HETATM    4  H   UNL     1      43.491 -12.189   6.994  1.00  0.00     0.163 HD
ENDROOT
BRANCH   2   5
HETATM    5  C   UNL     1      43.053 -14.543   5.870  1.00  0.00     0.032 A 
HETATM    6  C   UNL     1      43.478 -14.214   4.577  1.00  0.00     0.017 A 
HETATM    7  C   UNL     1      42.654 -14.458   3.477  1.00  0.00     0.010 A 
HETATM    8  C   UNL     1      41.390 -15.036   3.652  1.00  0.00    -0.034 A 
HETATM    9  C   UNL     1      40.984 -15.404   4.943  1.00  0.00     0.010 A 
HETATM   10  C   UNL     1      41.808 -15.157   6.047  1.00  0.00     0.017 A 
BRANCH   8  11
HETATM   11  C   UNL     1      40.496 -15.280   2.459  1.00  0.00     0.214 C 
BRANCH  11  12
HETATM   12  O   UNL     1      40.442 -16.681   2.208  1.00  0.00    -0.347 OA
BRANCH  12  13
HETATM   13  C   UNL     1      41.637 -17.346   2.160  1.00  0.00     0.069 A 
HETATM   14  C   UNL     1      42.127 -18.231   3.123  1.00  0.00     0.037 A 
HETATM   15  C   UNL     1      43.371 -18.847   2.945  1.00  0.00     0.003 A 
HETATM   16  C   UNL     1      44.129 -18.580   1.807  1.00  0.00     0.000 A 
HETATM   17  C   UNL     1      43.648 -17.697   0.844  1.00  0.00     0.003 A 
HETATM   18  C   UNL     1      42.405 -17.084   1.023  1.00  0.00     0.037 A 
ENDBRANCH  12  13
ENDBRANCH  11  12
ENDBRANCH   8  11
ENDBRANCH   2   5
BRANCH   1  19
HETATM   19  C   UNL     1      44.921 -12.529   8.482  1.00  0.00     0.182 C 
BRANCH  19  20
HETATM   20  C   UNL     1      44.305 -11.593   9.499  1.00  0.00     0.052 A 
HETATM   21  N   UNL     1      43.164 -10.929   9.162  1.00  0.00    -0.256 NA
HETATM   22  C   UNL     1      42.616 -10.085  10.077  1.00  0.00     0.040 A 
HETATM   23  C   UNL     1      41.357  -9.397   9.633  1.00  0.00     0.071 C 
HETATM   24  C   UNL     1      43.177  -9.860  11.342  1.00  0.00    -0.006 A 
HETATM   25  C   UNL     1      44.350 -10.561  11.654  1.00  0.00     0.014 A 
HETATM   26  C   UNL     1      44.921 -11.431  10.732  1.00  0.00     0.029 A 
BRANCH  24  27
HETATM   27  C   UNL     1      42.543  -8.945  12.365  1.00  0.00     0.149 C 
HETATM   28  C   UNL     1      43.100  -9.200  13.761  1.00  0.00     0.044 C 
BRANCH  27  29
HETATM   29  O   UNL     1      42.789  -7.582  12.013  1.00  0.00    -0.391 OA
HETATM   30  H   UNL     1      41.946  -7.104  12.103  1.00  0.00     0.210 HD
ENDBRANCH  27  29
ENDBRANCH  24  27
ENDBRANCH  19  20
ENDBRANCH   1  19
TORSDOF 8
ENDMDL
MODEL 9
REMARK VINA RESULT:      -7.6      1.513      2.232
REMARK  8 active torsions:
REMARK  status: ('A' for Active; 'I' for Inactive)
REMARK    1  A    between atoms: C_4  and  C_5 
REMARK    2  A    between atoms: C_5  and  N_6 
REMARK       I    between atoms: N_6  and  C_7 
REMARK    3  A    between atoms: C_7  and  C_8 
REMARK    4  A    between atoms: C_11  and  C_12 
REMARK    5  A    between atoms: C_12  and  O_13 
REMARK    6  A    between atoms: O_13  and  C_14 
REMARK    7  A    between atoms: C_25  and  C_26 
REMARK    8  A    between atoms: C_26  and  O_27 
ROOT
HETATM    1  N   UNL     1      44.396 -13.618   7.237  1.00  0.00    -0.351 N 
HETATM    2  C   UNL     1      43.968 -14.913   7.402  1.00  0.00     0.251 C 
HETATM    3  O   UNL     1      44.006 -15.490   8.484  1.00  0.00    -0.268 OA
HETATM    4  H   UNL     1      44.501 -13.188   6.325  1.00  0.00     0.163 HD
ENDROOT
BRANCH   2   5
HETATM    5  C   UNL     1      43.487 -15.628   6.187  1.00  0.00     0.032 A 
HETATM    6  C   UNL     1      42.899 -16.888   6.356  1.00  0.00     0.017 A 
HETATM    7  C   UNL     1      42.450 -17.613   5.251  1.00  0.00     0.010 A 
HETATM    8  C   UNL     1      42.582 -17.090   3.958  1.00  0.00    -0.034 A 
HETATM    9  C   UNL     1      43.133 -15.810   3.795  1.00  0.00     0.010 A 
HETATM   10  C   UNL     1      43.585 -15.083   4.902  1.00  0.00     0.017 A 
BRANCH   8  11
HETATM   11  C   UNL     1      42.111 -17.889   2.765  1.00  0.00     0.214 C 
BRANCH  11  12
HETATM   12  O   UNL     1      43.251 -18.397   2.077  1.00  0.00    -0.347 OA
BRANCH  12  13
HETATM   13  C   UNL     1      43.711 -19.624   2.468  1.00  0.00     0.069 A 
HETATM   14  C   UNL     1      44.439 -19.901   3.628  1.00  0.00     0.037 A 
HETATM   15  C   UNL     1      44.846 -21.210   3.907  1.00  0.00     0.003 A 
HETATM   16  C   UNL     1      44.530 -22.246   3.030  1.00  0.00     0.000 A 
HETATM   17  C   UNL     1      43.808 -21.976   1.871  1.00  0.00     0.003 A 
HETATM   18  C   UNL     1      43.401 -20.669   1.593  1.00  0.00     0.037 A 
ENDBRANCH  12  13
ENDBRANCH  11  12
ENDBRANCH   8  11
ENDBRANCH   2   5
BRANCH   1  19
HETATM   19  C   UNL     1      44.990 -12.891   8.338  1.00  0.00     0.182 C 
BRANCH  19  20
HETATM   20  C   UNL     1      44.053 -11.855   8.922  1.00  0.00     0.052 A 
HETATM   21  N   UNL     1      44.271 -11.429  10.197  1.00  0.00    -0.256 NA
HETATM   22  C   UNL     1      43.424 -10.502  10.720  1.00  0.00     0.040 A 
HETATM   23  C   UNL     1      43.735 -10.080  12.128  1.00  0.00     0.071 C 
HETATM   24  C   UNL     1      42.335  -9.976  10.011  1.00  0.00    -0.006 A 
HETATM   25  C   UNL     1      42.144 -10.436   8.701  1.00  0.00     0.014 A 
HETATM   26  C   UNL     1      43.002 -11.380   8.150  1.00  0.00     0.029 A 
BRANCH  24  27
HETATM   27  C   UNL     1      41.419  -8.921  10.588  1.00  0.00     0.149 C 
HETATM   28  C   UNL     1      40.705  -8.141   9.489  1.00  0.00     0.044 C 
BRANCH  27  29
HETATM   29  O   UNL     1      40.439  -9.537  11.426  1.00  0.00    -0.391 OA
HETATM   30  H   UNL     1      39.678  -8.934  11.472  1.00  0.00     0.210 HD
ENDBRANCH  27  29
ENDBRANCH  24  27
ENDBRANCH  19  20
ENDBRANCH   1  19
TORSDOF 8
ENDMDL
MODEL 10
REMARK VINA RESULT:      -7.6      3.102     10.678
REMARK  8 active torsions:
REMARK  status: ('A' for Active; 'I' for Inactive)
REMARK    1  A    between atoms: C_4  and  C_5 
REMARK    2  A    between atoms: C_5  and  N_6 
REMARK       I    between atoms: N_6  and  C_7 
REMARK    3  A    between atoms: C_7  and  C_8 
REMARK    4  A    between atoms: C_11  and  C_12 
REMARK    5  A    between atoms: C_12  and  O_13 
REMARK    6  A    between atoms: O_13  and  C_14 
REMARK    7  A    between atoms: C_25  and  C_26 
REMARK    8  A    between atoms: C_26  and  O_27 
ROOT
HETATM    1  N   UNL     1      40.023 -14.462   4.472  1.00  0.00    -0.351 N 
HETATM    2  C   UNL     1      40.606 -13.218   4.491  1.00  0.00     0.251 C 
HETATM    3  O   UNL     1      41.191 -12.745   3.522  1.00  0.00    -0.268 OA
HETATM    4  H   UNL     1      39.668 -14.913   5.307  1.00  0.00     0.163 HD
ENDROOT
BRANCH   2   5
HETATM    5  C   UNL     1      40.544 -12.460   5.773  1.00  0.00     0.032 A 
HETATM    6  C   UNL     1      41.660 -11.698   6.140  1.00  0.00     0.017 A 
HETATM    7  C   UNL     1      41.667 -10.987   7.341  1.00  0.00     0.010 A 
HETATM    8  C   UNL     1      40.557 -11.024   8.195  1.00  0.00    -0.034 A 
HETATM    9  C   UNL     1      39.425 -11.755   7.804  1.00  0.00     0.010 A 
HETATM   10  C   UNL     1      39.417 -12.471   6.602  1.00  0.00     0.017 A 
BRANCH   8  11
HETATM   11  C   UNL     1      40.579 -10.267   9.501  1.00  0.00     0.214 C 
BRANCH  11  12
HETATM   12  O   UNL     1      40.757 -11.197  10.565  1.00  0.00    -0.347 OA
BRANCH  12  13
HETATM   13  C   UNL     1      41.476 -10.766  11.647  1.00  0.00     0.069 A 
HETATM   14  C   UNL     1      41.103 -10.889  12.987  1.00  0.00     0.037 A 
HETATM   15  C   UNL     1      41.940 -10.404  13.997  1.00  0.00     0.003 A 
HETATM   16  C   UNL     1      43.151  -9.795  13.675  1.00  0.00     0.000 A 
HETATM   17  C   UNL     1      43.528  -9.667  12.340  1.00  0.00     0.003 A 
HETATM   18  C   UNL     1      42.692 -10.153  11.332  1.00  0.00     0.037 A 
ENDBRANCH  12  13
ENDBRANCH  11  12
ENDBRANCH   8  11
ENDBRANCH   2   5
BRANCH   1  19
HETATM   19  C   UNL     1      40.141 -15.313   3.308  1.00  0.00     0.182 C 
BRANCH  19  20
HETATM   20  C   UNL     1      41.242 -16.342   3.451  1.00  0.00     0.052 A 
HETATM   21  N   UNL     1      42.160 -16.452   2.450  1.00  0.00    -0.256 NA
HETATM   22  C   UNL     1      43.144 -17.382   2.579  1.00  0.00     0.040 A 
HETATM   23  C   UNL     1      44.120 -17.437   1.439  1.00  0.00     0.071 C 
HETATM   24  C   UNL     1      43.249 -18.235   3.687  1.00  0.00    -0.006 A 
HETATM   25  C   UNL     1      42.288 -18.091   4.697  1.00  0.00     0.014 A 
HETATM   26  C   UNL     1      41.278 -17.144   4.582  1.00  0.00     0.029 A 
BRANCH  24  27
HETATM   27  C   UNL     1      44.366 -19.242   3.838  1.00  0.00     0.149 C 
HETATM   28  C   UNL     1      44.595 -19.606   5.302  1.00  0.00     0.044 C 
BRANCH  27  29
HETATM   29  O   UNL     1      44.047 -20.432   3.113  1.00  0.00    -0.391 OA
HETATM   30  H   UNL     1      43.968 -20.186   2.175  1.00  0.00     0.210 HD
ENDBRANCH  27  29
ENDBRANCH  24  27
ENDBRANCH  19  20
ENDBRANCH   1  19
TORSDOF 8
ENDMDL
