MODEL 1
REMARK VINA RESULT:      -9.3      0.000      0.000
REMARK  5 active torsions:
REMARK  status: ('A' for Active; 'I' for Inactive)
REMARK    1  A    between atoms: N_7  and  N_8 
REMARK       I    between atoms: N_8  and  C_9 
REMARK    2  A    between atoms: C_9  and  C_10 
REMARK    3  A    between atoms: C_13  and  O_14 
REMARK    4  A    between atoms: O_14  and  C_15 
REMARK    5  A    between atoms: C_15  and  C_16 
ROOT
HETATM    1  N   UNL     1      40.521 -11.732   7.743  1.00  0.00    -0.242 N 
HETATM    2  C   UNL     1      39.907 -12.297   6.634  1.00  0.00     0.271 C 
HETATM    3  O   UNL     1      38.770 -12.057   6.240  1.00  0.00    -0.266 OA
HETATM    4  H   UNL     1      41.347 -12.167   8.124  1.00  0.00     0.192 HD
ENDROOT
BRANCH   2   5
HETATM    5  C   UNL     1      40.720 -13.297   5.892  1.00  0.00     0.033 A 
HETATM    6  C   UNL     1      42.042 -12.973   5.568  1.00  0.00     0.020 A 
HETATM    7  C   UNL     1      42.864 -13.905   4.926  1.00  0.00     0.038 A 
HETATM    8  C   UNL     1      42.375 -15.177   4.626  1.00  0.00     0.069 A 
HETATM    9  C   UNL     1      41.047 -15.493   4.932  1.00  0.00     0.038 A 
HETATM   10  C   UNL     1      40.220 -14.563   5.570  1.00  0.00     0.020 A 
BRANCH   8  11
HETATM   11  O   UNL     1      43.088 -16.189   4.045  1.00  0.00    -0.347 OA
BRANCH  11  12
HETATM   12  C   UNL     1      43.475 -17.266   4.898  1.00  0.00     0.214 C 
BRANCH  12  13
HETATM   13  C   UNL     1      43.690 -18.496   4.048  1.00  0.00    -0.034 A 
HETATM   14  C   UNL     1      44.524 -19.531   4.496  1.00  0.00     0.011 A 
HETATM   15  C   UNL     1      44.725 -20.669   3.709  1.00  0.00     0.024 A 
HETATM   16  C   UNL     1      44.098 -20.774   2.470  1.00  0.00     0.034 A 
HETATM   17 CL   UNL     1      44.345 -22.174   1.501  1.00  0.00    -0.084 Cl
HETATM   18  C   UNL     1      43.273 -19.750   2.008  1.00  0.00     0.024 A 
HETATM   19  C   UNL     1      43.072 -18.613   2.794  1.00  0.00     0.011 A 
ENDBRANCH  12  13
ENDBRANCH  11  12
ENDBRANCH   8  11
ENDBRANCH   2   5
BRANCH   1  20
HETATM   20  N   UNL     1      39.820 -10.852   8.501  1.00  0.00    -0.166 NA
HETATM   21  C   UNL     1      40.322 -10.338   9.578  1.00  0.00     0.157 A 
HETATM   22  C   UNL     1      41.632 -10.423  10.245  1.00  0.00     0.027 A 
HETATM   23  C   UNL     1      39.460  -9.417  10.472  1.00  0.00     0.277 A 
HETATM   24  C   UNL     1      42.833 -11.026   9.914  1.00  0.00     0.016 A 
HETATM   25  C   UNL     1      41.514  -9.673  11.421  1.00  0.00     0.048 A 
HETATM   26  C   UNL     1      43.901 -10.894  10.810  1.00  0.00     0.001 A 
HETATM   27  C   UNL     1      43.764 -10.157  12.001  1.00  0.00     0.002 A 
HETATM   28  C   UNL     1      42.557  -9.529  12.313  1.00  0.00     0.030 A 
HETATM   29  N   UNL     1      40.257  -9.098  11.546  1.00  0.00    -0.321 N 
HETATM   30  H   UNL     1      39.943  -8.498  12.293  1.00  0.00     0.169 HD
HETATM   31  O   UNL     1      38.322  -9.058  10.267  1.00  0.00    -0.266 OA
ENDBRANCH   1  20
TORSDOF 5
ENDMDL
MODEL 2
REMARK VINA RESULT:      -9.1      1.340      1.914
REMARK  5 active torsions:
REMARK  status: ('A' for Active; 'I' for Inactive)
REMARK    1  A    between atoms: N_7  and  N_8 
REMARK       I    between atoms: N_8  and  C_9 
REMARK    2  A    between atoms: C_9  and  C_10 
REMARK    3  A    between atoms: C_13  and  O_14 
REMARK    4  A    between atoms: O_14  and  C_15 
REMARK    5  A    between atoms: C_15  and  C_16 
ROOT
HETATM    1  N   UNL     1      41.149 -11.967   7.023  1.00  0.00    -0.242 N 
HETATM    2  C   UNL     1      40.189 -12.596   6.243  1.00  0.00     0.271 C 
HETATM    3  O   UNL     1      38.996 -12.310   6.199  1.00  0.00    -0.266 OA
HETATM    4  H   UNL     1      42.035 -12.424   7.177  1.00  0.00     0.192 HD
ENDROOT
BRANCH   2   5
HETATM    5  C   UNL     1      40.678 -13.730   5.413  1.00  0.00     0.033 A 
HETATM    6  C   UNL     1      39.866 -14.194   4.374  1.00  0.00     0.020 A 
HETATM    7  C   UNL     1      40.310 -15.215   3.528  1.00  0.00     0.038 A 
HETATM    8  C   UNL     1      41.582 -15.763   3.704  1.00  0.00     0.069 A 
HETATM    9  C   UNL     1      42.386 -15.311   4.757  1.00  0.00     0.038 A 
HETATM   10  C   UNL     1      41.944 -14.293   5.607  1.00  0.00     0.020 A 
BRANCH   8  11
HETATM   11  O   UNL     1      42.150 -16.729   2.920  1.00  0.00    -0.347 OA
BRANCH  11  12
HETATM   12  C   UNL     1      43.574 -16.819   2.952  1.00  0.00     0.214 C 
BRANCH  12  13
HETATM   13  C   UNL     1      43.956 -18.204   3.418  1.00  0.00    -0.034 A 
HETATM   14  C   UNL     1      44.016 -19.269   2.507  1.00  0.00     0.011 A 
HETATM   15  C   UNL     1      44.368 -20.551   2.939  1.00  0.00     0.024 A 
HETATM   16  C   UNL     1      44.655 -20.775   4.283  1.00  0.00     0.034 A 
HETATM   17 CL   UNL     1      45.088 -22.353   4.815  1.00  0.00    -0.084 Cl
HETATM   18  C   UNL     1      44.592 -19.729   5.202  1.00  0.00     0.024 A 
HETATM   19  C   UNL     1      44.241 -18.448   4.771  1.00  0.00     0.011 A 
ENDBRANCH  12  13
ENDBRANCH  11  12
ENDBRANCH   8  11
ENDBRANCH   2   5
BRANCH   1  20
HETATM   20  N   UNL     1      40.766 -10.960   7.848  1.00  0.00    -0.166 NA
HETATM   21  C   UNL     1      41.520 -10.561   8.821  1.00  0.00     0.157 A 
HETATM   22  C   UNL     1      42.869 -10.915   9.290  1.00  0.00     0.027 A 
HETATM   23  C   UNL     1      41.009  -9.479   9.802  1.00  0.00     0.277 A 
HETATM   24  C   UNL     1      43.857 -11.754   8.806  1.00  0.00     0.016 A 
HETATM   25  C   UNL     1      43.087 -10.155  10.445  1.00  0.00     0.048 A 
HETATM   26  C   UNL     1      45.053 -11.846   9.530  1.00  0.00     0.001 A 
HETATM   27  C   UNL     1      45.250 -11.095  10.703  1.00  0.00     0.002 A 
HETATM   28  C   UNL     1      44.260 -10.230  11.170  1.00  0.00     0.030 A 
HETATM   29  N   UNL     1      42.008  -9.332  10.736  1.00  0.00    -0.321 N 
HETATM   30  H   UNL     1      41.940  -8.679  11.501  1.00  0.00     0.169 HD
HETATM   31  O   UNL     1      39.952  -8.893   9.756  1.00  0.00    -0.266 OA
ENDBRANCH   1  20
TORSDOF 5
ENDMDL
MODEL 3
REMARK VINA RESULT:      -9.1      7.206     10.164
REMARK  5 active torsions:
REMARK  status: ('A' for Active; 'I' for Inactive)
REMARK    1  A    between atoms: N_7  and  N_8 
REMARK       I    between atoms: N_8  and  C_9 
REMARK    2  A    between atoms: C_9  and  C_10 
REMARK    3  A    between atoms: C_13  and  O_14 
REMARK    4  A    between atoms: O_14  and  C_15 
REMARK    5  A    between atoms: C_15  and  C_16 
ROOT
HETATM    1  N   UNL     1      43.202 -16.714   3.152  1.00  0.00    -0.242 N 
HETATM    2  C   UNL     1      41.856 -16.381   3.073  1.00  0.00     0.271 C 
HETATM    3  O   UNL     1      41.045 -16.442   3.992  1.00  0.00    -0.266 OA
HETATM    4  H   UNL     1      43.721 -16.867   2.301  1.00  0.00     0.192 HD
ENDROOT
BRANCH   2   5
HETATM    5  C   UNL     1      41.383 -15.936   1.735  1.00  0.00     0.033 A 
HETATM    6  C   UNL     1      40.511 -14.844   1.666  1.00  0.00     0.020 A 
HETATM    7  C   UNL     1      40.089 -14.350   0.428  1.00  0.00     0.038 A 
HETATM    8  C   UNL     1      40.557 -14.932  -0.751  1.00  0.00     0.069 A 
HETATM    9  C   UNL     1      41.413 -16.036  -0.681  1.00  0.00     0.038 A 
HETATM   10  C   UNL     1      41.835 -16.536   0.555  1.00  0.00     0.020 A 
BRANCH   8  11
HETATM   11  O   UNL     1      40.259 -14.515  -2.019  1.00  0.00    -0.347 OA
BRANCH  11  12
HETATM   12  C   UNL     1      41.363 -14.326  -2.903  1.00  0.00     0.214 C 
BRANCH  12  13
HETATM   13  C   UNL     1      41.785 -12.877  -2.840  1.00  0.00    -0.034 A 
HETATM   14  C   UNL     1      42.624 -12.426  -1.810  1.00  0.00     0.011 A 
HETATM   15  C   UNL     1      43.012 -11.085  -1.751  1.00  0.00     0.024 A 
HETATM   16  C   UNL     1      42.560 -10.189  -2.716  1.00  0.00     0.034 A 
HETATM   17 CL   UNL     1      43.038  -8.537  -2.643  1.00  0.00    -0.084 Cl
HETATM   18  C   UNL     1      41.719 -10.620  -3.740  1.00  0.00     0.024 A 
HETATM   19  C   UNL     1      41.331 -11.960  -3.800  1.00  0.00     0.011 A 
ENDBRANCH  12  13
ENDBRANCH  11  12
ENDBRANCH   8  11
ENDBRANCH   2   5
BRANCH   1  20
HETATM   20  N   UNL     1      43.693 -17.182   4.327  1.00  0.00    -0.166 NA
HETATM   21  C   UNL     1      44.028 -18.424   4.472  1.00  0.00     0.157 A 
HETATM   22  C   UNL     1      44.077 -19.589   3.573  1.00  0.00     0.027 A 
HETATM   23  C   UNL     1      44.490 -18.945   5.853  1.00  0.00     0.277 A 
HETATM   24  C   UNL     1      43.854 -19.757   2.218  1.00  0.00     0.016 A 
HETATM   25  C   UNL     1      44.474 -20.671   4.367  1.00  0.00     0.048 A 
HETATM   26  C   UNL     1      43.998 -21.044   1.684  1.00  0.00     0.001 A 
HETATM   27  C   UNL     1      44.375 -22.129   2.497  1.00  0.00     0.002 A 
HETATM   28  C   UNL     1      44.624 -21.946   3.858  1.00  0.00     0.030 A 
HETATM   29  N   UNL     1      44.707 -20.292   5.681  1.00  0.00    -0.321 N 
HETATM   30  H   UNL     1      45.023 -20.888   6.431  1.00  0.00     0.169 HD
HETATM   31  O   UNL     1      44.626 -18.301   6.868  1.00  0.00    -0.266 OA
ENDBRANCH   1  20
TORSDOF 5
ENDMDL
MODEL 4
REMARK VINA RESULT:      -9.1      7.032     10.110
REMARK  5 active torsions:
REMARK  status: ('A' for Active; 'I' for Inactive)
REMARK    1  A    between atoms: N_7  and  N_8 
REMARK       I    between atoms: N_8  and  C_9 
REMARK    2  A    between atoms: C_9  and  C_10 
REMARK    3  A    between atoms: C_13  and  O_14 
REMARK    4  A    between atoms: O_14  and  C_15 
REMARK    5  A    between atoms: C_15  and  C_16 
ROOT
HETATM    1  N   UNL     1      43.488 -17.012   3.923  1.00  0.00    -0.242 N 
HETATM    2  C   UNL     1      42.185 -16.649   3.611  1.00  0.00     0.271 C 
HETATM    3  O   UNL     1      41.189 -16.889   4.286  1.00  0.00    -0.266 OA
HETATM    4  H   UNL     1      44.191 -16.991   3.201  1.00  0.00     0.192 HD
ENDROOT
BRANCH   2   5
HETATM    5  C   UNL     1      42.013 -15.925   2.323  1.00  0.00     0.033 A 
HETATM    6  C   UNL     1      41.675 -16.664   1.183  1.00  0.00     0.020 A 
HETATM    7  C   UNL     1      41.442 -16.020  -0.036  1.00  0.00     0.038 A 
HETATM    8  C   UNL     1      41.521 -14.629  -0.117  1.00  0.00     0.069 A 
HETATM    9  C   UNL     1      41.878 -13.893   1.018  1.00  0.00     0.038 A 
HETATM   10  C   UNL     1      42.117 -14.533   2.238  1.00  0.00     0.020 A 
BRANCH   8  11
HETATM   11  O   UNL     1      41.271 -13.880  -1.233  1.00  0.00    -0.347 OA
BRANCH  11  12
HETATM   12  C   UNL     1      41.256 -14.578  -2.478  1.00  0.00     0.214 C 
BRANCH  12  13
HETATM   13  C   UNL     1      39.854 -14.529  -3.038  1.00  0.00    -0.034 A 
HETATM   14  C   UNL     1      39.071 -13.374  -2.892  1.00  0.00     0.011 A 
HETATM   15  C   UNL     1      37.773 -13.330  -3.409  1.00  0.00     0.024 A 
HETATM   16  C   UNL     1      37.251 -14.440  -4.068  1.00  0.00     0.034 A 
HETATM   17 CL   UNL     1      35.653 -14.386  -4.704  1.00  0.00    -0.084 Cl
HETATM   18  C   UNL     1      38.014 -15.597  -4.213  1.00  0.00     0.024 A 
HETATM   19  C   UNL     1      39.311 -15.642  -3.698  1.00  0.00     0.011 A 
ENDBRANCH  12  13
ENDBRANCH  11  12
ENDBRANCH   8  11
ENDBRANCH   2   5
BRANCH   1  20
HETATM   20  N   UNL     1      43.715 -17.724   5.056  1.00  0.00    -0.166 NA
HETATM   21  C   UNL     1      43.968 -18.992   5.016  1.00  0.00     0.157 A 
HETATM   22  C   UNL     1      44.154 -19.972   3.933  1.00  0.00     0.027 A 
HETATM   23  C   UNL     1      44.125 -19.792   6.331  1.00  0.00     0.277 A 
HETATM   24  C   UNL     1      44.201 -19.871   2.554  1.00  0.00     0.016 A 
HETATM   25  C   UNL     1      44.343 -21.209   4.561  1.00  0.00     0.048 A 
HETATM   26  C   UNL     1      44.402 -21.044   1.816  1.00  0.00     0.001 A 
HETATM   27  C   UNL     1      44.568 -22.285   2.458  1.00  0.00     0.002 A 
HETATM   28  C   UNL     1      44.546 -22.375   3.850  1.00  0.00     0.030 A 
HETATM   29  N   UNL     1      44.321 -21.097   5.944  1.00  0.00    -0.321 N 
HETATM   30  H   UNL     1      44.458 -21.842   6.609  1.00  0.00     0.169 HD
HETATM   31  O   UNL     1      44.078 -19.358   7.459  1.00  0.00    -0.266 OA
ENDBRANCH   1  20
TORSDOF 5
ENDMDL
MODEL 5
REMARK VINA RESULT:      -8.8      6.960     10.100
REMARK  5 active torsions:
REMARK  status: ('A' for Active; 'I' for Inactive)
REMARK    1  A    between atoms: N_7  and  N_8 
REMARK       I    between atoms: N_8  and  C_9 
REMARK    2  A    between atoms: C_9  and  C_10 
REMARK    3  A    between atoms: C_13  and  O_14 
REMARK    4  A    between atoms: O_14  and  C_15 
REMARK    5  A    between atoms: C_15  and  C_16 
ROOT
HETATM    1  N   UNL     1      42.484 -16.212   3.370  1.00  0.00    -0.242 N 
HETATM    2  C   UNL     1      42.771 -15.037   2.689  1.00  0.00     0.271 C 
HETATM    3  O   UNL     1      43.674 -14.251   2.959  1.00  0.00    -0.266 OA
HETATM    4  H   UNL     1      41.589 -16.654   3.233  1.00  0.00     0.192 HD
ENDROOT
BRANCH   2   5
HETATM    5  C   UNL     1      41.871 -14.721   1.549  1.00  0.00     0.033 A 
HETATM    6  C   UNL     1      41.869 -15.579   0.444  1.00  0.00     0.020 A 
HETATM    7  C   UNL     1      40.994 -15.358  -0.625  1.00  0.00     0.038 A 
HETATM    8  C   UNL     1      40.098 -14.289  -0.583  1.00  0.00     0.069 A 
HETATM    9  C   UNL     1      40.114 -13.420   0.513  1.00  0.00     0.038 A 
HETATM   10  C   UNL     1      40.990 -13.635   1.582  1.00  0.00     0.020 A 
BRANCH   8  11
HETATM   11  O   UNL     1      39.164 -13.994  -1.538  1.00  0.00    -0.347 OA
BRANCH  11  12
HETATM   12  C   UNL     1      39.557 -14.192  -2.895  1.00  0.00     0.214 C 
BRANCH  12  13
HETATM   13  C   UNL     1      40.216 -12.928  -3.393  1.00  0.00    -0.034 A 
HETATM   14  C   UNL     1      39.442 -11.804  -3.717  1.00  0.00     0.011 A 
HETATM   15  C   UNL     1      40.052 -10.635  -4.180  1.00  0.00     0.024 A 
HETATM   16  C   UNL     1      41.436 -10.586  -4.326  1.00  0.00     0.034 A 
HETATM   17 CL   UNL     1      42.188  -9.146  -4.895  1.00  0.00    -0.084 Cl
HETATM   18  C   UNL     1      42.218 -11.696  -4.015  1.00  0.00     0.024 A 
HETATM   19  C   UNL     1      41.610 -12.865  -3.552  1.00  0.00     0.011 A 
ENDBRANCH  12  13
ENDBRANCH  11  12
ENDBRANCH   8  11
ENDBRANCH   2   5
BRANCH   1  20
HETATM   20  N   UNL     1      43.229 -16.537   4.457  1.00  0.00    -0.166 NA
HETATM   21  C   UNL     1      43.774 -17.705   4.577  1.00  0.00     0.157 A 
HETATM   22  C   UNL     1      43.856 -18.896   3.717  1.00  0.00     0.027 A 
HETATM   23  C   UNL     1      44.533 -18.075   5.873  1.00  0.00     0.277 A 
HETATM   24  C   UNL     1      43.442 -19.169   2.425  1.00  0.00     0.016 A 
HETATM   25  C   UNL     1      44.543 -19.862   4.461  1.00  0.00     0.048 A 
HETATM   26  C   UNL     1      43.696 -20.447   1.911  1.00  0.00     0.001 A 
HETATM   27  C   UNL     1      44.366 -21.418   2.677  1.00  0.00     0.002 A 
HETATM   28  C   UNL     1      44.805 -21.126   3.969  1.00  0.00     0.030 A 
HETATM   29  N   UNL     1      44.927 -19.382   5.705  1.00  0.00    -0.321 N 
HETATM   30  H   UNL     1      45.451 -19.883   6.406  1.00  0.00     0.169 HD
HETATM   31  O   UNL     1      44.732 -17.364   6.831  1.00  0.00    -0.266 OA
ENDBRANCH   1  20
TORSDOF 5
ENDMDL
MODEL 6
REMARK VINA RESULT:      -8.7      5.858      9.079
REMARK  5 active torsions:
REMARK  status: ('A' for Active; 'I' for Inactive)
REMARK    1  A    between atoms: N_7  and  N_8 
REMARK       I    between atoms: N_8  and  C_9 
REMARK    2  A    between atoms: C_9  and  C_10 
REMARK    3  A    between atoms: C_13  and  O_14 
REMARK    4  A    between atoms: O_14  and  C_15 
REMARK    5  A    between atoms: C_15  and  C_16 
ROOT
HETATM    1  N   UNL     1      41.691 -16.556   5.031  1.00  0.00    -0.242 N 
HETATM    2  C   UNL     1      42.217 -15.394   4.486  1.00  0.00     0.271 C 
HETATM    3  O   UNL     1      43.314 -14.909   4.746  1.00  0.00    -0.266 OA
HETATM    4  H   UNL     1      40.702 -16.736   4.946  1.00  0.00     0.192 HD
ENDROOT
BRANCH   2   5
HETATM    5  C   UNL     1      41.338 -14.685   3.518  1.00  0.00     0.033 A 
HETATM    6  C   UNL     1      40.294 -15.398   2.919  1.00  0.00     0.020 A 
HETATM    7  C   UNL     1      39.404 -14.759   2.052  1.00  0.00     0.038 A 
HETATM    8  C   UNL     1      39.538 -13.393   1.796  1.00  0.00     0.069 A 
HETATM    9  C   UNL     1      40.594 -12.685   2.380  1.00  0.00     0.038 A 
HETATM   10  C   UNL     1      41.490 -13.321   3.245  1.00  0.00     0.020 A 
BRANCH   8  11
HETATM   11  O   UNL     1      38.709 -12.644   1.008  1.00  0.00    -0.347 OA
BRANCH  11  12
HETATM   12  C   UNL     1      39.282 -12.101  -0.181  1.00  0.00     0.214 C 
BRANCH  12  13
HETATM   13  C   UNL     1      39.204 -13.144  -1.271  1.00  0.00    -0.034 A 
HETATM   14  C   UNL     1      40.368 -13.773  -1.737  1.00  0.00     0.011 A 
HETATM   15  C   UNL     1      40.296 -14.736  -2.747  1.00  0.00     0.024 A 
HETATM   16  C   UNL     1      39.061 -15.071  -3.298  1.00  0.00     0.034 A 
HETATM   17 CL   UNL     1      38.972 -16.258  -4.541  1.00  0.00    -0.084 Cl
HETATM   18  C   UNL     1      37.897 -14.450  -2.851  1.00  0.00     0.024 A 
HETATM   19  C   UNL     1      37.968 -13.488  -1.842  1.00  0.00     0.011 A 
ENDBRANCH  12  13
ENDBRANCH  11  12
ENDBRANCH   8  11
ENDBRANCH   2   5
BRANCH   1  20
HETATM   20  N   UNL     1      42.414 -17.228   5.963  1.00  0.00    -0.166 NA
HETATM   21  C   UNL     1      43.139 -18.252   5.647  1.00  0.00     0.157 A 
HETATM   22  C   UNL     1      43.471 -18.926   4.381  1.00  0.00     0.027 A 
HETATM   23  C   UNL     1      43.871 -19.053   6.749  1.00  0.00     0.277 A 
HETATM   24  C   UNL     1      43.187 -18.656   3.054  1.00  0.00     0.016 A 
HETATM   25  C   UNL     1      44.265 -20.026   4.728  1.00  0.00     0.048 A 
HETATM   26  C   UNL     1      43.683 -19.538   2.085  1.00  0.00     0.001 A 
HETATM   27  C   UNL     1      44.460 -20.653   2.448  1.00  0.00     0.002 A 
HETATM   28  C   UNL     1      44.765 -20.903   3.786  1.00  0.00     0.030 A 
HETATM   29  N   UNL     1      44.488 -20.093   6.096  1.00  0.00    -0.321 N 
HETATM   30  H   UNL     1      45.046 -20.780   6.580  1.00  0.00     0.169 HD
HETATM   31  O   UNL     1      43.889 -18.813   7.935  1.00  0.00    -0.266 OA
ENDBRANCH   1  20
TORSDOF 5
ENDMDL
MODEL 7
REMARK VINA RESULT:      -8.5      1.684      2.134
REMARK  5 active torsions:
REMARK  status: ('A' for Active; 'I' for Inactive)
REMARK    1  A    between atoms: N_7  and  N_8 
REMARK       I    between atoms: N_8  and  C_9 
REMARK    2  A    between atoms: C_9  and  C_10 
REMARK    3  A    between atoms: C_13  and  O_14 
REMARK    4  A    between atoms: O_14  and  C_15 
REMARK    5  A    between atoms: C_15  and  C_16 
ROOT
HETATM    1  N   UNL     1      40.570 -11.686   7.722  1.00  0.00    -0.242 N 
HETATM    2  C   UNL     1      39.975 -11.434   6.493  1.00  0.00     0.271 C 
HETATM    3  O   UNL     1      39.072 -10.631   6.281  1.00  0.00    -0.266 OA
HETATM    4  H   UNL     1      41.118 -12.524   7.841  1.00  0.00     0.192 HD
ENDROOT
BRANCH   2   5
HETATM    5  C   UNL     1      40.488 -12.244   5.356  1.00  0.00     0.033 A 
HETATM    6  C   UNL     1      41.851 -12.556   5.321  1.00  0.00     0.020 A 
HETATM    7  C   UNL     1      42.368 -13.367   4.305  1.00  0.00     0.038 A 
HETATM    8  C   UNL     1      41.518 -13.890   3.330  1.00  0.00     0.069 A 
HETATM    9  C   UNL     1      40.158 -13.561   3.354  1.00  0.00     0.038 A 
HETATM   10  C   UNL     1      39.638 -12.748   4.365  1.00  0.00     0.020 A 
BRANCH   8  11
HETATM   11  O   UNL     1      41.889 -14.729   2.316  1.00  0.00    -0.347 OA
BRANCH  11  12
HETATM   12  C   UNL     1      41.235 -15.997   2.267  1.00  0.00     0.214 C 
BRANCH  12  13
HETATM   13  C   UNL     1      42.002 -16.965   3.136  1.00  0.00    -0.034 A 
HETATM   14  C   UNL     1      43.216 -17.510   2.692  1.00  0.00     0.011 A 
HETATM   15  C   UNL     1      43.925 -18.408   3.496  1.00  0.00     0.024 A 
HETATM   16  C   UNL     1      43.421 -18.769   4.742  1.00  0.00     0.034 A 
HETATM   17 CL   UNL     1      44.293 -19.874   5.732  1.00  0.00    -0.084 Cl
HETATM   18  C   UNL     1      42.212 -18.243   5.194  1.00  0.00     0.024 A 
HETATM   19  C   UNL     1      41.504 -17.345   4.393  1.00  0.00     0.011 A 
ENDBRANCH  12  13
ENDBRANCH  11  12
ENDBRANCH   8  11
ENDBRANCH   2   5
BRANCH   1  20
HETATM   20  N   UNL     1      40.115 -11.025   8.816  1.00  0.00    -0.166 NA
HETATM   21  C   UNL     1      40.912 -10.681   9.777  1.00  0.00     0.157 A 
HETATM   22  C   UNL     1      42.364 -10.779   9.994  1.00  0.00     0.027 A 
HETATM   23  C   UNL     1      40.344 -10.017  11.053  1.00  0.00     0.277 A 
HETATM   24  C   UNL     1      43.419 -11.207   9.208  1.00  0.00     0.016 A 
HETATM   25  C   UNL     1      42.596 -10.273  11.279  1.00  0.00     0.048 A 
HETATM   26  C   UNL     1      44.708 -11.156   9.754  1.00  0.00     0.001 A 
HETATM   27  C   UNL     1      44.925 -10.668  11.056  1.00  0.00     0.002 A 
HETATM   28  C   UNL     1      43.859 -10.212  11.832  1.00  0.00     0.030 A 
HETATM   29  N   UNL     1      41.425  -9.839  11.884  1.00  0.00    -0.321 N 
HETATM   30  H   UNL     1      41.342  -9.417  12.796  1.00  0.00     0.169 HD
HETATM   31  O   UNL     1      39.191  -9.723  11.272  1.00  0.00    -0.266 OA
ENDBRANCH   1  20
TORSDOF 5
ENDMDL
MODEL 8
REMARK VINA RESULT:      -8.5      6.256      9.856
REMARK  5 active torsions:
REMARK  status: ('A' for Active; 'I' for Inactive)
REMARK    1  A    between atoms: N_7  and  N_8 
REMARK       I    between atoms: N_8  and  C_9 
REMARK    2  A    between atoms: C_9  and  C_10 
REMARK    3  A    between atoms: C_13  and  O_14 
REMARK    4  A    between atoms: O_14  and  C_15 
REMARK    5  A    between atoms: C_15  and  C_16 
ROOT
HETATM    1  N   UNL     1      42.721 -16.150   4.338  1.00  0.00    -0.242 N 
HETATM    2  C   UNL     1      41.356 -15.956   4.496  1.00  0.00     0.271 C 
HETATM    3  O   UNL     1      40.681 -16.333   5.449  1.00  0.00    -0.266 OA
HETATM    4  H   UNL     1      43.134 -16.028   3.426  1.00  0.00     0.192 HD
ENDROOT
BRANCH   2   5
HETATM    5  C   UNL     1      40.677 -15.244   3.380  1.00  0.00     0.033 A 
HETATM    6  C   UNL     1      40.685 -15.832   2.111  1.00  0.00     0.020 A 
HETATM    7  C   UNL     1      40.007 -15.231   1.046  1.00  0.00     0.038 A 
HETATM    8  C   UNL     1      39.296 -14.048   1.251  1.00  0.00     0.069 A 
HETATM    9  C   UNL     1      39.305 -13.450   2.516  1.00  0.00     0.038 A 
HETATM   10  C   UNL     1      39.985 -14.045   3.583  1.00  0.00     0.020 A 
BRANCH   8  11
HETATM   11  O   UNL     1      38.557 -13.388   0.308  1.00  0.00    -0.347 OA
BRANCH  11  12
HETATM   12  C   UNL     1      39.230 -13.045  -0.902  1.00  0.00     0.214 C 
BRANCH  12  13
HETATM   13  C   UNL     1      38.297 -13.306  -2.061  1.00  0.00    -0.034 A 
HETATM   14  C   UNL     1      37.500 -12.275  -2.578  1.00  0.00     0.011 A 
HETATM   15  C   UNL     1      36.636 -12.518  -3.649  1.00  0.00     0.024 A 
HETATM   16  C   UNL     1      36.560 -13.793  -4.203  1.00  0.00     0.034 A 
HETATM   17 CL   UNL     1      35.496 -14.093  -5.521  1.00  0.00    -0.084 Cl
HETATM   18  C   UNL     1      37.339 -14.831  -3.695  1.00  0.00     0.024 A 
HETATM   19  C   UNL     1      38.203 -14.589  -2.625  1.00  0.00     0.011 A 
ENDBRANCH  12  13
ENDBRANCH  11  12
ENDBRANCH   8  11
ENDBRANCH   2   5
BRANCH   1  20
HETATM   20  N   UNL     1      43.398 -16.841   5.290  1.00  0.00    -0.166 NA
HETATM   21  C   UNL     1      43.832 -18.042   5.072  1.00  0.00     0.157 A 
HETATM   22  C   UNL     1      43.834 -18.940   3.906  1.00  0.00     0.027 A 
HETATM   23  C   UNL     1      44.512 -18.837   6.211  1.00  0.00     0.277 A 
HETATM   24  C   UNL     1      43.440 -18.792   2.588  1.00  0.00     0.016 A 
HETATM   25  C   UNL     1      44.407 -20.139   4.345  1.00  0.00     0.048 A 
HETATM   26  C   UNL     1      43.594 -19.888   1.730  1.00  0.00     0.001 A 
HETATM   27  C   UNL     1      44.149 -21.096   2.189  1.00  0.00     0.002 A 
HETATM   28  C   UNL     1      44.570 -21.229   3.513  1.00  0.00     0.030 A 
HETATM   29  N   UNL     1      44.792 -20.073   5.677  1.00  0.00    -0.321 N 
HETATM   30  H   UNL     1      45.246 -20.800   6.207  1.00  0.00     0.169 HD
HETATM   31  O   UNL     1      44.742 -18.451   7.334  1.00  0.00    -0.266 OA
ENDBRANCH   1  20
TORSDOF 5
ENDMDL
MODEL 9
REMARK VINA RESULT:      -8.4      7.165     10.604
REMARK  5 active torsions:
REMARK  status: ('A' for Active; 'I' for Inactive)
REMARK    1  A    between atoms: N_7  and  N_8 
REMARK       I    between atoms: N_8  and  C_9 
REMARK    2  A    between atoms: C_9  and  C_10 
REMARK    3  A    between atoms: C_13  and  O_14 
REMARK    4  A    between atoms: O_14  and  C_15 
REMARK    5  A    between atoms: C_15  and  C_16 
ROOT
HETATM    1  N   UNL     1      42.083 -16.432   3.913  1.00  0.00    -0.242 N 
HETATM    2  C   UNL     1      42.409 -15.496   2.942  1.00  0.00     0.271 C 
HETATM    3  O   UNL     1      43.511 -14.980   2.780  1.00  0.00    -0.266 OA
HETATM    4  H   UNL     1      41.112 -16.607   4.122  1.00  0.00     0.192 HD
ENDROOT
BRANCH   2   5
HETATM    5  C   UNL     1      41.295 -15.088   2.046  1.00  0.00     0.033 A 
HETATM    6  C   UNL     1      39.981 -15.299   2.478  1.00  0.00     0.020 A 
HETATM    7  C   UNL     1      38.901 -14.875   1.698  1.00  0.00     0.038 A 
HETATM    8  C   UNL     1      39.129 -14.214   0.490  1.00  0.00     0.069 A 
HETATM    9  C   UNL     1      40.443 -14.022   0.049  1.00  0.00     0.038 A 
HETATM   10  C   UNL     1      41.526 -14.448   0.824  1.00  0.00     0.020 A 
BRANCH   8  11
HETATM   11  O   UNL     1      38.164 -13.711  -0.338  1.00  0.00    -0.347 OA
BRANCH  11  12
HETATM   12  C   UNL     1      38.265 -12.325  -0.663  1.00  0.00     0.214 C 
BRANCH  12  13
HETATM   13  C   UNL     1      36.877 -11.730  -0.659  1.00  0.00    -0.034 A 
HETATM   14  C   UNL     1      36.300 -11.265  -1.850  1.00  0.00     0.011 A 
HETATM   15  C   UNL     1      35.016 -10.712  -1.846  1.00  0.00     0.024 A 
HETATM   16  C   UNL     1      34.306 -10.617  -0.652  1.00  0.00     0.034 A 
HETATM   17 CL   UNL     1      32.725  -9.938  -0.646  1.00  0.00    -0.084 Cl
HETATM   18  C   UNL     1      34.868 -11.068   0.541  1.00  0.00     0.024 A 
HETATM   19  C   UNL     1      36.151 -11.620   0.538  1.00  0.00     0.011 A 
ENDBRANCH  12  13
ENDBRANCH  11  12
ENDBRANCH   8  11
ENDBRANCH   2   5
BRANCH   1  20
HETATM   20  N   UNL     1      43.036 -16.811   4.803  1.00  0.00    -0.166 NA
HETATM   21  C   UNL     1      43.666 -17.935   4.679  1.00  0.00     0.157 A 
HETATM   22  C   UNL     1      43.661 -19.013   3.677  1.00  0.00     0.027 A 
HETATM   23  C   UNL     1      44.674 -18.381   5.764  1.00  0.00     0.277 A 
HETATM   24  C   UNL     1      43.033 -19.176   2.455  1.00  0.00     0.016 A 
HETATM   25  C   UNL     1      44.533 -19.994   4.162  1.00  0.00     0.048 A 
HETATM   26  C   UNL     1      43.267 -20.363   1.750  1.00  0.00     0.001 A 
HETATM   27  C   UNL     1      44.127 -21.352   2.260  1.00  0.00     0.002 A 
HETATM   28  C   UNL     1      44.779 -21.169   3.480  1.00  0.00     0.030 A 
HETATM   29  N   UNL     1      45.111 -19.623   5.369  1.00  0.00    -0.321 N 
HETATM   30  H   UNL     1      45.786 -20.152   5.899  1.00  0.00     0.169 HD
HETATM   31  O   UNL     1      45.002 -17.766   6.753  1.00  0.00    -0.266 OA
ENDBRANCH   1  20
TORSDOF 5
ENDMDL
MODEL 10
REMARK VINA RESULT:      -8.4      6.114      9.576
REMARK  5 active torsions:
REMARK  status: ('A' for Active; 'I' for Inactive)
REMARK    1  A    between atoms: N_7  and  N_8 
REMARK       I    between atoms: N_8  and  C_9 
REMARK    2  A    between atoms: C_9  and  C_10 
REMARK    3  A    between atoms: C_13  and  O_14 
REMARK    4  A    between atoms: O_14  and  C_15 
REMARK    5  A    between atoms: C_15  and  C_16 
ROOT
HETATM    1  N   UNL     1      41.925 -18.478   1.861  1.00  0.00    -0.242 N 
HETATM    2  C   UNL     1      42.355 -17.381   1.128  1.00  0.00     0.271 C 
HETATM    3  O   UNL     1      43.479 -17.222   0.662  1.00  0.00    -0.266 OA
HETATM    4  H   UNL     1      41.078 -18.406   2.404  1.00  0.00     0.192 HD
ENDROOT
BRANCH   2   5
HETATM    5  C   UNL     1      41.345 -16.308   0.928  1.00  0.00     0.033 A 
HETATM    6  C   UNL     1      40.316 -16.177   1.867  1.00  0.00     0.020 A 
HETATM    7  C   UNL     1      39.379 -15.145   1.755  1.00  0.00     0.038 A 
HETATM    8  C   UNL     1      39.481 -14.221   0.714  1.00  0.00     0.069 A 
HETATM    9  C   UNL     1      40.498 -14.364  -0.236  1.00  0.00     0.038 A 
HETATM   10  C   UNL     1      41.434 -15.397  -0.130  1.00  0.00     0.020 A 
BRANCH   8  11
HETATM   11  O   UNL     1      38.660 -13.144   0.520  1.00  0.00    -0.347 OA
BRANCH  11  12
HETATM   12  C   UNL     1      39.234 -11.858   0.751  1.00  0.00     0.214 C 
BRANCH  12  13
HETATM   13  C   UNL     1      39.561 -11.736   2.221  1.00  0.00    -0.034 A 
HETATM   14  C   UNL     1      38.537 -11.584   3.167  1.00  0.00     0.011 A 
HETATM   15  C   UNL     1      38.841 -11.469   4.526  1.00  0.00     0.024 A 
HETATM   16  C   UNL     1      40.168 -11.500   4.945  1.00  0.00     0.034 A 
HETATM   17 CL   UNL     1      40.543 -11.359   6.618  1.00  0.00    -0.084 Cl
HETATM   18  C   UNL     1      41.198 -11.643   4.016  1.00  0.00     0.024 A 
HETATM   19  C   UNL     1      40.895 -11.758   2.658  1.00  0.00     0.011 A 
ENDBRANCH  12  13
ENDBRANCH  11  12
ENDBRANCH   8  11
ENDBRANCH   2   5
BRANCH   1  20
HETATM   20  N   UNL     1      42.809 -19.471   2.132  1.00  0.00    -0.166 NA
HETATM   21  C   UNL     1      43.569 -19.432   3.179  1.00  0.00     0.157 A 
HETATM   22  C   UNL     1      43.702 -18.512   4.320  1.00  0.00     0.027 A 
HETATM   23  C   UNL     1      44.633 -20.531   3.404  1.00  0.00     0.277 A 
HETATM   24  C   UNL     1      43.002 -17.390   4.727  1.00  0.00     0.016 A 
HETATM   25  C   UNL     1      44.764 -19.003   5.088  1.00  0.00     0.048 A 
HETATM   26  C   UNL     1      43.418 -16.747   5.900  1.00  0.00     0.001 A 
HETATM   27  C   UNL     1      44.502 -17.237   6.650  1.00  0.00     0.002 A 
HETATM   28  C   UNL     1      45.186 -18.385   6.248  1.00  0.00     0.030 A 
HETATM   29  N   UNL     1      45.298 -20.166   4.551  1.00  0.00    -0.321 N 
HETATM   30  H   UNL     1      46.051 -20.715   4.937  1.00  0.00     0.169 HD
HETATM   31  O   UNL     1      44.838 -21.502   2.712  1.00  0.00    -0.266 OA
ENDBRANCH   1  20
TORSDOF 5
ENDMDL
