MODEL 1
REMARK VINA RESULT:      -9.4      0.000      0.000
REMARK  4 active torsions:
REMARK  status: ('A' for Active; 'I' for Inactive)
REMARK    1  A    between atoms: C_4  and  C_5 
REMARK    2  A    between atoms: C_5  and  C_6 
REMARK    3  A    between atoms: C_7  and  N_8 
REMARK       I    between atoms: N_8  and  C_9 
REMARK    4  A    between atoms: C_9  and  C_10 
ROOT
HETATM    1  N   UNL     1      41.241 -17.993   4.550  1.00  0.00    -0.321 N 
HETATM    2  C   UNL     1      40.888 -17.138   5.574  1.00  0.00     0.277 C 
HETATM    3  O   UNL     1      40.234 -17.528   6.537  1.00  0.00    -0.266 OA
HETATM    4  H   UNL     1      40.622 -18.792   4.497  1.00  0.00     0.169 HD
ENDROOT
BRANCH   1   5
HETATM    5  C   UNL     1      41.927 -17.637   3.382  1.00  0.00     0.041 A 
HETATM    6  C   UNL     1      43.315 -17.831   3.259  1.00  0.00    -0.027 A 
HETATM    7  C   UNL     1      43.931 -17.484   2.043  1.00  0.00     0.010 A 
HETATM    8  C   UNL     1      43.182 -16.995   0.971  1.00  0.00     0.001 A 
HETATM    9  C   UNL     1      41.802 -16.865   1.089  1.00  0.00     0.002 A 
HETATM   10  C   UNL     1      41.172 -17.201   2.288  1.00  0.00     0.030 A 
BRANCH   6  11
HETATM   11  C   UNL     1      44.154 -18.512   4.326  1.00  0.00     0.079 C 
BRANCH  11  12
HETATM   12  C   UNL     1      44.354 -19.996   4.103  1.00  0.00    -0.054 A 
HETATM   13  C   UNL     1      44.672 -20.849   5.169  1.00  0.00     0.007 A 
HETATM   14  C   UNL     1      44.844 -22.217   4.955  1.00  0.00     0.001 A 
HETATM   15  C   UNL     1      44.701 -22.749   3.674  1.00  0.00     0.000 A 
HETATM   16  C   UNL     1      44.389 -21.912   2.606  1.00  0.00     0.001 A 
HETATM   17  C   UNL     1      44.215 -20.543   2.818  1.00  0.00     0.007 A 
ENDBRANCH  11  12
ENDBRANCH   6  11
ENDBRANCH   1   5
BRANCH   2  18
HETATM   18  C   UNL     1      41.174 -15.647   5.451  1.00  0.00     0.156 A 
HETATM   19  N   UNL     1      40.305 -14.903   4.831  1.00  0.00    -0.166 NA
HETATM   20  N   UNL     1      40.564 -13.572   4.710  1.00  0.00    -0.242 N 
HETATM   21  C   UNL     1      41.690 -12.923   5.158  1.00  0.00     0.272 A 
HETATM   22  H   UNL     1      39.861 -13.011   4.239  1.00  0.00     0.192 HD
HETATM   23  O   UNL     1      41.856 -11.718   5.011  1.00  0.00    -0.266 OA
HETATM   24  C   UNL     1      42.697 -13.762   5.827  1.00  0.00     0.046 A 
HETATM   25  C   UNL     1      42.447 -15.123   5.995  1.00  0.00     0.016 A 
HETATM   26  C   UNL     1      43.897 -13.198   6.276  1.00  0.00     0.018 A 
HETATM   27  C   UNL     1      43.404 -15.926   6.627  1.00  0.00     0.015 A 
HETATM   28  C   UNL     1      44.605 -15.364   7.073  1.00  0.00     0.001 A 
HETATM   29  C   UNL     1      44.852 -14.003   6.896  1.00  0.00     0.001 A 
ENDBRANCH   2  18
TORSDOF 4
ENDMDL
MODEL 2
REMARK VINA RESULT:      -8.6      1.387      2.398
REMARK  4 active torsions:
REMARK  status: ('A' for Active; 'I' for Inactive)
REMARK    1  A    between atoms: C_4  and  C_5 
REMARK    2  A    between atoms: C_5  and  C_6 
REMARK    3  A    between atoms: C_7  and  N_8 
REMARK       I    between atoms: N_8  and  C_9 
REMARK    4  A    between atoms: C_9  and  C_10 
ROOT
HETATM    1  N   UNL     1      41.032 -17.774   4.672  1.00  0.00    -0.321 N 
HETATM    2  C   UNL     1      41.015 -17.109   5.881  1.00  0.00     0.277 C 
HETATM    3  O   UNL     1      40.217 -17.409   6.765  1.00  0.00    -0.266 OA
HETATM    4  H   UNL     1      40.143 -18.216   4.473  1.00  0.00     0.169 HD
ENDROOT
BRANCH   1   5
HETATM    5  C   UNL     1      41.854 -17.470   3.579  1.00  0.00     0.041 A 
HETATM    6  C   UNL     1      43.212 -17.839   3.558  1.00  0.00    -0.027 A 
HETATM    7  C   UNL     1      43.967 -17.533   2.412  1.00  0.00     0.010 A 
HETATM    8  C   UNL     1      43.380 -16.915   1.307  1.00  0.00     0.001 A 
HETATM    9  C   UNL     1      42.022 -16.611   1.321  1.00  0.00     0.002 A 
HETATM   10  C   UNL     1      41.256 -16.903   2.449  1.00  0.00     0.030 A 
BRANCH   6  11
HETATM   11  C   UNL     1      43.863 -18.659   4.657  1.00  0.00     0.079 C 
BRANCH  11  12
HETATM   12  C   UNL     1      44.175 -20.087   4.262  1.00  0.00    -0.054 A 
HETATM   13  C   UNL     1      44.060 -20.508   2.930  1.00  0.00     0.007 A 
HETATM   14  C   UNL     1      44.360 -21.824   2.574  1.00  0.00     0.001 A 
HETATM   15  C   UNL     1      44.776 -22.734   3.545  1.00  0.00     0.000 A 
HETATM   16  C   UNL     1      44.890 -22.330   4.873  1.00  0.00     0.001 A 
HETATM   17  C   UNL     1      44.592 -21.014   5.230  1.00  0.00     0.007 A 
ENDBRANCH  11  12
ENDBRANCH   6  11
ENDBRANCH   1   5
BRANCH   2  18
HETATM   18  C   UNL     1      41.891 -15.880   6.084  1.00  0.00     0.156 A 
HETATM   19  N   UNL     1      43.007 -16.023   6.738  1.00  0.00    -0.166 NA
HETATM   20  N   UNL     1      43.787 -14.923   6.931  1.00  0.00    -0.242 N 
HETATM   21  C   UNL     1      43.495 -13.643   6.523  1.00  0.00     0.272 A 
HETATM   22  H   UNL     1      44.661 -15.065   7.427  1.00  0.00     0.192 HD
HETATM   23  O   UNL     1      44.247 -12.699   6.735  1.00  0.00    -0.266 OA
HETATM   24  C   UNL     1      42.216 -13.464   5.817  1.00  0.00     0.046 A 
HETATM   25  C   UNL     1      41.411 -14.576   5.575  1.00  0.00     0.016 A 
HETATM   26  C   UNL     1      41.812 -12.189   5.405  1.00  0.00     0.018 A 
HETATM   27  C   UNL     1      40.192 -14.411   4.907  1.00  0.00     0.015 A 
HETATM   28  C   UNL     1      39.786 -13.136   4.497  1.00  0.00     0.001 A 
HETATM   29  C   UNL     1      40.593 -12.027   4.748  1.00  0.00     0.001 A 
ENDBRANCH   2  18
TORSDOF 4
ENDMDL
MODEL 3
REMARK VINA RESULT:      -8.4      3.286      5.884
REMARK  4 active torsions:
REMARK  status: ('A' for Active; 'I' for Inactive)
REMARK    1  A    between atoms: C_4  and  C_5 
REMARK    2  A    between atoms: C_5  and  C_6 
REMARK    3  A    between atoms: C_7  and  N_8 
REMARK       I    between atoms: N_8  and  C_9 
REMARK    4  A    between atoms: C_9  and  C_10 
ROOT
HETATM    1  N   UNL     1      40.127 -15.910   1.865  1.00  0.00    -0.321 N 
HETATM    2  C   UNL     1      39.682 -14.672   1.449  1.00  0.00     0.277 C 
HETATM    3  O   UNL     1      38.484 -14.407   1.394  1.00  0.00    -0.266 OA
HETATM    4  H   UNL     1      39.419 -16.624   1.743  1.00  0.00     0.169 HD
ENDROOT
BRANCH   1   5
HETATM    5  C   UNL     1      41.461 -16.333   1.904  1.00  0.00     0.041 A 
HETATM    6  C   UNL     1      42.297 -16.022   2.992  1.00  0.00    -0.027 A 
HETATM    7  C   UNL     1      43.616 -16.512   2.980  1.00  0.00     0.010 A 
HETATM    8  C   UNL     1      44.075 -17.317   1.936  1.00  0.00     0.001 A 
HETATM    9  C   UNL     1      43.217 -17.664   0.898  1.00  0.00     0.002 A 
HETATM   10  C   UNL     1      41.906 -17.186   0.889  1.00  0.00     0.030 A 
BRANCH   6  11
HETATM   11  C   UNL     1      41.807 -15.294   4.231  1.00  0.00     0.079 C 
BRANCH  11  12
HETATM   12  C   UNL     1      42.399 -15.807   5.526  1.00  0.00    -0.054 A 
HETATM   13  C   UNL     1      41.917 -16.979   6.125  1.00  0.00     0.007 A 
HETATM   14  C   UNL     1      42.478 -17.450   7.313  1.00  0.00     0.001 A 
HETATM   15  C   UNL     1      43.524 -16.755   7.917  1.00  0.00     0.000 A 
HETATM   16  C   UNL     1      44.009 -15.587   7.335  1.00  0.00     0.001 A 
HETATM   17  C   UNL     1      43.452 -15.115   6.146  1.00  0.00     0.007 A 
ENDBRANCH  11  12
ENDBRANCH   6  11
ENDBRANCH   1   5
BRANCH   2  18
HETATM   18  C   UNL     1      40.673 -13.653   0.902  1.00  0.00     0.156 A 
HETATM   19  N   UNL     1      41.094 -12.716   1.701  1.00  0.00    -0.166 NA
HETATM   20  N   UNL     1      41.972 -11.797   1.210  1.00  0.00    -0.242 N 
HETATM   21  C   UNL     1      42.448 -11.739  -0.078  1.00  0.00     0.272 A 
HETATM   22  H   UNL     1      42.300 -11.088   1.859  1.00  0.00     0.192 HD
HETATM   23  O   UNL     1      43.237 -10.879  -0.449  1.00  0.00    -0.266 OA
HETATM   24  C   UNL     1      41.947 -12.773  -0.999  1.00  0.00     0.046 A 
HETATM   25  C   UNL     1      41.073 -13.746  -0.520  1.00  0.00     0.016 A 
HETATM   26  C   UNL     1      42.339 -12.766  -2.343  1.00  0.00     0.018 A 
HETATM   27  C   UNL     1      40.591 -14.729  -1.393  1.00  0.00     0.015 A 
HETATM   28  C   UNL     1      40.980 -14.722  -2.737  1.00  0.00     0.001 A 
HETATM   29  C   UNL     1      41.850 -13.741  -3.212  1.00  0.00     0.001 A 
ENDBRANCH   2  18
TORSDOF 4
ENDMDL
MODEL 4
REMARK VINA RESULT:      -8.3      2.034      2.978
REMARK  4 active torsions:
REMARK  status: ('A' for Active; 'I' for Inactive)
REMARK    1  A    between atoms: C_4  and  C_5 
REMARK    2  A    between atoms: C_5  and  C_6 
REMARK    3  A    between atoms: C_7  and  N_8 
REMARK       I    between atoms: N_8  and  C_9 
REMARK    4  A    between atoms: C_9  and  C_10 
ROOT
HETATM    1  N   UNL     1      43.025 -16.431   4.422  1.00  0.00    -0.321 N 
HETATM    2  C   UNL     1      43.229 -15.114   4.780  1.00  0.00     0.277 C 
HETATM    3  O   UNL     1      43.835 -14.817   5.806  1.00  0.00    -0.266 OA
HETATM    4  H   UNL     1      43.073 -17.050   5.222  1.00  0.00     0.169 HD
ENDROOT
BRANCH   1   5
HETATM    5  C   UNL     1      42.296 -16.876   3.312  1.00  0.00     0.041 A 
HETATM    6  C   UNL     1      42.885 -17.693   2.328  1.00  0.00    -0.027 A 
HETATM    7  C   UNL     1      42.083 -18.132   1.260  1.00  0.00     0.010 A 
HETATM    8  C   UNL     1      40.728 -17.801   1.193  1.00  0.00     0.001 A 
HETATM    9  C   UNL     1      40.148 -17.043   2.205  1.00  0.00     0.002 A 
HETATM   10  C   UNL     1      40.927 -16.594   3.272  1.00  0.00     0.030 A 
BRANCH   6  11
HETATM   11  C   UNL     1      44.305 -18.221   2.433  1.00  0.00     0.079 C 
BRANCH  11  12
HETATM   12  C   UNL     1      44.400 -19.642   2.949  1.00  0.00    -0.054 A 
HETATM   13  C   UNL     1      44.665 -19.901   4.301  1.00  0.00     0.007 A 
HETATM   14  C   UNL     1      44.739 -21.214   4.769  1.00  0.00     0.001 A 
HETATM   15  C   UNL     1      44.553 -22.282   3.892  1.00  0.00     0.000 A 
HETATM   16  C   UNL     1      44.294 -22.037   2.545  1.00  0.00     0.001 A 
HETATM   17  C   UNL     1      44.217 -20.725   2.076  1.00  0.00     0.007 A 
ENDBRANCH  11  12
ENDBRANCH   6  11
ENDBRANCH   1   5
BRANCH   2  18
HETATM   18  C   UNL     1      42.570 -13.998   3.981  1.00  0.00     0.156 A 
HETATM   19  N   UNL     1      43.149 -13.603   2.885  1.00  0.00    -0.166 NA
HETATM   20  N   UNL     1      42.567 -12.598   2.174  1.00  0.00    -0.242 N 
HETATM   21  C   UNL     1      41.422 -11.921   2.518  1.00  0.00     0.272 A 
HETATM   22  H   UNL     1      43.029 -12.322   1.312  1.00  0.00     0.192 HD
HETATM   23  O   UNL     1      40.957 -11.022   1.827  1.00  0.00    -0.266 OA
HETATM   24  C   UNL     1      40.780 -12.335   3.777  1.00  0.00     0.046 A 
HETATM   25  C   UNL     1      41.333 -13.383   4.511  1.00  0.00     0.016 A 
HETATM   26  C   UNL     1      39.635 -11.672   4.234  1.00  0.00     0.018 A 
HETATM   27  C   UNL     1      40.729 -13.777   5.711  1.00  0.00     0.015 A 
HETATM   28  C   UNL     1      39.586 -13.113   6.169  1.00  0.00     0.001 A 
HETATM   29  C   UNL     1      39.041 -12.061   5.433  1.00  0.00     0.001 A 
ENDBRANCH   2  18
TORSDOF 4
ENDMDL
MODEL 5
REMARK VINA RESULT:      -8.2      2.261      4.208
REMARK  4 active torsions:
REMARK  status: ('A' for Active; 'I' for Inactive)
REMARK    1  A    between atoms: C_4  and  C_5 
REMARK    2  A    between atoms: C_5  and  C_6 
REMARK    3  A    between atoms: C_7  and  N_8 
REMARK       I    between atoms: N_8  and  C_9 
REMARK    4  A    between atoms: C_9  and  C_10 
ROOT
HETATM    1  N   UNL     1      43.636 -15.270   4.542  1.00  0.00    -0.321 N 
HETATM    2  C   UNL     1      43.515 -14.042   3.923  1.00  0.00     0.277 C 
HETATM    3  O   UNL     1      44.494 -13.330   3.718  1.00  0.00    -0.266 OA
HETATM    4  H   UNL     1      44.474 -15.325   5.107  1.00  0.00     0.169 HD
ENDROOT
BRANCH   1   5
HETATM    5  C   UNL     1      42.580 -16.127   4.878  1.00  0.00     0.041 A 
HETATM    6  C   UNL     1      42.258 -17.240   4.080  1.00  0.00    -0.027 A 
HETATM    7  C   UNL     1      41.209 -18.078   4.499  1.00  0.00     0.010 A 
HETATM    8  C   UNL     1      40.529 -17.838   5.694  1.00  0.00     0.001 A 
HETATM    9  C   UNL     1      40.900 -16.768   6.501  1.00  0.00     0.002 A 
HETATM   10  C   UNL     1      41.936 -15.922   6.102  1.00  0.00     0.030 A 
BRANCH   6  11
HETATM   11  C   UNL     1      43.067 -17.647   2.861  1.00  0.00     0.079 C 
BRANCH  11  12
HETATM   12  C   UNL     1      43.562 -19.077   2.895  1.00  0.00    -0.054 A 
HETATM   13  C   UNL     1      44.391 -19.528   3.932  1.00  0.00     0.007 A 
HETATM   14  C   UNL     1      44.833 -20.852   3.960  1.00  0.00     0.001 A 
HETATM   15  C   UNL     1      44.454 -21.739   2.954  1.00  0.00     0.000 A 
HETATM   16  C   UNL     1      43.634 -21.302   1.916  1.00  0.00     0.001 A 
HETATM   17  C   UNL     1      43.190 -19.979   1.887  1.00  0.00     0.007 A 
ENDBRANCH  11  12
ENDBRANCH   6  11
ENDBRANCH   1   5
BRANCH   2  18
HETATM   18  C   UNL     1      42.135 -13.479   3.617  1.00  0.00     0.156 A 
HETATM   19  N   UNL     1      41.551 -12.754   4.527  1.00  0.00    -0.166 NA
HETATM   20  N   UNL     1      40.311 -12.258   4.259  1.00  0.00    -0.242 N 
HETATM   21  C   UNL     1      39.583 -12.474   3.114  1.00  0.00     0.272 A 
HETATM   22  H   UNL     1      39.886 -11.680   4.978  1.00  0.00     0.192 HD
HETATM   23  O   UNL     1      38.468 -11.995   2.944  1.00  0.00    -0.266 OA
HETATM   24  C   UNL     1      40.218 -13.324   2.094  1.00  0.00     0.046 A 
HETATM   25  C   UNL     1      41.500 -13.820   2.324  1.00  0.00     0.016 A 
HETATM   26  C   UNL     1      39.534 -13.638   0.914  1.00  0.00     0.018 A 
HETATM   27  C   UNL     1      42.108 -14.633   1.358  1.00  0.00     0.015 A 
HETATM   28  C   UNL     1      41.423 -14.949   0.180  1.00  0.00     0.001 A 
HETATM   29  C   UNL     1      40.138 -14.455  -0.041  1.00  0.00     0.001 A 
ENDBRANCH   2  18
TORSDOF 4
ENDMDL
MODEL 6
REMARK VINA RESULT:      -8.2      2.584      4.200
REMARK  4 active torsions:
REMARK  status: ('A' for Active; 'I' for Inactive)
REMARK    1  A    between atoms: C_4  and  C_5 
REMARK    2  A    between atoms: C_5  and  C_6 
REMARK    3  A    between atoms: C_7  and  N_8 
REMARK       I    between atoms: N_8  and  C_9 
REMARK    4  A    between atoms: C_9  and  C_10 
ROOT
HETATM    1  N   UNL     1      43.499 -15.077   4.761  1.00  0.00    -0.321 N 
HETATM    2  C   UNL     1      43.450 -14.179   3.714  1.00  0.00     0.277 C 
HETATM    3  O   UNL     1      44.271 -13.271   3.611  1.00  0.00    -0.266 OA
HETATM    4  H   UNL     1      43.989 -14.696   5.561  1.00  0.00     0.169 HD
ENDROOT
BRANCH   1   5
HETATM    5  C   UNL     1      42.580 -16.105   5.005  1.00  0.00     0.041 A 
HETATM    6  C   UNL     1      42.709 -17.365   4.391  1.00  0.00    -0.027 A 
HETATM    7  C   UNL     1      41.769 -18.361   4.711  1.00  0.00     0.010 A 
HETATM    8  C   UNL     1      40.756 -18.122   5.642  1.00  0.00     0.001 A 
HETATM    9  C   UNL     1      40.679 -16.891   6.283  1.00  0.00     0.002 A 
HETATM   10  C   UNL     1      41.599 -15.888   5.978  1.00  0.00     0.030 A 
BRANCH   6  11
HETATM   11  C   UNL     1      43.882 -17.735   3.501  1.00  0.00     0.079 C 
BRANCH  11  12
HETATM   12  C   UNL     1      44.014 -19.220   3.237  1.00  0.00    -0.054 A 
HETATM   13  C   UNL     1      44.614 -20.070   4.177  1.00  0.00     0.007 A 
HETATM   14  C   UNL     1      44.721 -21.439   3.929  1.00  0.00     0.001 A 
HETATM   15  C   UNL     1      44.231 -21.975   2.739  1.00  0.00     0.000 A 
HETATM   16  C   UNL     1      43.636 -21.142   1.795  1.00  0.00     0.001 A 
HETATM   17  C   UNL     1      43.527 -19.773   2.042  1.00  0.00     0.007 A 
ENDBRANCH  11  12
ENDBRANCH   6  11
ENDBRANCH   1   5
BRANCH   2  18
HETATM   18  C   UNL     1      42.278 -14.207   2.744  1.00  0.00     0.156 A 
HETATM   19  N   UNL     1      42.393 -14.920   1.661  1.00  0.00    -0.166 NA
HETATM   20  N   UNL     1      41.350 -14.938   0.786  1.00  0.00    -0.242 N 
HETATM   21  C   UNL     1      40.172 -14.241   0.916  1.00  0.00     0.272 A 
HETATM   22  H   UNL     1      41.458 -15.518  -0.041  1.00  0.00     0.192 HD
HETATM   23  O   UNL     1      39.276 -14.305   0.083  1.00  0.00    -0.266 OA
HETATM   24  C   UNL     1      40.048 -13.401   2.118  1.00  0.00     0.046 A 
HETATM   25  C   UNL     1      41.085 -13.386   3.049  1.00  0.00     0.016 A 
HETATM   26  C   UNL     1      38.904 -12.618   2.314  1.00  0.00     0.018 A 
HETATM   27  C   UNL     1      40.972 -12.586   4.193  1.00  0.00     0.015 A 
HETATM   28  C   UNL     1      39.831 -11.801   4.387  1.00  0.00     0.001 A 
HETATM   29  C   UNL     1      38.800 -11.815   3.449  1.00  0.00     0.001 A 
ENDBRANCH   2  18
TORSDOF 4
ENDMDL
MODEL 7
REMARK VINA RESULT:      -8.2      2.166      4.038
REMARK  4 active torsions:
REMARK  status: ('A' for Active; 'I' for Inactive)
REMARK    1  A    between atoms: C_4  and  C_5 
REMARK    2  A    between atoms: C_5  and  C_6 
REMARK    3  A    between atoms: C_7  and  N_8 
REMARK       I    between atoms: N_8  and  C_9 
REMARK    4  A    between atoms: C_9  and  C_10 
ROOT
HETATM    1  N   UNL     1      41.888 -15.419   3.770  1.00  0.00    -0.321 N 
HETATM    2  C   UNL     1      40.668 -14.779   3.692  1.00  0.00     0.277 C 
HETATM    3  O   UNL     1      39.955 -14.879   2.697  1.00  0.00    -0.266 OA
HETATM    4  H   UNL     1      42.263 -15.626   2.853  1.00  0.00     0.169 HD
ENDROOT
BRANCH   1   5
HETATM    5  C   UNL     1      42.801 -15.319   4.827  1.00  0.00     0.041 A 
HETATM    6  C   UNL     1      43.056 -16.409   5.680  1.00  0.00    -0.027 A 
HETATM    7  C   UNL     1      44.013 -16.247   6.698  1.00  0.00     0.010 A 
HETATM    8  C   UNL     1      44.722 -15.052   6.838  1.00  0.00     0.001 A 
HETATM    9  C   UNL     1      44.500 -14.006   5.948  1.00  0.00     0.002 A 
HETATM   10  C   UNL     1      43.553 -14.144   4.933  1.00  0.00     0.030 A 
BRANCH   6  11
HETATM   11  C   UNL     1      42.441 -17.782   5.476  1.00  0.00     0.079 C 
BRANCH  11  12
HETATM   12  C   UNL     1      43.245 -18.691   4.571  1.00  0.00    -0.054 A 
HETATM   13  C   UNL     1      44.247 -19.523   5.090  1.00  0.00     0.007 A 
HETATM   14  C   UNL     1      44.975 -20.366   4.249  1.00  0.00     0.001 A 
HETATM   15  C   UNL     1      44.712 -20.386   2.880  1.00  0.00     0.000 A 
HETATM   16  C   UNL     1      43.723 -19.561   2.350  1.00  0.00     0.001 A 
HETATM   17  C   UNL     1      42.992 -18.719   3.190  1.00  0.00     0.007 A 
ENDBRANCH  11  12
ENDBRANCH   6  11
ENDBRANCH   1   5
BRANCH   2  18
HETATM   18  C   UNL     1      40.249 -13.806   4.785  1.00  0.00     0.156 A 
HETATM   19  N   UNL     1      39.815 -14.295   5.910  1.00  0.00    -0.166 NA
HETATM   20  N   UNL     1      39.429 -13.427   6.886  1.00  0.00    -0.242 N 
HETATM   21  C   UNL     1      39.423 -12.055   6.793  1.00  0.00     0.272 A 
HETATM   22  H   UNL     1      39.113 -13.835   7.760  1.00  0.00     0.192 HD
HETATM   23  O   UNL     1      39.059 -11.336   7.715  1.00  0.00    -0.266 OA
HETATM   24  C   UNL     1      39.877 -11.493   5.510  1.00  0.00     0.046 A 
HETATM   25  C   UNL     1      40.309 -12.354   4.503  1.00  0.00     0.016 A 
HETATM   26  C   UNL     1      39.861 -10.108   5.305  1.00  0.00     0.018 A 
HETATM   27  C   UNL     1      40.737 -11.823   3.280  1.00  0.00     0.015 A 
HETATM   28  C   UNL     1      40.719 -10.440   3.073  1.00  0.00     0.001 A 
HETATM   29  C   UNL     1      40.280  -9.584   4.083  1.00  0.00     0.001 A 
ENDBRANCH   2  18
TORSDOF 4
ENDMDL
MODEL 8
REMARK VINA RESULT:      -8.1      2.535      4.110
REMARK  4 active torsions:
REMARK  status: ('A' for Active; 'I' for Inactive)
REMARK    1  A    between atoms: C_4  and  C_5 
REMARK    2  A    between atoms: C_5  and  C_6 
REMARK    3  A    between atoms: C_7  and  N_8 
REMARK       I    between atoms: N_8  and  C_9 
REMARK    4  A    between atoms: C_9  and  C_10 
ROOT
HETATM    1  N   UNL     1      41.938 -17.673   2.309  1.00  0.00    -0.321 N 
HETATM    2  C   UNL     1      41.857 -16.621   1.420  1.00  0.00     0.277 C 
HETATM    3  O   UNL     1      41.950 -16.797   0.209  1.00  0.00    -0.266 OA
HETATM    4  H   UNL     1      42.434 -18.462   1.913  1.00  0.00     0.169 HD
ENDROOT
BRANCH   1   5
HETATM    5  C   UNL     1      41.908 -17.573   3.706  1.00  0.00     0.041 A 
HETATM    6  C   UNL     1      43.008 -17.963   4.492  1.00  0.00    -0.027 A 
HETATM    7  C   UNL     1      42.920 -17.800   5.886  1.00  0.00     0.010 A 
HETATM    8  C   UNL     1      41.790 -17.231   6.475  1.00  0.00     0.001 A 
HETATM    9  C   UNL     1      40.737 -16.795   5.678  1.00  0.00     0.002 A 
HETATM   10  C   UNL     1      40.802 -16.951   4.293  1.00  0.00     0.030 A 
BRANCH   6  11
HETATM   11  C   UNL     1      44.324 -18.433   3.899  1.00  0.00     0.079 C 
BRANCH  11  12
HETATM   12  C   UNL     1      44.449 -19.937   3.782  1.00  0.00    -0.054 A 
HETATM   13  C   UNL     1      44.817 -20.718   4.886  1.00  0.00     0.007 A 
HETATM   14  C   UNL     1      44.919 -22.106   4.770  1.00  0.00     0.001 A 
HETATM   15  C   UNL     1      44.656 -22.727   3.551  1.00  0.00     0.000 A 
HETATM   16  C   UNL     1      44.293 -21.962   2.445  1.00  0.00     0.001 A 
HETATM   17  C   UNL     1      44.189 -20.575   2.559  1.00  0.00     0.007 A 
ENDBRANCH  11  12
ENDBRANCH   6  11
ENDBRANCH   1   5
BRANCH   2  18
HETATM   18  C   UNL     1      41.802 -15.191   1.940  1.00  0.00     0.156 A 
HETATM   19  N   UNL     1      42.867 -14.700   2.504  1.00  0.00    -0.166 NA
HETATM   20  N   UNL     1      42.816 -13.425   2.980  1.00  0.00    -0.242 N 
HETATM   21  C   UNL     1      41.722 -12.594   2.952  1.00  0.00     0.272 A 
HETATM   22  H   UNL     1      43.666 -13.060   3.398  1.00  0.00     0.192 HD
HETATM   23  O   UNL     1      41.750 -11.455   3.403  1.00  0.00    -0.266 OA
HETATM   24  C   UNL     1      40.500 -13.153   2.350  1.00  0.00     0.046 A 
HETATM   25  C   UNL     1      40.529 -14.444   1.825  1.00  0.00     0.016 A 
HETATM   26  C   UNL     1      39.322 -12.397   2.319  1.00  0.00     0.018 A 
HETATM   27  C   UNL     1      39.368 -14.981   1.255  1.00  0.00     0.015 A 
HETATM   28  C   UNL     1      38.190 -14.228   1.226  1.00  0.00     0.001 A 
HETATM   29  C   UNL     1      38.166 -12.939   1.759  1.00  0.00     0.001 A 
ENDBRANCH   2  18
TORSDOF 4
ENDMDL
MODEL 9
REMARK VINA RESULT:      -8.1      5.116      7.443
REMARK  4 active torsions:
REMARK  status: ('A' for Active; 'I' for Inactive)
REMARK    1  A    between atoms: C_4  and  C_5 
REMARK    2  A    between atoms: C_5  and  C_6 
REMARK    3  A    between atoms: C_7  and  N_8 
REMARK       I    between atoms: N_8  and  C_9 
REMARK    4  A    between atoms: C_9  and  C_10 
ROOT
HETATM    1  N   UNL     1      42.069 -14.094  -0.117  1.00  0.00    -0.321 N 
HETATM    2  C   UNL     1      41.987 -13.850  -1.473  1.00  0.00     0.277 C 
HETATM    3  O   UNL     1      42.791 -13.116  -2.041  1.00  0.00    -0.266 OA
HETATM    4  H   UNL     1      42.568 -13.359   0.368  1.00  0.00     0.169 HD
ENDROOT
BRANCH   1   5
HETATM    5  C   UNL     1      41.170 -14.860   0.636  1.00  0.00     0.041 A 
HETATM    6  C   UNL     1      41.478 -16.177   1.027  1.00  0.00    -0.027 A 
HETATM    7  C   UNL     1      40.542 -16.873   1.812  1.00  0.00     0.010 A 
HETATM    8  C   UNL     1      39.356 -16.266   2.228  1.00  0.00     0.001 A 
HETATM    9  C   UNL     1      39.095 -14.944   1.882  1.00  0.00     0.002 A 
HETATM   10  C   UNL     1      40.009 -14.236   1.101  1.00  0.00     0.030 A 
BRANCH   6  11
HETATM   11  C   UNL     1      42.819 -16.831   0.747  1.00  0.00     0.079 C 
BRANCH  11  12
HETATM   12  C   UNL     1      43.297 -17.757   1.846  1.00  0.00    -0.054 A 
HETATM   13  C   UNL     1      43.606 -17.263   3.121  1.00  0.00     0.007 A 
HETATM   14  C   UNL     1      44.035 -18.126   4.131  1.00  0.00     0.001 A 
HETATM   15  C   UNL     1      44.163 -19.491   3.877  1.00  0.00     0.000 A 
HETATM   16  C   UNL     1      43.864 -19.994   2.613  1.00  0.00     0.001 A 
HETATM   17  C   UNL     1      43.432 -19.133   1.603  1.00  0.00     0.007 A 
ENDBRANCH  11  12
ENDBRANCH   6  11
ENDBRANCH   1   5
BRANCH   2  18
HETATM   18  C   UNL     1      40.797 -14.370  -2.267  1.00  0.00     0.156 A 
HETATM   19  N   UNL     1      40.863 -15.574  -2.756  1.00  0.00    -0.166 NA
HETATM   20  N   UNL     1      39.805 -16.038  -3.477  1.00  0.00    -0.242 N 
HETATM   21  C   UNL     1      38.659 -15.338  -3.773  1.00  0.00     0.272 A 
HETATM   22  H   UNL     1      39.874 -16.987  -3.831  1.00  0.00     0.192 HD
HETATM   23  O   UNL     1      37.746 -15.822  -4.431  1.00  0.00    -0.266 OA
HETATM   24  C   UNL     1      38.590 -13.961  -3.256  1.00  0.00     0.046 A 
HETATM   25  C   UNL     1      39.644 -13.469  -2.488  1.00  0.00     0.016 A 
HETATM   26  C   UNL     1      37.483 -13.155  -3.547  1.00  0.00     0.018 A 
HETATM   27  C   UNL     1      39.585 -12.158  -1.998  1.00  0.00     0.015 A 
HETATM   28  C   UNL     1      38.480 -11.351  -2.290  1.00  0.00     0.001 A 
HETATM   29  C   UNL     1      37.432 -11.848  -3.065  1.00  0.00     0.001 A 
ENDBRANCH   2  18
TORSDOF 4
ENDMDL
MODEL 10
REMARK VINA RESULT:      -8.0      2.929      6.341
REMARK  4 active torsions:
REMARK  status: ('A' for Active; 'I' for Inactive)
REMARK    1  A    between atoms: C_4  and  C_5 
REMARK    2  A    between atoms: C_5  and  C_6 
REMARK    3  A    between atoms: C_7  and  N_8 
REMARK       I    between atoms: N_8  and  C_9 
REMARK    4  A    between atoms: C_9  and  C_10 
ROOT
HETATM    1  N   UNL     1      42.542 -12.732   2.727  1.00  0.00    -0.321 N 
HETATM    2  C   UNL     1      43.172 -13.505   3.681  1.00  0.00     0.277 C 
HETATM    3  O   UNL     1      44.393 -13.492   3.811  1.00  0.00    -0.266 OA
HETATM    4  H   UNL     1      43.165 -12.491   1.967  1.00  0.00     0.169 HD
ENDROOT
BRANCH   1   5
HETATM    5  C   UNL     1      41.168 -12.722   2.455  1.00  0.00     0.041 A 
HETATM    6  C   UNL     1      40.596 -13.622   1.537  1.00  0.00    -0.027 A 
HETATM    7  C   UNL     1      39.204 -13.578   1.341  1.00  0.00     0.010 A 
HETATM    8  C   UNL     1      38.402 -12.693   2.065  1.00  0.00     0.001 A 
HETATM    9  C   UNL     1      38.977 -11.852   3.012  1.00  0.00     0.002 A 
HETATM   10  C   UNL     1      40.357 -11.878   3.220  1.00  0.00     0.030 A 
BRANCH   6  11
HETATM   11  C   UNL     1      41.390 -14.715   0.845  1.00  0.00     0.079 C 
BRANCH  11  12
HETATM   12  C   UNL     1      41.428 -14.593  -0.664  1.00  0.00    -0.054 A 
HETATM   13  C   UNL     1      40.972 -15.635  -1.483  1.00  0.00     0.007 A 
HETATM   14  C   UNL     1      41.001 -15.507  -2.873  1.00  0.00     0.001 A 
HETATM   15  C   UNL     1      41.487 -14.340  -3.459  1.00  0.00     0.000 A 
HETATM   16  C   UNL     1      41.947 -13.299  -2.656  1.00  0.00     0.001 A 
HETATM   17  C   UNL     1      41.917 -13.423  -1.267  1.00  0.00     0.007 A 
ENDBRANCH  11  12
ENDBRANCH   6  11
ENDBRANCH   1   5
BRANCH   2  18
HETATM   18  C   UNL     1      42.370 -14.512   4.494  1.00  0.00     0.156 A 
HETATM   19  N   UNL     1      41.607 -14.062   5.448  1.00  0.00    -0.166 NA
HETATM   20  N   UNL     1      40.897 -14.962   6.184  1.00  0.00    -0.242 N 
HETATM   21  C   UNL     1      40.926 -16.328   6.040  1.00  0.00     0.272 A 
HETATM   22  H   UNL     1      40.295 -14.584   6.909  1.00  0.00     0.192 HD
HETATM   23  O   UNL     1      40.259 -17.078   6.743  1.00  0.00    -0.266 OA
HETATM   24  C   UNL     1      41.816 -16.849   4.989  1.00  0.00     0.046 A 
HETATM   25  C   UNL     1      42.531 -15.952   4.197  1.00  0.00     0.016 A 
HETATM   26  C   UNL     1      41.948 -18.230   4.799  1.00  0.00     0.018 A 
HETATM   27  C   UNL     1      43.382 -16.443   3.198  1.00  0.00     0.015 A 
HETATM   28  C   UNL     1      43.516 -17.823   3.010  1.00  0.00     0.001 A 
HETATM   29  C   UNL     1      42.802 -18.714   3.810  1.00  0.00     0.001 A 
ENDBRANCH   2  18
TORSDOF 4
ENDMDL
