MODEL 1
REMARK VINA RESULT:      -8.7      0.000      0.000
REMARK  7 active torsions:
REMARK  status: ('A' for Active; 'I' for Inactive)
REMARK       I    between atoms: C_2  and  N_3 
REMARK    1  A    between atoms: N_3  and  C_4 
REMARK    2  A    between atoms: C_7  and  C_8 
REMARK    3  A    between atoms: C_8  and  N_9 
REMARK    4  A    between atoms: C_18  and  C_19 
REMARK    5  A    between atoms: C_19  and  N_20 
REMARK    6  A    between atoms: C_24  and  O_25 
REMARK    7  A    between atoms: O_25  and  C_26 
ROOT
HETATM    1  N   UNL     1      44.647 -20.819   2.484  1.00  0.00    -0.061 N 
HETATM    2  H   UNL     1      45.191 -20.678   1.626  1.00  0.00     0.280 HD
HETATM    3  C   UNL     1      45.312 -19.916   3.500  1.00  0.00     0.276 C 
HETATM    4  C   UNL     1      44.621 -19.801   4.829  1.00  0.00     0.002 A 
HETATM    5  C   UNL     1      44.466 -20.923   5.644  1.00  0.00     0.076 A 
HETATM    6  O   UNL     1      44.948 -22.143   5.261  1.00  0.00    -0.349 OA
HETATM    7  C   UNL     1      44.207 -22.695   4.165  1.00  0.00     0.203 C 
HETATM    8  C   UNL     1      44.816 -22.297   2.815  1.00  0.00     0.262 C 
HETATM    9  C   UNL     1      44.173 -18.555   5.309  1.00  0.00     0.020 A 
HETATM   10  C   UNL     1      43.570 -18.433   6.577  1.00  0.00    -0.032 A 
HETATM   11  C   UNL     1      43.442 -19.580   7.373  1.00  0.00     0.011 A 
HETATM   12  C   UNL     1      43.900 -20.816   6.912  1.00  0.00     0.038 A 
ENDROOT
BRANCH  10  13
HETATM   13  C   UNL     1      43.085 -17.090   7.073  1.00  0.00     0.273 C 
BRANCH  13  14
HETATM   14  N   UNL     1      42.596 -16.158   5.978  1.00  0.00    -0.067 N 
HETATM   15  H   UNL     1      42.695 -16.670   5.091  1.00  0.00     0.280 HD
HETATM   16  C   UNL     1      41.139 -15.789   6.138  1.00  0.00     0.237 C 
HETATM   17  C   UNL     1      40.703 -14.853   5.019  1.00  0.00     0.060 C 
HETATM   18  C   UNL     1      41.566 -13.592   4.983  1.00  0.00     0.132 C 
HETATM   19  C   UNL     1      43.027 -14.003   4.794  1.00  0.00     0.060 C 
HETATM   20  C   UNL     1      43.491 -14.934   5.904  1.00  0.00     0.237 C 
BRANCH  18  21
HETATM   21  O   UNL     1      41.493 -12.897   6.234  1.00  0.00    -0.344 OA
BRANCH  21  22
HETATM   22  C   UNL     1      41.493 -11.532   6.210  1.00  0.00     0.086 A 
HETATM   23  C   UNL     1      41.869 -10.894   7.387  1.00  0.00     0.152 A 
HETATM   24  N   UNL     1      41.892  -9.554   7.558  1.00  0.00    -0.270 NA
HETATM   25  C   UNL     1      41.580  -8.804   6.480  1.00  0.00     0.116 A 
HETATM   26  C   UNL     1      41.228  -9.343   5.252  1.00  0.00     0.022 A 
HETATM   27  C   UNL     1      41.181 -10.731   5.117  1.00  0.00     0.039 A 
ENDBRANCH  21  22
ENDBRANCH  18  21
ENDBRANCH  13  14
ENDBRANCH  10  13
BRANCH   1  28
HETATM   28  C   UNL     1      43.226 -20.462   2.097  1.00  0.00     0.273 C 
BRANCH  28  29
HETATM   29  C   UNL     1      42.946 -18.987   1.984  1.00  0.00    -0.032 A 
HETATM   30  C   UNL     1      41.841 -18.389   2.604  1.00  0.00     0.011 A 
HETATM   31  C   UNL     1      41.590 -17.020   2.440  1.00  0.00     0.030 A 
HETATM   32  C   UNL     1      42.428 -16.231   1.646  1.00  0.00     0.034 A 
HETATM   33  C   UNL     1      43.551 -16.818   1.064  1.00  0.00     0.030 A 
HETATM   34  C   UNL     1      43.815 -18.178   1.238  1.00  0.00     0.011 A 
BRANCH  32  35
HETATM   35  N   UNL     1      42.123 -14.864   1.506  1.00  0.00    -0.328 N 
HETATM   36  C   UNL     1      41.594 -14.260   0.377  1.00  0.00     0.218 C 
HETATM   37  C   UNL     1      41.575 -12.754   0.461  1.00  0.00     0.117 C 
HETATM   38  O   UNL     1      41.129 -14.854  -0.595  1.00  0.00    -0.274 OA
HETATM   39  H   UNL     1      42.226 -14.281   2.329  1.00  0.00     0.169 HD
ENDBRANCH  32  35
ENDBRANCH  28  29
ENDBRANCH   1  28
TORSDOF 7
ENDMDL
MODEL 2
REMARK VINA RESULT:      -8.7      2.993      6.928
REMARK  7 active torsions:
REMARK  status: ('A' for Active; 'I' for Inactive)
REMARK       I    between atoms: C_2  and  N_3 
REMARK    1  A    between atoms: N_3  and  C_4 
REMARK    2  A    between atoms: C_7  and  C_8 
REMARK    3  A    between atoms: C_8  and  N_9 
REMARK    4  A    between atoms: C_18  and  C_19 
REMARK    5  A    between atoms: C_19  and  N_20 
REMARK    6  A    between atoms: C_24  and  O_25 
REMARK    7  A    between atoms: O_25  and  C_26 
ROOT
HETATM    1  N   UNL     1      40.559 -15.534   0.841  1.00  0.00    -0.061 N 
HETATM    2  H   UNL     1      40.437 -16.485   0.475  1.00  0.00     0.280 HD
HETATM    3  C   UNL     1      39.518 -15.418   1.933  1.00  0.00     0.276 C 
HETATM    4  C   UNL     1      39.568 -14.164   2.758  1.00  0.00     0.002 A 
HETATM    5  C   UNL     1      39.359 -12.919   2.164  1.00  0.00     0.076 A 
HETATM    6  O   UNL     1      39.093 -12.812   0.828  1.00  0.00    -0.349 OA
HETATM    7  C   UNL     1      40.235 -13.132   0.024  1.00  0.00     0.203 C 
HETATM    8  C   UNL     1      40.267 -14.620  -0.345  1.00  0.00     0.262 C 
HETATM    9  C   UNL     1      39.762 -14.219   4.152  1.00  0.00     0.020 A 
HETATM   10  C   UNL     1      39.760 -13.050   4.938  1.00  0.00    -0.032 A 
HETATM   11  C   UNL     1      39.534 -11.818   4.309  1.00  0.00     0.011 A 
HETATM   12  C   UNL     1      39.324 -11.756   2.930  1.00  0.00     0.038 A 
ENDROOT
BRANCH  10  13
HETATM   13  C   UNL     1      39.979 -13.125   6.432  1.00  0.00     0.273 C 
BRANCH  13  14
HETATM   14  N   UNL     1      40.136 -11.774   7.109  1.00  0.00    -0.067 N 
HETATM   15  H   UNL     1      39.755 -11.074   6.460  1.00  0.00     0.280 HD
HETATM   16  C   UNL     1      39.357 -11.679   8.402  1.00  0.00     0.237 C 
HETATM   17  C   UNL     1      39.552 -10.310   9.039  1.00  0.00     0.060 C 
HETATM   18  C   UNL     1      41.032 -10.023   9.292  1.00  0.00     0.132 C 
HETATM   19  C   UNL     1      41.782 -10.103   7.962  1.00  0.00     0.060 C 
HETATM   20  C   UNL     1      41.609 -11.464   7.306  1.00  0.00     0.237 C 
BRANCH  18  21
HETATM   21  O   UNL     1      41.600 -11.025  10.145  1.00  0.00    -0.344 OA
BRANCH  21  22
HETATM   22  C   UNL     1      41.993 -10.652  11.398  1.00  0.00     0.086 A 
HETATM   23  C   UNL     1      41.138 -10.993  12.440  1.00  0.00     0.152 A 
HETATM   24  N   UNL     1      41.345 -10.675  13.736  1.00  0.00    -0.270 NA
HETATM   25  C   UNL     1      42.498 -10.032  14.021  1.00  0.00     0.116 A 
HETATM   26  C   UNL     1      43.433  -9.680  13.060  1.00  0.00     0.022 A 
HETATM   27  C   UNL     1      43.173  -9.994  11.725  1.00  0.00     0.039 A 
ENDBRANCH  21  22
ENDBRANCH  18  21
ENDBRANCH  13  14
ENDBRANCH  10  13
BRANCH   1  28
HETATM   28  C   UNL     1      42.007 -15.478   1.283  1.00  0.00     0.273 C 
BRANCH  28  29
HETATM   29  C   UNL     1      42.566 -16.776   1.801  1.00  0.00    -0.032 A 
HETATM   30  C   UNL     1      42.272 -17.254   3.085  1.00  0.00     0.011 A 
HETATM   31  C   UNL     1      42.847 -18.446   3.547  1.00  0.00     0.030 A 
HETATM   32  C   UNL     1      43.732 -19.170   2.744  1.00  0.00     0.034 A 
HETATM   33  C   UNL     1      43.992 -18.716   1.451  1.00  0.00     0.030 A 
HETATM   34  C   UNL     1      43.408 -17.538   0.979  1.00  0.00     0.011 A 
BRANCH  32  35
HETATM   35  N   UNL     1      44.290 -20.354   3.262  1.00  0.00    -0.328 N 
HETATM   36  C   UNL     1      44.179 -21.618   2.706  1.00  0.00     0.218 C 
HETATM   37  C   UNL     1      44.705 -22.711   3.602  1.00  0.00     0.117 C 
HETATM   38  O   UNL     1      43.750 -21.863   1.579  1.00  0.00    -0.274 OA
HETATM   39  H   UNL     1      44.891 -20.264   4.074  1.00  0.00     0.169 HD
ENDBRANCH  32  35
ENDBRANCH  28  29
ENDBRANCH   1  28
TORSDOF 7
ENDMDL
MODEL 3
REMARK VINA RESULT:      -8.2      2.834     10.097
REMARK  7 active torsions:
REMARK  status: ('A' for Active; 'I' for Inactive)
REMARK       I    between atoms: C_2  and  N_3 
REMARK    1  A    between atoms: N_3  and  C_4 
REMARK    2  A    between atoms: C_7  and  C_8 
REMARK    3  A    between atoms: C_8  and  N_9 
REMARK    4  A    between atoms: C_18  and  C_19 
REMARK    5  A    between atoms: C_19  and  N_20 
REMARK    6  A    between atoms: C_24  and  O_25 
REMARK    7  A    between atoms: O_25  and  C_26 
ROOT
HETATM    1  N   UNL     1      39.978 -10.585   4.602  1.00  0.00    -0.061 N 
HETATM    2  H   UNL     1      40.706  -9.994   5.018  1.00  0.00     0.280 HD
HETATM    3  C   UNL     1      40.675 -11.286   3.457  1.00  0.00     0.276 C 
HETATM    4  C   UNL     1      39.879 -12.347   2.752  1.00  0.00     0.002 A 
HETATM    5  C   UNL     1      38.699 -12.017   2.083  1.00  0.00     0.076 A 
HETATM    6  O   UNL     1      38.250 -10.727   2.042  1.00  0.00    -0.349 OA
HETATM    7  C   UNL     1      37.786 -10.278   3.321  1.00  0.00     0.203 C 
HETATM    8  C   UNL     1      38.907  -9.610   4.126  1.00  0.00     0.262 C 
HETATM    9  C   UNL     1      40.333 -13.678   2.695  1.00  0.00     0.020 A 
HETATM   10  C   UNL     1      39.616 -14.668   1.993  1.00  0.00    -0.032 A 
HETATM   11  C   UNL     1      38.442 -14.298   1.323  1.00  0.00     0.011 A 
HETATM   12  C   UNL     1      37.994 -12.975   1.359  1.00  0.00     0.038 A 
ENDROOT
BRANCH  10  13
HETATM   13  C   UNL     1      40.112 -16.095   1.951  1.00  0.00     0.273 C 
BRANCH  13  14
HETATM   14  N   UNL     1      41.549 -16.271   2.412  1.00  0.00    -0.067 N 
HETATM   15  H   UNL     1      41.868 -15.349   2.737  1.00  0.00     0.280 HD
HETATM   16  C   UNL     1      41.673 -17.237   3.569  1.00  0.00     0.237 C 
HETATM   17  C   UNL     1      43.130 -17.379   3.987  1.00  0.00     0.060 C 
HETATM   18  C   UNL     1      44.000 -17.841   2.818  1.00  0.00     0.132 C 
HETATM   19  C   UNL     1      43.869 -16.828   1.680  1.00  0.00     0.060 C 
HETATM   20  C   UNL     1      42.422 -16.672   1.237  1.00  0.00     0.237 C 
BRANCH  18  21
HETATM   21  O   UNL     1      43.531 -19.096   2.309  1.00  0.00    -0.344 OA
BRANCH  21  22
HETATM   22  C   UNL     1      43.998 -20.238   2.892  1.00  0.00     0.086 A 
HETATM   23  C   UNL     1      43.988 -21.383   2.102  1.00  0.00     0.152 A 
HETATM   24  N   UNL     1      44.376 -22.607   2.521  1.00  0.00    -0.270 NA
HETATM   25  C   UNL     1      44.858 -22.686   3.779  1.00  0.00     0.116 A 
HETATM   26  C   UNL     1      44.944 -21.598   4.634  1.00  0.00     0.022 A 
HETATM   27  C   UNL     1      44.503 -20.354   4.182  1.00  0.00     0.039 A 
ENDBRANCH  21  22
ENDBRANCH  18  21
ENDBRANCH  13  14
ENDBRANCH  10  13
BRANCH   1  28
HETATM   28  C   UNL     1      39.506 -11.466   5.741  1.00  0.00     0.273 C 
BRANCH  28  29
HETATM   29  C   UNL     1      40.135 -11.174   7.077  1.00  0.00    -0.032 A 
HETATM   30  C   UNL     1      39.429 -11.313   8.279  1.00  0.00     0.011 A 
HETATM   31  C   UNL     1      40.036 -10.989   9.500  1.00  0.00     0.030 A 
HETATM   32  C   UNL     1      41.348 -10.511   9.540  1.00  0.00     0.034 A 
HETATM   33  C   UNL     1      42.065 -10.412   8.347  1.00  0.00     0.030 A 
HETATM   34  C   UNL     1      41.470 -10.749   7.130  1.00  0.00     0.011 A 
BRANCH  32  35
HETATM   35  N   UNL     1      41.905 -10.190  10.792  1.00  0.00    -0.328 N 
HETATM   36  C   UNL     1      42.827 -10.950  11.492  1.00  0.00     0.218 C 
HETATM   37  C   UNL     1      43.072 -10.447  12.893  1.00  0.00     0.117 C 
HETATM   38  O   UNL     1      43.444 -11.912  11.039  1.00  0.00    -0.274 OA
HETATM   39  H   UNL     1      41.669  -9.284  11.184  1.00  0.00     0.169 HD
ENDBRANCH  32  35
ENDBRANCH  28  29
ENDBRANCH   1  28
TORSDOF 7
ENDMDL
MODEL 4
REMARK VINA RESULT:      -8.2      2.644      8.804
REMARK  7 active torsions:
REMARK  status: ('A' for Active; 'I' for Inactive)
REMARK       I    between atoms: C_2  and  N_3 
REMARK    1  A    between atoms: N_3  and  C_4 
REMARK    2  A    between atoms: C_7  and  C_8 
REMARK    3  A    between atoms: C_8  and  N_9 
REMARK    4  A    between atoms: C_18  and  C_19 
REMARK    5  A    between atoms: C_19  and  N_20 
REMARK    6  A    between atoms: C_24  and  O_25 
REMARK    7  A    between atoms: O_25  and  C_26 
ROOT
HETATM    1  N   UNL     1      39.480  -9.911   1.989  1.00  0.00    -0.061 N 
HETATM    2  H   UNL     1      38.706  -9.682   1.356  1.00  0.00     0.280 HD
HETATM    3  C   UNL     1      38.879 -10.890   2.974  1.00  0.00     0.276 C 
HETATM    4  C   UNL     1      39.838 -11.523   3.940  1.00  0.00     0.002 A 
HETATM    5  C   UNL     1      40.540 -10.738   4.856  1.00  0.00     0.076 A 
HETATM    6  O   UNL     1      40.362  -9.384   4.904  1.00  0.00    -0.349 OA
HETATM    7  C   UNL     1      40.905  -8.728   3.751  1.00  0.00     0.203 C 
HETATM    8  C   UNL     1      39.860  -8.585   2.639  1.00  0.00     0.262 C 
HETATM    9  C   UNL     1      40.005 -12.921   3.988  1.00  0.00     0.020 A 
HETATM   10  C   UNL     1      40.866 -13.524   4.926  1.00  0.00    -0.032 A 
HETATM   11  C   UNL     1      41.545 -12.705   5.839  1.00  0.00     0.011 A 
HETATM   12  C   UNL     1      41.372 -11.319   5.810  1.00  0.00     0.038 A 
ENDROOT
BRANCH  10  13
HETATM   13  C   UNL     1      41.041 -15.026   4.957  1.00  0.00     0.273 C 
BRANCH  13  14
HETATM   14  N   UNL     1      41.638 -15.611   3.689  1.00  0.00    -0.067 N 
HETATM   15  H   UNL     1      41.286 -15.043   2.908  1.00  0.00     0.280 HD
HETATM   16  C   UNL     1      43.149 -15.536   3.671  1.00  0.00     0.237 C 
HETATM   17  C   UNL     1      43.694 -16.138   2.384  1.00  0.00     0.060 C 
HETATM   18  C   UNL     1      43.236 -17.587   2.212  1.00  0.00     0.132 C 
HETATM   19  C   UNL     1      41.707 -17.620   2.210  1.00  0.00     0.060 C 
HETATM   20  C   UNL     1      41.135 -17.029   3.489  1.00  0.00     0.237 C 
BRANCH  18  21
HETATM   21  O   UNL     1      43.663 -18.384   3.324  1.00  0.00    -0.344 OA
BRANCH  21  22
HETATM   22  C   UNL     1      43.914 -19.708   3.104  1.00  0.00     0.086 A 
HETATM   23  C   UNL     1      44.498 -20.408   4.154  1.00  0.00     0.152 A 
HETATM   24  N   UNL     1      44.850 -21.711   4.104  1.00  0.00    -0.270 NA
HETATM   25  C   UNL     1      44.551 -22.371   2.966  1.00  0.00     0.116 A 
HETATM   26  C   UNL     1      43.937 -21.774   1.876  1.00  0.00     0.022 A 
HETATM   27  C   UNL     1      43.616 -20.418   1.947  1.00  0.00     0.039 A 
ENDBRANCH  21  22
ENDBRANCH  18  21
ENDBRANCH  13  14
ENDBRANCH  10  13
BRANCH   1  28
HETATM   28  C   UNL     1      40.565 -10.453   1.081  1.00  0.00     0.273 C 
BRANCH  28  29
HETATM   29  C   UNL     1      40.156 -11.624   0.226  1.00  0.00    -0.032 A 
HETATM   30  C   UNL     1      40.752 -12.885   0.357  1.00  0.00     0.011 A 
HETATM   31  C   UNL     1      40.374 -13.939  -0.487  1.00  0.00     0.030 A 
HETATM   32  C   UNL     1      39.410 -13.747  -1.480  1.00  0.00     0.034 A 
HETATM   33  C   UNL     1      38.788 -12.503  -1.582  1.00  0.00     0.030 A 
HETATM   34  C   UNL     1      39.148 -11.455  -0.733  1.00  0.00     0.011 A 
BRANCH  32  35
HETATM   35  N   UNL     1      39.077 -14.836  -2.308  1.00  0.00    -0.328 N 
HETATM   36  C   UNL     1      39.703 -15.176  -3.496  1.00  0.00     0.218 C 
HETATM   37  C   UNL     1      38.986 -16.265  -4.255  1.00  0.00     0.117 C 
HETATM   38  O   UNL     1      40.762 -14.701  -3.903  1.00  0.00    -0.274 OA
HETATM   39  H   UNL     1      38.367 -15.475  -1.967  1.00  0.00     0.169 HD
ENDBRANCH  32  35
ENDBRANCH  28  29
ENDBRANCH   1  28
TORSDOF 7
ENDMDL
MODEL 5
REMARK VINA RESULT:      -8.1      1.987      7.323
REMARK  7 active torsions:
REMARK  status: ('A' for Active; 'I' for Inactive)
REMARK       I    between atoms: C_2  and  N_3 
REMARK    1  A    between atoms: N_3  and  C_4 
REMARK    2  A    between atoms: C_7  and  C_8 
REMARK    3  A    between atoms: C_8  and  N_9 
REMARK    4  A    between atoms: C_18  and  C_19 
REMARK    5  A    between atoms: C_19  and  N_20 
REMARK    6  A    between atoms: C_24  and  O_25 
REMARK    7  A    between atoms: O_25  and  C_26 
ROOT
HETATM    1  N   UNL     1      40.596 -15.457   0.404  1.00  0.00    -0.061 N 
HETATM    2  H   UNL     1      40.353 -16.451   0.466  1.00  0.00     0.280 HD
HETATM    3  C   UNL     1      39.283 -14.737   0.619  1.00  0.00     0.276 C 
HETATM    4  C   UNL     1      39.364 -13.241   0.734  1.00  0.00     0.002 A 
HETATM    5  C   UNL     1      39.829 -12.474  -0.335  1.00  0.00     0.076 A 
HETATM    6  O   UNL     1      40.206 -13.060  -1.510  1.00  0.00    -0.349 OA
HETATM    7  C   UNL     1      41.419 -13.812  -1.372  1.00  0.00     0.203 C 
HETATM    8  C   UNL     1      41.139 -15.275  -1.009  1.00  0.00     0.262 C 
HETATM    9  C   UNL     1      38.917 -12.577   1.893  1.00  0.00     0.020 A 
HETATM   10  C   UNL     1      38.944 -11.171   1.988  1.00  0.00    -0.032 A 
HETATM   11  C   UNL     1      39.406 -10.433   0.889  1.00  0.00     0.011 A 
HETATM   12  C   UNL     1      39.835 -11.083  -0.270  1.00  0.00     0.038 A 
ENDROOT
BRANCH  10  13
HETATM   13  C   UNL     1      38.470 -10.474   3.243  1.00  0.00     0.273 C 
BRANCH  13  14
HETATM   14  N   UNL     1      39.302 -10.775   4.477  1.00  0.00    -0.067 N 
HETATM   15  H   UNL     1      39.208  -9.963   5.101  1.00  0.00     0.280 HD
HETATM   16  C   UNL     1      38.809 -11.992   5.227  1.00  0.00     0.237 C 
HETATM   17  C   UNL     1      39.679 -12.251   6.449  1.00  0.00     0.060 C 
HETATM   18  C   UNL     1      41.146 -12.430   6.058  1.00  0.00     0.132 C 
HETATM   19  C   UNL     1      41.616 -11.171   5.327  1.00  0.00     0.060 C 
HETATM   20  C   UNL     1      40.767 -10.894   4.095  1.00  0.00     0.237 C 
BRANCH  18  21
HETATM   21  O   UNL     1      41.291 -13.519   5.137  1.00  0.00    -0.344 OA
BRANCH  21  22
HETATM   22  C   UNL     1      41.790 -14.697   5.613  1.00  0.00     0.086 A 
HETATM   23  C   UNL     1      40.857 -15.626   6.062  1.00  0.00     0.152 A 
HETATM   24  N   UNL     1      41.168 -16.826   6.598  1.00  0.00    -0.270 NA
HETATM   25  C   UNL     1      42.478 -17.147   6.636  1.00  0.00     0.116 A 
HETATM   26  C   UNL     1      43.483 -16.307   6.180  1.00  0.00     0.022 A 
HETATM   27  C   UNL     1      43.131 -15.060   5.663  1.00  0.00     0.039 A 
ENDBRANCH  21  22
ENDBRANCH  18  21
ENDBRANCH  13  14
ENDBRANCH  10  13
BRANCH   1  28
HETATM   28  C   UNL     1      41.654 -15.257   1.470  1.00  0.00     0.273 C 
BRANCH  28  29
HETATM   29  C   UNL     1      42.366 -16.510   1.905  1.00  0.00    -0.032 A 
HETATM   30  C   UNL     1      43.577 -16.917   1.328  1.00  0.00     0.011 A 
HETATM   31  C   UNL     1      44.188 -18.112   1.730  1.00  0.00     0.030 A 
HETATM   32  C   UNL     1      43.596 -18.926   2.700  1.00  0.00     0.034 A 
HETATM   33  C   UNL     1      42.413 -18.500   3.304  1.00  0.00     0.030 A 
HETATM   34  C   UNL     1      41.809 -17.301   2.920  1.00  0.00     0.011 A 
BRANCH  32  35
HETATM   35  N   UNL     1      44.247 -20.121   3.058  1.00  0.00    -0.328 N 
HETATM   36  C   UNL     1      43.968 -21.382   2.554  1.00  0.00     0.218 C 
HETATM   37  C   UNL     1      44.689 -22.487   3.283  1.00  0.00     0.117 C 
HETATM   38  O   UNL     1      43.253 -21.615   1.581  1.00  0.00    -0.274 OA
HETATM   39  H   UNL     1      45.043 -20.046   3.682  1.00  0.00     0.169 HD
ENDBRANCH  32  35
ENDBRANCH  28  29
ENDBRANCH   1  28
TORSDOF 7
ENDMDL
MODEL 6
REMARK VINA RESULT:      -8.1      3.705     10.978
REMARK  7 active torsions:
REMARK  status: ('A' for Active; 'I' for Inactive)
REMARK       I    between atoms: C_2  and  N_3 
REMARK    1  A    between atoms: N_3  and  C_4 
REMARK    2  A    between atoms: C_7  and  C_8 
REMARK    3  A    between atoms: C_8  and  N_9 
REMARK    4  A    between atoms: C_18  and  C_19 
REMARK    5  A    between atoms: C_19  and  N_20 
REMARK    6  A    between atoms: C_24  and  O_25 
REMARK    7  A    between atoms: O_25  and  C_26 
ROOT
HETATM    1  N   UNL     1      41.607  -9.589   7.689  1.00  0.00    -0.061 N 
HETATM    2  H   UNL     1      42.312  -8.893   7.954  1.00  0.00     0.280 HD
HETATM    3  C   UNL     1      41.782  -9.747   6.195  1.00  0.00     0.276 C 
HETATM    4  C   UNL     1      40.971 -10.834   5.549  1.00  0.00     0.002 A 
HETATM    5  C   UNL     1      39.576 -10.784   5.573  1.00  0.00     0.076 A 
HETATM    6  O   UNL     1      38.920  -9.743   6.168  1.00  0.00    -0.349 OA
HETATM    7  C   UNL     1      39.058  -9.765   7.595  1.00  0.00     0.203 C 
HETATM    8  C   UNL     1      40.272  -8.951   8.057  1.00  0.00     0.262 C 
HETATM    9  C   UNL     1      41.592 -11.890   4.855  1.00  0.00     0.020 A 
HETATM   10  C   UNL     1      40.835 -12.885   4.205  1.00  0.00    -0.032 A 
HETATM   11  C   UNL     1      39.437 -12.795   4.239  1.00  0.00     0.011 A 
HETATM   12  C   UNL     1      38.812 -11.741   4.910  1.00  0.00     0.038 A 
ENDROOT
BRANCH  10  13
HETATM   13  C   UNL     1      41.518 -14.017   3.472  1.00  0.00     0.273 C 
BRANCH  13  14
HETATM   14  N   UNL     1      41.787 -15.243   4.328  1.00  0.00    -0.067 N 
HETATM   15  H   UNL     1      41.459 -15.017   5.276  1.00  0.00     0.280 HD
HETATM   16  C   UNL     1      41.025 -16.460   3.854  1.00  0.00     0.237 C 
HETATM   17  C   UNL     1      41.333 -17.658   4.742  1.00  0.00     0.060 C 
HETATM   18  C   UNL     1      42.832 -17.953   4.774  1.00  0.00     0.132 C 
HETATM   19  C   UNL     1      43.566 -16.711   5.282  1.00  0.00     0.060 C 
HETATM   20  C   UNL     1      43.281 -15.500   4.407  1.00  0.00     0.237 C 
BRANCH  18  21
HETATM   21  O   UNL     1      43.323 -18.209   3.452  1.00  0.00    -0.344 OA
BRANCH  21  22
HETATM   22  C   UNL     1      43.667 -19.490   3.133  1.00  0.00     0.086 A 
HETATM   23  C   UNL     1      44.396 -20.190   4.089  1.00  0.00     0.152 A 
HETATM   24  N   UNL     1      44.853 -21.451   3.932  1.00  0.00    -0.270 NA
HETATM   25  C   UNL     1      44.517 -22.074   2.783  1.00  0.00     0.116 A 
HETATM   26  C   UNL     1      43.763 -21.478   1.784  1.00  0.00     0.022 A 
HETATM   27  C   UNL     1      43.334 -20.162   1.962  1.00  0.00     0.039 A 
ENDBRANCH  21  22
ENDBRANCH  18  21
ENDBRANCH  13  14
ENDBRANCH  10  13
BRANCH   1  28
HETATM   28  C   UNL     1      41.932 -10.802   8.536  1.00  0.00     0.273 C 
BRANCH  28  29
HETATM   29  C   UNL     1      41.960 -10.555  10.021  1.00  0.00    -0.032 A 
HETATM   30  C   UNL     1      43.018  -9.879  10.643  1.00  0.00     0.011 A 
HETATM   31  C   UNL     1      43.029  -9.705  12.034  1.00  0.00     0.030 A 
HETATM   32  C   UNL     1      41.995 -10.214  12.825  1.00  0.00     0.034 A 
HETATM   33  C   UNL     1      40.922 -10.850  12.201  1.00  0.00     0.030 A 
HETATM   34  C   UNL     1      40.898 -11.010  10.814  1.00  0.00     0.011 A 
BRANCH  32  35
HETATM   35  N   UNL     1      42.062 -10.022  14.218  1.00  0.00    -0.328 N 
HETATM   36  C   UNL     1      41.599  -8.916  14.910  1.00  0.00     0.218 C 
HETATM   37  C   UNL     1      42.002  -8.911  16.364  1.00  0.00     0.117 C 
HETATM   38  O   UNL     1      40.885  -8.031  14.440  1.00  0.00    -0.274 OA
HETATM   39  H   UNL     1      42.411 -10.796  14.774  1.00  0.00     0.169 HD
ENDBRANCH  32  35
ENDBRANCH  28  29
ENDBRANCH   1  28
TORSDOF 7
ENDMDL
MODEL 7
REMARK VINA RESULT:      -8.0      2.563      6.167
REMARK  7 active torsions:
REMARK  status: ('A' for Active; 'I' for Inactive)
REMARK       I    between atoms: C_2  and  N_3 
REMARK    1  A    between atoms: N_3  and  C_4 
REMARK    2  A    between atoms: C_7  and  C_8 
REMARK    3  A    between atoms: C_8  and  N_9 
REMARK    4  A    between atoms: C_18  and  C_19 
REMARK    5  A    between atoms: C_19  and  N_20 
REMARK    6  A    between atoms: C_24  and  O_25 
REMARK    7  A    between atoms: O_25  and  C_26 
ROOT
HETATM    1  N   UNL     1      42.677 -17.140   6.582  1.00  0.00    -0.061 N 
HETATM    2  H   UNL     1      42.054 -16.969   7.378  1.00  0.00     0.280 HD
HETATM    3  C   UNL     1      41.780 -17.757   5.532  1.00  0.00     0.276 C 
HETATM    4  C   UNL     1      42.401 -17.975   4.181  1.00  0.00     0.002 A 
HETATM    5  C   UNL     1      43.487 -18.839   4.035  1.00  0.00     0.076 A 
HETATM    6  O   UNL     1      44.000 -19.514   5.107  1.00  0.00    -0.349 OA
HETATM    7  C   UNL     1      44.672 -18.639   6.023  1.00  0.00     0.203 C 
HETATM    8  C   UNL     1      43.721 -18.119   7.107  1.00  0.00     0.262 C 
HETATM    9  C   UNL     1      41.867 -17.367   3.029  1.00  0.00     0.020 A 
HETATM   10  C   UNL     1      42.415 -17.607   1.753  1.00  0.00    -0.032 A 
HETATM   11  C   UNL     1      43.498 -18.491   1.643  1.00  0.00     0.011 A 
HETATM   12  C   UNL     1      44.023 -19.112   2.778  1.00  0.00     0.038 A 
ENDROOT
BRANCH  10  13
HETATM   13  C   UNL     1      41.836 -16.938   0.527  1.00  0.00     0.273 C 
BRANCH  13  14
HETATM   14  N   UNL     1      41.411 -15.496   0.745  1.00  0.00    -0.067 N 
HETATM   15  H   UNL     1      40.601 -15.521   1.378  1.00  0.00     0.280 HD
HETATM   16  C   UNL     1      42.488 -14.667   1.406  1.00  0.00     0.237 C 
HETATM   17  C   UNL     1      42.012 -13.233   1.596  1.00  0.00     0.060 C 
HETATM   18  C   UNL     1      41.604 -12.603   0.264  1.00  0.00     0.132 C 
HETATM   19  C   UNL     1      40.497 -13.454  -0.360  1.00  0.00     0.060 C 
HETATM   20  C   UNL     1      40.949 -14.891  -0.568  1.00  0.00     0.237 C 
BRANCH  18  21
HETATM   21  O   UNL     1      42.703 -12.617  -0.656  1.00  0.00    -0.344 OA
BRANCH  21  22
HETATM   22  C   UNL     1      42.632 -11.804  -1.749  1.00  0.00     0.086 A 
HETATM   23  C   UNL     1      42.733 -10.437  -1.510  1.00  0.00     0.152 A 
HETATM   24  N   UNL     1      42.648  -9.484  -2.463  1.00  0.00    -0.270 NA
HETATM   25  C   UNL     1      42.513  -9.916  -3.735  1.00  0.00     0.116 A 
HETATM   26  C   UNL     1      42.438 -11.256  -4.082  1.00  0.00     0.022 A 
HETATM   27  C   UNL     1      42.496 -12.215  -3.070  1.00  0.00     0.039 A 
ENDBRANCH  21  22
ENDBRANCH  18  21
ENDBRANCH  13  14
ENDBRANCH  10  13
BRANCH   1  28
HETATM   28  C   UNL     1      43.259 -15.780   6.254  1.00  0.00     0.273 C 
BRANCH  28  29
HETATM   29  C   UNL     1      42.249 -14.727   5.883  1.00  0.00    -0.032 A 
HETATM   30  C   UNL     1      42.629 -13.433   5.503  1.00  0.00     0.011 A 
HETATM   31  C   UNL     1      41.657 -12.467   5.206  1.00  0.00     0.030 A 
HETATM   32  C   UNL     1      40.296 -12.772   5.296  1.00  0.00     0.034 A 
HETATM   33  C   UNL     1      39.920 -14.072   5.633  1.00  0.00     0.030 A 
HETATM   34  C   UNL     1      40.883 -15.043   5.913  1.00  0.00     0.011 A 
BRANCH  32  35
HETATM   35  N   UNL     1      39.363 -11.761   4.999  1.00  0.00    -0.328 N 
HETATM   36  C   UNL     1      38.781 -11.528   3.763  1.00  0.00     0.218 C 
HETATM   37  C   UNL     1      37.985 -10.248   3.712  1.00  0.00     0.117 C 
HETATM   38  O   UNL     1      38.839 -12.287   2.797  1.00  0.00    -0.274 OA
HETATM   39  H   UNL     1      39.027 -11.200   5.774  1.00  0.00     0.169 HD
ENDBRANCH  32  35
ENDBRANCH  28  29
ENDBRANCH   1  28
TORSDOF 7
ENDMDL
MODEL 8
REMARK VINA RESULT:      -7.9      2.270      9.215
REMARK  7 active torsions:
REMARK  status: ('A' for Active; 'I' for Inactive)
REMARK       I    between atoms: C_2  and  N_3 
REMARK    1  A    between atoms: N_3  and  C_4 
REMARK    2  A    between atoms: C_7  and  C_8 
REMARK    3  A    between atoms: C_8  and  N_9 
REMARK    4  A    between atoms: C_18  and  C_19 
REMARK    5  A    between atoms: C_19  and  N_20 
REMARK    6  A    between atoms: C_24  and  O_25 
REMARK    7  A    between atoms: O_25  and  C_26 
ROOT
HETATM    1  N   UNL     1      40.015 -10.332   2.182  1.00  0.00    -0.061 N 
HETATM    2  H   UNL     1      40.494  -9.719   2.851  1.00  0.00     0.280 HD
HETATM    3  C   UNL     1      41.138 -11.009   1.427  1.00  0.00     0.276 C 
HETATM    4  C   UNL     1      40.728 -12.094   0.473  1.00  0.00     0.002 A 
HETATM    5  C   UNL     1      39.912 -11.802  -0.621  1.00  0.00     0.076 A 
HETATM    6  O   UNL     1      39.481 -10.527  -0.856  1.00  0.00    -0.349 OA
HETATM    7  C   UNL     1      38.524 -10.093   0.119  1.00  0.00     0.203 C 
HETATM    8  C   UNL     1      39.202  -9.391   1.301  1.00  0.00     0.262 C 
HETATM    9  C   UNL     1      41.204 -13.411   0.621  1.00  0.00     0.020 A 
HETATM   10  C   UNL     1      40.863 -14.422  -0.299  1.00  0.00    -0.032 A 
HETATM   11  C   UNL     1      40.052 -14.089  -1.393  1.00  0.00     0.011 A 
HETATM   12  C   UNL     1      39.590 -12.781  -1.558  1.00  0.00     0.038 A 
ENDROOT
BRANCH  10  13
HETATM   13  C   UNL     1      41.375 -15.833  -0.119  1.00  0.00     0.273 C 
BRANCH  13  14
HETATM   14  N   UNL     1      41.764 -16.179   1.308  1.00  0.00    -0.067 N 
HETATM   15  H   UNL     1      41.339 -15.462   1.911  1.00  0.00     0.280 HD
HETATM   16  C   UNL     1      41.229 -17.525   1.745  1.00  0.00     0.237 C 
HETATM   17  C   UNL     1      41.650 -17.823   3.177  1.00  0.00     0.060 C 
HETATM   18  C   UNL     1      43.171 -17.786   3.327  1.00  0.00     0.132 C 
HETATM   19  C   UNL     1      43.671 -16.405   2.902  1.00  0.00     0.060 C 
HETATM   20  C   UNL     1      43.270 -16.083   1.470  1.00  0.00     0.237 C 
BRANCH  18  21
HETATM   21  O   UNL     1      43.787 -18.735   2.447  1.00  0.00    -0.344 OA
BRANCH  21  22
HETATM   22  C   UNL     1      44.107 -19.962   2.952  1.00  0.00     0.086 A 
HETATM   23  C   UNL     1      44.452 -20.004   4.299  1.00  0.00     0.152 A 
HETATM   24  N   UNL     1      44.833 -21.119   4.958  1.00  0.00    -0.270 NA
HETATM   25  C   UNL     1      44.813 -22.270   4.254  1.00  0.00     0.116 A 
HETATM   26  C   UNL     1      44.450 -22.341   2.917  1.00  0.00     0.022 A 
HETATM   27  C   UNL     1      44.094 -21.165   2.256  1.00  0.00     0.039 A 
ENDBRANCH  21  22
ENDBRANCH  18  21
ENDBRANCH  13  14
ENDBRANCH  10  13
BRANCH   1  28
HETATM   28  C   UNL     1      39.147 -11.229   3.042  1.00  0.00     0.273 C 
BRANCH  28  29
HETATM   29  C   UNL     1      39.900 -12.182   3.932  1.00  0.00    -0.032 A 
HETATM   30  C   UNL     1      40.730 -11.735   4.969  1.00  0.00     0.011 A 
HETATM   31  C   UNL     1      41.448 -12.652   5.748  1.00  0.00     0.030 A 
HETATM   32  C   UNL     1      41.360 -14.025   5.498  1.00  0.00     0.034 A 
HETATM   33  C   UNL     1      40.501 -14.471   4.494  1.00  0.00     0.030 A 
HETATM   34  C   UNL     1      39.771 -13.563   3.725  1.00  0.00     0.011 A 
BRANCH  32  35
HETATM   35  N   UNL     1      42.111 -14.901   6.304  1.00  0.00    -0.328 N 
HETATM   36  C   UNL     1      43.493 -14.993   6.336  1.00  0.00     0.218 C 
HETATM   37  C   UNL     1      43.992 -16.166   7.142  1.00  0.00     0.117 C 
HETATM   38  O   UNL     1      44.271 -14.194   5.818  1.00  0.00    -0.274 OA
HETATM   39  H   UNL     1      41.601 -15.461   6.978  1.00  0.00     0.169 HD
ENDBRANCH  32  35
ENDBRANCH  28  29
ENDBRANCH   1  28
TORSDOF 7
ENDMDL
MODEL 9
REMARK VINA RESULT:      -7.8      5.024      9.165
REMARK  7 active torsions:
REMARK  status: ('A' for Active; 'I' for Inactive)
REMARK       I    between atoms: C_2  and  N_3 
REMARK    1  A    between atoms: N_3  and  C_4 
REMARK    2  A    between atoms: C_7  and  C_8 
REMARK    3  A    between atoms: C_8  and  N_9 
REMARK    4  A    between atoms: C_18  and  C_19 
REMARK    5  A    between atoms: C_19  and  N_20 
REMARK    6  A    between atoms: C_24  and  O_25 
REMARK    7  A    between atoms: O_25  and  C_26 
ROOT
HETATM    1  N   UNL     1      39.710 -13.025  -2.399  1.00  0.00    -0.061 N 
HETATM    2  H   UNL     1      39.720 -12.079  -2.796  1.00  0.00     0.280 HD
HETATM    3  C   UNL     1      40.685 -12.953  -1.244  1.00  0.00     0.276 C 
HETATM    4  C   UNL     1      40.759 -14.173  -0.370  1.00  0.00     0.002 A 
HETATM    5  C   UNL     1      41.178 -15.395  -0.897  1.00  0.00     0.076 A 
HETATM    6  O   UNL     1      41.542 -15.508  -2.209  1.00  0.00    -0.349 OA
HETATM    7  C   UNL     1      40.420 -15.381  -3.092  1.00  0.00     0.203 C 
HETATM    8  C   UNL     1      40.203 -13.927  -3.525  1.00  0.00     0.262 C 
HETATM    9  C   UNL     1      40.471 -14.099   1.007  1.00  0.00     0.020 A 
HETATM   10  C   UNL     1      40.587 -15.229   1.841  1.00  0.00    -0.032 A 
HETATM   11  C   UNL     1      41.023 -16.437   1.279  1.00  0.00     0.011 A 
HETATM   12  C   UNL     1      41.328 -16.514  -0.082  1.00  0.00     0.038 A 
ENDROOT
BRANCH  10  13
HETATM   13  C   UNL     1      40.264 -15.135   3.315  1.00  0.00     0.273 C 
BRANCH  13  14
HETATM   14  N   UNL     1      41.240 -15.872   4.216  1.00  0.00    -0.067 N 
HETATM   15  H   UNL     1      41.068 -15.536   5.173  1.00  0.00     0.280 HD
HETATM   16  C   UNL     1      41.022 -17.368   4.206  1.00  0.00     0.237 C 
HETATM   17  C   UNL     1      42.027 -18.056   5.120  1.00  0.00     0.060 C 
HETATM   18  C   UNL     1      43.463 -17.729   4.711  1.00  0.00     0.132 C 
HETATM   19  C   UNL     1      43.653 -16.212   4.758  1.00  0.00     0.060 C 
HETATM   20  C   UNL     1      42.665 -15.499   3.847  1.00  0.00     0.237 C 
BRANCH  18  21
HETATM   21  O   UNL     1      43.705 -18.132   3.357  1.00  0.00    -0.344 OA
BRANCH  21  22
HETATM   22  C   UNL     1      43.904 -19.460   3.110  1.00  0.00     0.086 A 
HETATM   23  C   UNL     1      44.550 -20.183   4.107  1.00  0.00     0.152 A 
HETATM   24  N   UNL     1      44.864 -21.494   4.021  1.00  0.00    -0.270 NA
HETATM   25  C   UNL     1      44.460 -22.137   2.906  1.00  0.00     0.116 A 
HETATM   26  C   UNL     1      43.778 -21.516   1.871  1.00  0.00     0.022 A 
HETATM   27  C   UNL     1      43.499 -20.153   1.975  1.00  0.00     0.039 A 
ENDBRANCH  21  22
ENDBRANCH  18  21
ENDBRANCH  13  14
ENDBRANCH  10  13
BRANCH   1  28
HETATM   28  C   UNL     1      38.259 -13.272  -2.039  1.00  0.00     0.273 C 
BRANCH  28  29
HETATM   29  C   UNL     1      37.308 -13.293  -3.206  1.00  0.00    -0.032 A 
HETATM   30  C   UNL     1      36.773 -14.487  -3.709  1.00  0.00     0.011 A 
HETATM   31  C   UNL     1      35.924 -14.469  -4.824  1.00  0.00     0.030 A 
HETATM   32  C   UNL     1      35.606 -13.266  -5.460  1.00  0.00     0.034 A 
HETATM   33  C   UNL     1      36.105 -12.074  -4.933  1.00  0.00     0.030 A 
HETATM   34  C   UNL     1      36.937 -12.085  -3.812  1.00  0.00     0.011 A 
BRANCH  32  35
HETATM   35  N   UNL     1      34.758 -13.307  -6.583  1.00  0.00    -0.328 N 
HETATM   36  C   UNL     1      35.051 -13.893  -7.803  1.00  0.00     0.218 C 
HETATM   37  C   UNL     1      34.029 -13.590  -8.870  1.00  0.00     0.117 C 
HETATM   38  O   UNL     1      36.008 -14.634  -8.024  1.00  0.00    -0.274 OA
HETATM   39  H   UNL     1      33.818 -12.943  -6.466  1.00  0.00     0.169 HD
ENDBRANCH  32  35
ENDBRANCH  28  29
ENDBRANCH   1  28
TORSDOF 7
ENDMDL
MODEL 10
REMARK VINA RESULT:      -7.8      3.228      8.109
REMARK  7 active torsions:
REMARK  status: ('A' for Active; 'I' for Inactive)
REMARK       I    between atoms: C_2  and  N_3 
REMARK    1  A    between atoms: N_3  and  C_4 
REMARK    2  A    between atoms: C_7  and  C_8 
REMARK    3  A    between atoms: C_8  and  N_9 
REMARK    4  A    between atoms: C_18  and  C_19 
REMARK    5  A    between atoms: C_19  and  N_20 
REMARK    6  A    between atoms: C_24  and  O_25 
REMARK    7  A    between atoms: O_25  and  C_26 
ROOT
HETATM    1  N   UNL     1      41.199 -14.286  -0.097  1.00  0.00    -0.061 N 
HETATM    2  H   UNL     1      41.489 -14.689  -0.994  1.00  0.00     0.280 HD
HETATM    3  C   UNL     1      41.424 -15.399   0.902  1.00  0.00     0.276 C 
HETATM    4  C   UNL     1      41.226 -15.037   2.347  1.00  0.00     0.002 A 
HETATM    5  C   UNL     1      39.975 -14.620   2.805  1.00  0.00     0.076 A 
HETATM    6  O   UNL     1      38.905 -14.545   1.959  1.00  0.00    -0.349 OA
HETATM    7  C   UNL     1      39.041 -13.478   1.012  1.00  0.00     0.203 C 
HETATM    8  C   UNL     1      39.722 -13.952  -0.277  1.00  0.00     0.262 C 
HETATM    9  C   UNL     1      42.273 -15.169   3.279  1.00  0.00     0.020 A 
HETATM   10  C   UNL     1      42.079 -14.878   4.644  1.00  0.00    -0.032 A 
HETATM   11  C   UNL     1      40.806 -14.474   5.071  1.00  0.00     0.011 A 
HETATM   12  C   UNL     1      39.757 -14.358   4.156  1.00  0.00     0.038 A 
ENDROOT
BRANCH  10  13
HETATM   13  C   UNL     1      43.216 -15.015   5.631  1.00  0.00     0.273 C 
BRANCH  13  14
HETATM   14  N   UNL     1      43.328 -16.390   6.268  1.00  0.00    -0.067 N 
HETATM   15  H   UNL     1      42.829 -16.339   7.166  1.00  0.00     0.280 HD
HETATM   16  C   UNL     1      42.672 -17.469   5.437  1.00  0.00     0.237 C 
HETATM   17  C   UNL     1      42.816 -18.824   6.117  1.00  0.00     0.060 C 
HETATM   18  C   UNL     1      44.285 -19.167   6.365  1.00  0.00     0.132 C 
HETATM   19  C   UNL     1      44.906 -18.068   7.228  1.00  0.00     0.060 C 
HETATM   20  C   UNL     1      44.782 -16.703   6.568  1.00  0.00     0.237 C 
BRANCH  18  21
HETATM   21  O   UNL     1      45.013 -19.180   5.130  1.00  0.00    -0.344 OA
BRANCH  21  22
HETATM   22  C   UNL     1      44.781 -20.206   4.261  1.00  0.00     0.086 A 
HETATM   23  C   UNL     1      44.940 -21.492   4.767  1.00  0.00     0.152 A 
HETATM   24  N   UNL     1      44.789 -22.623   4.046  1.00  0.00    -0.270 NA
HETATM   25  C   UNL     1      44.400 -22.471   2.762  1.00  0.00     0.116 A 
HETATM   26  C   UNL     1      44.180 -21.235   2.173  1.00  0.00     0.022 A 
HETATM   27  C   UNL     1      44.377 -20.084   2.936  1.00  0.00     0.039 A 
ENDBRANCH  21  22
ENDBRANCH  18  21
ENDBRANCH  13  14
ENDBRANCH  10  13
BRANCH   1  28
HETATM   28  C   UNL     1      42.065 -13.053   0.065  1.00  0.00     0.273 C 
BRANCH  28  29
HETATM   29  C   UNL     1      42.236 -12.226  -1.181  1.00  0.00    -0.032 A 
HETATM   30  C   UNL     1      42.284 -10.826  -1.145  1.00  0.00     0.011 A 
HETATM   31  C   UNL     1      42.400 -10.088  -2.331  1.00  0.00     0.030 A 
HETATM   32  C   UNL     1      42.458 -10.733  -3.570  1.00  0.00     0.034 A 
HETATM   33  C   UNL     1      42.452 -12.128  -3.602  1.00  0.00     0.030 A 
HETATM   34  C   UNL     1      42.353 -12.867  -2.422  1.00  0.00     0.011 A 
BRANCH  32  35
HETATM   35  N   UNL     1      42.562  -9.944  -4.730  1.00  0.00    -0.328 N 
HETATM   36  C   UNL     1      41.631  -9.873  -5.753  1.00  0.00     0.218 C 
HETATM   37  C   UNL     1      42.123  -9.104  -6.954  1.00  0.00     0.117 C 
HETATM   38  O   UNL     1      40.490 -10.331  -5.708  1.00  0.00    -0.274 OA
HETATM   39  H   UNL     1      43.354  -9.312  -4.789  1.00  0.00     0.169 HD
ENDBRANCH  32  35
ENDBRANCH  28  29
ENDBRANCH   1  28
TORSDOF 7
ENDMDL
