MODEL 1
REMARK VINA RESULT:      -7.5      0.000      0.000
REMARK  6 active torsions:
REMARK  status: ('A' for Active; 'I' for Inactive)
REMARK    1  A    between atoms: C_2  and  N_3 
REMARK    2  A    between atoms: C_2  and  C_18 
REMARK    3  A    between atoms: N_3  and  C_6 
REMARK    4  A    between atoms: C_6  and  C_7 
REMARK    5  A    between atoms: C_10  and  N_11 
REMARK       I    between atoms: N_11  and  C_12 
REMARK    6  A    between atoms: C_12  and  O_13 
ROOT
HETATM    1  N   UNL     1      44.082 -14.736   7.512  1.00  0.00    -0.063 N 
HETATM    2  H   UNL     1      43.395 -14.565   8.258  1.00  0.00     0.278 HD
HETATM    3  H   UNL     1      44.642 -15.526   7.850  1.00  0.00     0.278 HD
ENDROOT
BRANCH   1   4
HETATM    4  C   UNL     1      43.338 -15.130   6.269  1.00  0.00     0.216 C 
HETATM    5  C   UNL     1      43.529 -14.072   5.182  1.00  0.00     0.045 C 
BRANCH   4   6
HETATM    6  C   UNL     1      43.782 -16.495   5.801  1.00  0.00    -0.009 A 
HETATM    7  C   UNL     1      44.573 -17.294   6.621  1.00  0.00     0.126 A 
HETATM    8  N   UNL     1      45.037 -18.518   6.312  1.00  0.00    -0.259 NA
HETATM    9  C   UNL     1      44.676 -19.008   5.097  1.00  0.00     0.074 A 
HETATM   10  C   UNL     1      43.884 -18.289   4.204  1.00  0.00     0.034 A 
HETATM   11  C   UNL     1      45.041 -20.284   4.578  1.00  0.00     0.040 A 
HETATM   12  S   UNL     1      43.607 -19.179   2.761  1.00  0.00    -0.100 SA
HETATM   13  C   UNL     1      43.424 -17.007   4.546  1.00  0.00     0.032 A 
HETATM   14  C   UNL     1      44.527 -20.507   3.321  1.00  0.00     0.053 A 
ENDBRANCH   4   6
ENDBRANCH   1   4
BRANCH   1  15
HETATM   15  C   UNL     1      44.954 -13.529   7.423  1.00  0.00     0.271 C 
BRANCH  15  16
HETATM   16  C   UNL     1      44.669 -12.569   8.543  1.00  0.00    -0.033 A 
HETATM   17  C   UNL     1      43.527 -11.757   8.517  1.00  0.00     0.011 A 
HETATM   18  C   UNL     1      43.269 -10.847   9.553  1.00  0.00     0.030 A 
HETATM   19  C   UNL     1      44.138 -10.735  10.637  1.00  0.00     0.036 A 
HETATM   20  C   UNL     1      45.272 -11.557  10.666  1.00  0.00     0.030 A 
HETATM   21  C   UNL     1      45.541 -12.461   9.632  1.00  0.00     0.011 A 
BRANCH  19  22
HETATM   22  N   UNL     1      43.963  -9.865  11.725  1.00  0.00    -0.303 N 
HETATM   23  C   UNL     1      43.338 -10.009  12.935  1.00  0.00     0.364 C 
HETATM   24  O   UNL     1      43.350  -9.087  13.744  1.00  0.00    -0.238 OA
HETATM   25  H   UNL     1      44.353  -8.933  11.644  1.00  0.00     0.171 HD
BRANCH  23  26
HETATM   26  O   UNL     1      42.712 -11.194  13.139  1.00  0.00    -0.309 OA
HETATM   27  C   UNL     1      41.295 -11.144  12.951  1.00  0.00     0.215 C 
ENDBRANCH  23  26
ENDBRANCH  19  22
ENDBRANCH  15  16
ENDBRANCH   1  15
TORSDOF 6
ENDMDL
MODEL 2
REMARK VINA RESULT:      -7.5      5.426      8.881
REMARK  6 active torsions:
REMARK  status: ('A' for Active; 'I' for Inactive)
REMARK    1  A    between atoms: C_2  and  N_3 
REMARK    2  A    between atoms: C_2  and  C_18 
REMARK    3  A    between atoms: N_3  and  C_6 
REMARK    4  A    between atoms: C_6  and  C_7 
REMARK    5  A    between atoms: C_10  and  N_11 
REMARK       I    between atoms: N_11  and  C_12 
REMARK    6  A    between atoms: C_12  and  O_13 
ROOT
HETATM    1  N   UNL     1      41.622 -14.613   0.834  1.00  0.00    -0.063 N 
HETATM    2  H   UNL     1      41.370 -13.943   0.096  1.00  0.00     0.278 HD
HETATM    3  H   UNL     1      42.633 -14.494   0.959  1.00  0.00     0.278 HD
ENDROOT
BRANCH   1   4
HETATM    4  C   UNL     1      40.900 -14.224   2.091  1.00  0.00     0.216 C 
HETATM    5  C   UNL     1      39.600 -15.017   2.221  1.00  0.00     0.045 C 
BRANCH   4   6
HETATM    6  C   UNL     1      41.794 -14.419   3.292  1.00  0.00    -0.009 A 
HETATM    7  C   UNL     1      42.913 -13.612   3.472  1.00  0.00     0.126 A 
HETATM    8  N   UNL     1      43.786 -13.697   4.491  1.00  0.00    -0.259 NA
HETATM    9  C   UNL     1      43.525 -14.646   5.427  1.00  0.00     0.074 A 
HETATM   10  C   UNL     1      42.429 -15.501   5.343  1.00  0.00     0.034 A 
HETATM   11  C   UNL     1      44.307 -14.894   6.593  1.00  0.00     0.040 A 
HETATM   12  S   UNL     1      42.379 -16.584   6.676  1.00  0.00    -0.100 SA
HETATM   13  C   UNL     1      41.540 -15.401   4.260  1.00  0.00     0.032 A 
HETATM   14  C   UNL     1      43.796 -15.917   7.359  1.00  0.00     0.053 A 
ENDBRANCH   4   6
ENDBRANCH   1   4
BRANCH   1  15
HETATM   15  C   UNL     1      41.361 -15.982   0.302  1.00  0.00     0.271 C 
BRANCH  15  16
HETATM   16  C   UNL     1      42.207 -17.008   1.001  1.00  0.00    -0.033 A 
HETATM   17  C   UNL     1      43.584 -16.809   1.168  1.00  0.00     0.011 A 
HETATM   18  C   UNL     1      44.378 -17.774   1.804  1.00  0.00     0.030 A 
HETATM   19  C   UNL     1      43.815 -18.951   2.293  1.00  0.00     0.036 A 
HETATM   20  C   UNL     1      42.437 -19.143   2.136  1.00  0.00     0.030 A 
HETATM   21  C   UNL     1      41.639 -18.188   1.494  1.00  0.00     0.011 A 
BRANCH  19  22
HETATM   22  N   UNL     1      44.522 -19.970   2.952  1.00  0.00    -0.303 N 
HETATM   23  C   UNL     1      44.655 -20.299   4.275  1.00  0.00     0.364 C 
HETATM   24  O   UNL     1      45.321 -21.277   4.598  1.00  0.00    -0.238 OA
HETATM   25  H   UNL     1      45.059 -20.610   2.379  1.00  0.00     0.171 HD
BRANCH  23  26
HETATM   26  O   UNL     1      44.037 -19.472   5.153  1.00  0.00    -0.309 OA
HETATM   27  C   UNL     1      43.858 -20.035   6.455  1.00  0.00     0.215 C 
ENDBRANCH  23  26
ENDBRANCH  19  22
ENDBRANCH  15  16
ENDBRANCH   1  15
TORSDOF 6
ENDMDL
MODEL 3
REMARK VINA RESULT:      -7.4      6.422      8.958
REMARK  6 active torsions:
REMARK  status: ('A' for Active; 'I' for Inactive)
REMARK    1  A    between atoms: C_2  and  N_3 
REMARK    2  A    between atoms: C_2  and  C_18 
REMARK    3  A    between atoms: N_3  and  C_6 
REMARK    4  A    between atoms: C_6  and  C_7 
REMARK    5  A    between atoms: C_10  and  N_11 
REMARK       I    between atoms: N_11  and  C_12 
REMARK    6  A    between atoms: C_12  and  O_13 
ROOT
HETATM    1  N   UNL     1      41.649 -16.264   5.253  1.00  0.00    -0.063 N 
HETATM    2  H   UNL     1      41.256 -17.173   4.972  1.00  0.00     0.278 HD
HETATM    3  H   UNL     1      41.423 -16.180   6.250  1.00  0.00     0.278 HD
ENDROOT
BRANCH   1   4
HETATM    4  C   UNL     1      43.138 -16.317   5.068  1.00  0.00     0.216 C 
HETATM    5  C   UNL     1      43.843 -15.738   6.295  1.00  0.00     0.045 C 
BRANCH   4   6
HETATM    6  C   UNL     1      43.583 -17.731   4.786  1.00  0.00    -0.009 A 
HETATM    7  C   UNL     1      44.195 -18.486   5.783  1.00  0.00     0.126 A 
HETATM    8  N   UNL     1      44.642 -19.746   5.649  1.00  0.00    -0.259 NA
HETATM    9  C   UNL     1      44.455 -20.325   4.434  1.00  0.00     0.074 A 
HETATM   10  C   UNL     1      43.849 -19.657   3.372  1.00  0.00     0.034 A 
HETATM   11  C   UNL     1      44.835 -21.652   4.082  1.00  0.00     0.040 A 
HETATM   12  S   UNL     1      43.760 -20.656   1.977  1.00  0.00    -0.100 SA
HETATM   13  C   UNL     1      43.403 -18.335   3.534  1.00  0.00     0.032 A 
HETATM   14  C   UNL     1      44.514 -21.963   2.780  1.00  0.00     0.053 A 
ENDBRANCH   4   6
ENDBRANCH   1   4
BRANCH   1  15
HETATM   15  C   UNL     1      40.912 -15.208   4.500  1.00  0.00     0.271 C 
BRANCH  15  16
HETATM   16  C   UNL     1      41.075 -15.385   3.017  1.00  0.00    -0.033 A 
HETATM   17  C   UNL     1      40.635 -16.553   2.382  1.00  0.00     0.011 A 
HETATM   18  C   UNL     1      40.802 -16.727   1.000  1.00  0.00     0.030 A 
HETATM   19  C   UNL     1      41.404 -15.738   0.225  1.00  0.00     0.036 A 
HETATM   20  C   UNL     1      41.832 -14.566   0.860  1.00  0.00     0.030 A 
HETATM   21  C   UNL     1      41.677 -14.389   2.240  1.00  0.00     0.011 A 
BRANCH  19  22
HETATM   22  N   UNL     1      41.608 -15.813  -1.162  1.00  0.00    -0.303 N 
HETATM   23  C   UNL     1      40.916 -15.303  -2.229  1.00  0.00     0.364 C 
HETATM   24  O   UNL     1      41.325 -15.490  -3.370  1.00  0.00    -0.238 OA
HETATM   25  H   UNL     1      42.407 -16.343  -1.488  1.00  0.00     0.171 HD
BRANCH  23  26
HETATM   26  O   UNL     1      39.779 -14.629  -1.928  1.00  0.00    -0.309 OA
HETATM   27  C   UNL     1      39.862 -13.219  -2.149  1.00  0.00     0.215 C 
ENDBRANCH  23  26
ENDBRANCH  19  22
ENDBRANCH  15  16
ENDBRANCH   1  15
TORSDOF 6
ENDMDL
MODEL 4
REMARK VINA RESULT:      -7.4      5.582      9.024
REMARK  6 active torsions:
REMARK  status: ('A' for Active; 'I' for Inactive)
REMARK    1  A    between atoms: C_2  and  N_3 
REMARK    2  A    between atoms: C_2  and  C_18 
REMARK    3  A    between atoms: N_3  and  C_6 
REMARK    4  A    between atoms: C_6  and  C_7 
REMARK    5  A    between atoms: C_10  and  N_11 
REMARK       I    between atoms: N_11  and  C_12 
REMARK    6  A    between atoms: C_12  and  O_13 
ROOT
HETATM    1  N   UNL     1      43.043 -18.819   5.608  1.00  0.00    -0.063 N 
HETATM    2  H   UNL     1      42.861 -19.711   6.087  1.00  0.00     0.278 HD
HETATM    3  H   UNL     1      42.119 -18.494   5.303  1.00  0.00     0.278 HD
ENDROOT
BRANCH   1   4
HETATM    4  C   UNL     1      43.621 -17.858   6.605  1.00  0.00     0.216 C 
HETATM    5  C   UNL     1      45.146 -17.952   6.607  1.00  0.00     0.045 C 
BRANCH   4   6
HETATM    6  C   UNL     1      43.150 -16.453   6.315  1.00  0.00    -0.009 A 
HETATM    7  C   UNL     1      44.048 -15.391   6.357  1.00  0.00     0.126 A 
HETATM    8  N   UNL     1      43.747 -14.100   6.129  1.00  0.00    -0.259 NA
HETATM    9  C   UNL     1      42.453 -13.832   5.814  1.00  0.00     0.074 A 
HETATM   10  C   UNL     1      41.478 -14.825   5.741  1.00  0.00     0.034 A 
HETATM   11  C   UNL     1      41.924 -12.542   5.518  1.00  0.00     0.040 A 
HETATM   12  S   UNL     1      39.948 -14.165   5.321  1.00  0.00    -0.100 SA
HETATM   13  C   UNL     1      41.816 -16.163   5.997  1.00  0.00     0.032 A 
HETATM   14  C   UNL     1      40.578 -12.579   5.231  1.00  0.00     0.053 A 
ENDBRANCH   4   6
ENDBRANCH   1   4
BRANCH   1  15
HETATM   15  C   UNL     1      43.870 -19.121   4.404  1.00  0.00     0.271 C 
BRANCH  15  16
HETATM   16  C   UNL     1      43.342 -18.410   3.190  1.00  0.00    -0.033 A 
HETATM   17  C   UNL     1      44.184 -18.112   2.110  1.00  0.00     0.011 A 
HETATM   18  C   UNL     1      43.696 -17.432   0.985  1.00  0.00     0.030 A 
HETATM   19  C   UNL     1      42.360 -17.042   0.910  1.00  0.00     0.036 A 
HETATM   20  C   UNL     1      41.518 -17.352   1.985  1.00  0.00     0.030 A 
HETATM   21  C   UNL     1      41.999 -18.022   3.116  1.00  0.00     0.011 A 
BRANCH  19  22
HETATM   22  N   UNL     1      41.776 -16.369  -0.174  1.00  0.00    -0.303 N 
HETATM   23  C   UNL     1      41.502 -15.047  -0.405  1.00  0.00     0.364 C 
HETATM   24  O   UNL     1      41.002 -14.702  -1.471  1.00  0.00    -0.238 OA
HETATM   25  H   UNL     1      41.477 -16.929  -0.964  1.00  0.00     0.171 HD
BRANCH  23  26
HETATM   26  O   UNL     1      41.793 -14.198   0.611  1.00  0.00    -0.309 OA
HETATM   27  C   UNL     1      40.645 -13.721   1.319  1.00  0.00     0.215 C 
ENDBRANCH  23  26
ENDBRANCH  19  22
ENDBRANCH  15  16
ENDBRANCH   1  15
TORSDOF 6
ENDMDL
MODEL 5
REMARK VINA RESULT:      -7.3      7.153     10.133
REMARK  6 active torsions:
REMARK  status: ('A' for Active; 'I' for Inactive)
REMARK    1  A    between atoms: C_2  and  N_3 
REMARK    2  A    between atoms: C_2  and  C_18 
REMARK    3  A    between atoms: N_3  and  C_6 
REMARK    4  A    between atoms: C_6  and  C_7 
REMARK    5  A    between atoms: C_10  and  N_11 
REMARK       I    between atoms: N_11  and  C_12 
REMARK    6  A    between atoms: C_12  and  O_13 
ROOT
HETATM    1  N   UNL     1      41.827 -14.299   3.419  1.00  0.00    -0.063 N 
HETATM    2  H   UNL     1      41.897 -13.272   3.420  1.00  0.00     0.278 HD
HETATM    3  H   UNL     1      41.262 -14.521   4.245  1.00  0.00     0.278 HD
ENDROOT
BRANCH   1   4
HETATM    4  C   UNL     1      41.104 -14.721   2.174  1.00  0.00     0.216 C 
HETATM    5  C   UNL     1      39.593 -14.677   2.400  1.00  0.00     0.045 C 
BRANCH   4   6
HETATM    6  C   UNL     1      41.518 -13.857   1.007  1.00  0.00    -0.009 A 
HETATM    7  C   UNL     1      42.059 -12.594   1.227  1.00  0.00     0.126 A 
HETATM    8  N   UNL     1      42.452 -11.732   0.273  1.00  0.00    -0.259 NA
HETATM    9  C   UNL     1      42.321 -12.155  -1.011  1.00  0.00     0.074 A 
HETATM   10  C   UNL     1      41.795 -13.404  -1.338  1.00  0.00     0.034 A 
HETATM   11  C   UNL     1      42.690 -11.413  -2.169  1.00  0.00     0.040 A 
HETATM   12  S   UNL     1      41.761 -13.639  -3.039  1.00  0.00    -0.100 SA
HETATM   13  C   UNL     1      41.378 -14.280  -0.323  1.00  0.00     0.032 A 
HETATM   14  C   UNL     1      42.443 -12.100  -3.336  1.00  0.00     0.053 A 
ENDBRANCH   4   6
ENDBRANCH   1   4
BRANCH   1  15
HETATM   15  C   UNL     1      43.204 -14.839   3.616  1.00  0.00     0.271 C 
BRANCH  15  16
HETATM   16  C   UNL     1      43.286 -16.281   3.200  1.00  0.00    -0.033 A 
HETATM   17  C   UNL     1      42.749 -17.292   4.009  1.00  0.00     0.011 A 
HETATM   18  C   UNL     1      42.841 -18.639   3.630  1.00  0.00     0.030 A 
HETATM   19  C   UNL     1      43.463 -19.005   2.438  1.00  0.00     0.036 A 
HETATM   20  C   UNL     1      43.988 -17.991   1.626  1.00  0.00     0.030 A 
HETATM   21  C   UNL     1      43.908 -16.645   2.001  1.00  0.00     0.011 A 
BRANCH  19  22
HETATM   22  N   UNL     1      43.596 -20.321   1.968  1.00  0.00    -0.303 N 
HETATM   23  C   UNL     1      44.342 -21.387   2.396  1.00  0.00     0.364 C 
HETATM   24  O   UNL     1      44.258 -22.465   1.818  1.00  0.00    -0.238 OA
HETATM   25  H   UNL     1      43.059 -20.580   1.149  1.00  0.00     0.171 HD
BRANCH  23  26
HETATM   26  O   UNL     1      45.162 -21.148   3.449  1.00  0.00    -0.309 OA
HETATM   27  C   UNL     1      44.819 -21.875   4.631  1.00  0.00     0.215 C 
ENDBRANCH  23  26
ENDBRANCH  19  22
ENDBRANCH  15  16
ENDBRANCH   1  15
TORSDOF 6
ENDMDL
MODEL 6
REMARK VINA RESULT:      -7.3      7.070     10.071
REMARK  6 active torsions:
REMARK  status: ('A' for Active; 'I' for Inactive)
REMARK    1  A    between atoms: C_2  and  N_3 
REMARK    2  A    between atoms: C_2  and  C_18 
REMARK    3  A    between atoms: N_3  and  C_6 
REMARK    4  A    between atoms: C_6  and  C_7 
REMARK    5  A    between atoms: C_10  and  N_11 
REMARK       I    between atoms: N_11  and  C_12 
REMARK    6  A    between atoms: C_12  and  O_13 
ROOT
HETATM    1  N   UNL     1      42.259 -14.234   2.662  1.00  0.00    -0.063 N 
HETATM    2  H   UNL     1      42.717 -14.296   1.743  1.00  0.00     0.278 HD
HETATM    3  H   UNL     1      42.259 -13.233   2.885  1.00  0.00     0.278 HD
ENDROOT
BRANCH   1   4
HETATM    4  C   UNL     1      40.849 -14.728   2.520  1.00  0.00     0.216 C 
HETATM    5  C   UNL     1      39.940 -14.029   3.531  1.00  0.00     0.045 C 
BRANCH   4   6
HETATM    6  C   UNL     1      40.362 -14.531   1.105  1.00  0.00    -0.009 A 
HETATM    7  C   UNL     1      39.199 -13.808   0.857  1.00  0.00     0.126 A 
HETATM    8  N   UNL     1      38.663 -13.576  -0.353  1.00  0.00    -0.259 NA
HETATM    9  C   UNL     1      39.339 -14.081  -1.417  1.00  0.00     0.074 A 
HETATM   10  C   UNL     1      40.516 -14.815  -1.277  1.00  0.00     0.034 A 
HETATM   11  C   UNL     1      38.960 -13.938  -2.783  1.00  0.00     0.040 A 
HETATM   12  S   UNL     1      41.125 -15.312  -2.805  1.00  0.00    -0.100 SA
HETATM   13  C   UNL     1      41.048 -15.056  -0.000  1.00  0.00     0.032 A 
HETATM   14  C   UNL     1      39.841 -14.555  -3.641  1.00  0.00     0.053 A 
ENDBRANCH   4   6
ENDBRANCH   1   4
BRANCH   1  15
HETATM   15  C   UNL     1      43.128 -14.947   3.643  1.00  0.00     0.271 C 
BRANCH  15  16
HETATM   16  C   UNL     1      43.335 -16.381   3.243  1.00  0.00    -0.033 A 
HETATM   17  C   UNL     1      43.879 -16.706   1.993  1.00  0.00     0.011 A 
HETATM   18  C   UNL     1      44.055 -18.044   1.612  1.00  0.00     0.030 A 
HETATM   19  C   UNL     1      43.700 -19.083   2.470  1.00  0.00     0.036 A 
HETATM   20  C   UNL     1      43.169 -18.755   3.724  1.00  0.00     0.030 A 
HETATM   21  C   UNL     1      42.981 -17.423   4.108  1.00  0.00     0.011 A 
BRANCH  19  22
HETATM   22  N   UNL     1      43.847 -20.450   2.186  1.00  0.00    -0.303 N 
HETATM   23  C   UNL     1      44.488 -21.469   2.840  1.00  0.00     0.364 C 
HETATM   24  O   UNL     1      44.443 -22.609   2.390  1.00  0.00    -0.238 OA
HETATM   25  H   UNL     1      43.416 -20.798   1.338  1.00  0.00     0.171 HD
BRANCH  23  26
HETATM   26  O   UNL     1      45.167 -21.117   3.959  1.00  0.00    -0.309 OA
HETATM   27  C   UNL     1      44.950 -21.989   5.071  1.00  0.00     0.215 C 
ENDBRANCH  23  26
ENDBRANCH  19  22
ENDBRANCH  15  16
ENDBRANCH   1  15
TORSDOF 6
ENDMDL
MODEL 7
REMARK VINA RESULT:      -7.1      6.278      9.192
REMARK  6 active torsions:
REMARK  status: ('A' for Active; 'I' for Inactive)
REMARK    1  A    between atoms: C_2  and  N_3 
REMARK    2  A    between atoms: C_2  and  C_18 
REMARK    3  A    between atoms: N_3  and  C_6 
REMARK    4  A    between atoms: C_6  and  C_7 
REMARK    5  A    between atoms: C_10  and  N_11 
REMARK       I    between atoms: N_11  and  C_12 
REMARK    6  A    between atoms: C_12  and  O_13 
ROOT
HETATM    1  N   UNL     1      41.500 -14.844   2.383  1.00  0.00    -0.063 N 
HETATM    2  H   UNL     1      40.950 -15.563   2.871  1.00  0.00     0.278 HD
HETATM    3  H   UNL     1      40.824 -14.102   2.169  1.00  0.00     0.278 HD
ENDROOT
BRANCH   1   4
HETATM    4  C   UNL     1      42.546 -14.329   3.327  1.00  0.00     0.216 C 
HETATM    5  C   UNL     1      42.234 -12.887   3.725  1.00  0.00     0.045 C 
BRANCH   4   6
HETATM    6  C   UNL     1      42.656 -15.229   4.533  1.00  0.00    -0.009 A 
HETATM    7  C   UNL     1      41.619 -15.289   5.460  1.00  0.00     0.126 A 
HETATM    8  N   UNL     1      41.605 -16.040   6.574  1.00  0.00    -0.259 NA
HETATM    9  C   UNL     1      42.698 -16.818   6.788  1.00  0.00     0.074 A 
HETATM   10  C   UNL     1      43.788 -16.834   5.919  1.00  0.00     0.034 A 
HETATM   11  C   UNL     1      42.883 -17.700   7.891  1.00  0.00     0.040 A 
HETATM   12  S   UNL     1      45.005 -17.916   6.467  1.00  0.00    -0.100 SA
HETATM   13  C   UNL     1      43.783 -16.029   4.769  1.00  0.00     0.032 A 
HETATM   14  C   UNL     1      44.090 -18.360   7.840  1.00  0.00     0.053 A 
ENDBRANCH   4   6
ENDBRANCH   1   4
BRANCH   1  15
HETATM   15  C   UNL     1      41.980 -15.443   1.103  1.00  0.00     0.271 C 
BRANCH  15  16
HETATM   16  C   UNL     1      42.478 -16.845   1.313  1.00  0.00    -0.033 A 
HETATM   17  C   UNL     1      43.850 -17.131   1.276  1.00  0.00     0.011 A 
HETATM   18  C   UNL     1      44.315 -18.442   1.454  1.00  0.00     0.030 A 
HETATM   19  C   UNL     1      43.425 -19.491   1.678  1.00  0.00     0.036 A 
HETATM   20  C   UNL     1      42.056 -19.200   1.726  1.00  0.00     0.030 A 
HETATM   21  C   UNL     1      41.583 -17.896   1.541  1.00  0.00     0.011 A 
BRANCH  19  22
HETATM   22  N   UNL     1      43.791 -20.831   1.877  1.00  0.00    -0.303 N 
HETATM   23  C   UNL     1      44.406 -21.480   2.915  1.00  0.00     0.364 C 
HETATM   24  O   UNL     1      44.592 -22.691   2.857  1.00  0.00    -0.238 OA
HETATM   25  H   UNL     1      43.587 -21.486   1.131  1.00  0.00     0.171 HD
BRANCH  23  26
HETATM   26  O   UNL     1      44.796 -20.697   3.951  1.00  0.00    -0.309 OA
HETATM   27  C   UNL     1      44.735 -21.344   5.225  1.00  0.00     0.215 C 
ENDBRANCH  23  26
ENDBRANCH  19  22
ENDBRANCH  15  16
ENDBRANCH   1  15
TORSDOF 6
ENDMDL
MODEL 8
REMARK VINA RESULT:      -6.9      6.377      8.502
REMARK  6 active torsions:
REMARK  status: ('A' for Active; 'I' for Inactive)
REMARK    1  A    between atoms: C_2  and  N_3 
REMARK    2  A    between atoms: C_2  and  C_18 
REMARK    3  A    between atoms: N_3  and  C_6 
REMARK    4  A    between atoms: C_6  and  C_7 
REMARK    5  A    between atoms: C_10  and  N_11 
REMARK       I    between atoms: N_11  and  C_12 
REMARK    6  A    between atoms: C_12  and  O_13 
ROOT
HETATM    1  N   UNL     1      42.135 -15.069   5.175  1.00  0.00    -0.063 N 
HETATM    2  H   UNL     1      42.924 -14.447   5.397  1.00  0.00     0.278 HD
HETATM    3  H   UNL     1      42.310 -15.377   4.212  1.00  0.00     0.278 HD
ENDROOT
BRANCH   1   4
HETATM    4  C   UNL     1      42.184 -16.245   6.106  1.00  0.00     0.216 C 
HETATM    5  C   UNL     1      40.769 -16.655   6.514  1.00  0.00     0.045 C 
BRANCH   4   6
HETATM    6  C   UNL     1      42.933 -17.390   5.467  1.00  0.00    -0.009 A 
HETATM    7  C   UNL     1      43.934 -18.053   6.171  1.00  0.00     0.126 A 
HETATM    8  N   UNL     1      44.674 -19.074   5.707  1.00  0.00    -0.259 NA
HETATM    9  C   UNL     1      44.394 -19.496   4.447  1.00  0.00     0.074 A 
HETATM   10  C   UNL     1      43.408 -18.903   3.660  1.00  0.00     0.034 A 
HETATM   11  C   UNL     1      45.042 -20.569   3.770  1.00  0.00     0.040 A 
HETATM   12  S   UNL     1      43.297 -19.662   2.123  1.00  0.00    -0.100 SA
HETATM   13  C   UNL     1      42.658 -17.828   4.164  1.00  0.00     0.032 A 
HETATM   14  C   UNL     1      44.543 -20.769   2.502  1.00  0.00     0.053 A 
ENDBRANCH   4   6
ENDBRANCH   1   4
BRANCH   1  15
HETATM   15  C   UNL     1      40.894 -14.241   5.199  1.00  0.00     0.271 C 
BRANCH  15  16
HETATM   16  C   UNL     1      40.226 -14.225   3.853  1.00  0.00    -0.033 A 
HETATM   17  C   UNL     1      39.650 -13.050   3.353  1.00  0.00     0.011 A 
HETATM   18  C   UNL     1      39.010 -13.038   2.105  1.00  0.00     0.030 A 
HETATM   19  C   UNL     1      38.937 -14.194   1.329  1.00  0.00     0.036 A 
HETATM   20  C   UNL     1      39.525 -15.364   1.826  1.00  0.00     0.030 A 
HETATM   21  C   UNL     1      40.157 -15.386   3.075  1.00  0.00     0.011 A 
BRANCH  19  22
HETATM   22  N   UNL     1      38.330 -14.281   0.067  1.00  0.00    -0.303 N 
HETATM   23  C   UNL     1      38.772 -13.991  -1.197  1.00  0.00     0.364 C 
HETATM   24  O   UNL     1      38.040 -14.187  -2.162  1.00  0.00    -0.238 OA
HETATM   25  H   UNL     1      37.373 -14.614   0.032  1.00  0.00     0.171 HD
BRANCH  23  26
HETATM   26  O   UNL     1      40.020 -13.469  -1.280  1.00  0.00    -0.309 OA
HETATM   27  C   UNL     1      41.007 -14.390  -1.750  1.00  0.00     0.215 C 
ENDBRANCH  23  26
ENDBRANCH  19  22
ENDBRANCH  15  16
ENDBRANCH   1  15
TORSDOF 6
ENDMDL
MODEL 9
REMARK VINA RESULT:      -6.9      3.712      5.647
REMARK  6 active torsions:
REMARK  status: ('A' for Active; 'I' for Inactive)
REMARK    1  A    between atoms: C_2  and  N_3 
REMARK    2  A    between atoms: C_2  and  C_18 
REMARK    3  A    between atoms: N_3  and  C_6 
REMARK    4  A    between atoms: C_6  and  C_7 
REMARK    5  A    between atoms: C_10  and  N_11 
REMARK       I    between atoms: N_11  and  C_12 
REMARK    6  A    between atoms: C_12  and  O_13 
ROOT
HETATM    1  N   UNL     1      40.063 -15.731   1.886  1.00  0.00    -0.063 N 
HETATM    2  H   UNL     1      39.133 -15.653   1.452  1.00  0.00     0.278 HD
HETATM    3  H   UNL     1      39.872 -15.922   2.876  1.00  0.00     0.278 HD
ENDROOT
BRANCH   1   4
HETATM    4  C   UNL     1      40.775 -16.898   1.267  1.00  0.00     0.216 C 
HETATM    5  C   UNL     1      41.608 -16.435   0.072  1.00  0.00     0.045 C 
BRANCH   4   6
HETATM    6  C   UNL     1      41.624 -17.602   2.298  1.00  0.00    -0.009 A 
HETATM    7  C   UNL     1      41.401 -17.387   3.655  1.00  0.00     0.126 A 
HETATM    8  N   UNL     1      42.095 -17.946   4.662  1.00  0.00    -0.259 NA
HETATM    9  C   UNL     1      43.083 -18.807   4.306  1.00  0.00     0.074 A 
HETATM   10  C   UNL     1      43.384 -19.094   2.975  1.00  0.00     0.034 A 
HETATM   11  C   UNL     1      43.926 -19.519   5.208  1.00  0.00     0.040 A 
HETATM   12  S   UNL     1      44.680 -20.215   2.857  1.00  0.00    -0.100 SA
HETATM   13  C   UNL     1      42.652 -18.486   1.942  1.00  0.00     0.032 A 
HETATM   14  C   UNL     1      44.835 -20.321   4.556  1.00  0.00     0.053 A 
ENDBRANCH   4   6
ENDBRANCH   1   4
BRANCH   1  15
HETATM   15  C   UNL     1      40.722 -14.398   1.769  1.00  0.00     0.271 C 
BRANCH  15  16
HETATM   16  C   UNL     1      41.595 -14.118   2.960  1.00  0.00    -0.033 A 
HETATM   17  C   UNL     1      42.991 -14.174   2.854  1.00  0.00     0.011 A 
HETATM   18  C   UNL     1      43.806 -13.931   3.969  1.00  0.00     0.030 A 
HETATM   19  C   UNL     1      43.247 -13.620   5.207  1.00  0.00     0.036 A 
HETATM   20  C   UNL     1      41.852 -13.552   5.307  1.00  0.00     0.030 A 
HETATM   21  C   UNL     1      41.032 -13.803   4.201  1.00  0.00     0.011 A 
BRANCH  19  22
HETATM   22  N   UNL     1      43.976 -13.350   6.377  1.00  0.00    -0.303 N 
HETATM   23  C   UNL     1      44.319 -14.124   7.454  1.00  0.00     0.364 C 
HETATM   24  O   UNL     1      45.003 -13.650   8.355  1.00  0.00    -0.238 OA
HETATM   25  H   UNL     1      44.335 -12.410   6.496  1.00  0.00     0.171 HD
BRANCH  23  26
HETATM   26  O   UNL     1      43.836 -15.391   7.448  1.00  0.00    -0.309 OA
HETATM   27  C   UNL     1      44.683 -16.334   6.787  1.00  0.00     0.215 C 
ENDBRANCH  23  26
ENDBRANCH  19  22
ENDBRANCH  15  16
ENDBRANCH   1  15
TORSDOF 6
ENDMDL
MODEL 10
REMARK VINA RESULT:      -6.7      6.438     10.059
REMARK  6 active torsions:
REMARK  status: ('A' for Active; 'I' for Inactive)
REMARK    1  A    between atoms: C_2  and  N_3 
REMARK    2  A    between atoms: C_2  and  C_18 
REMARK    3  A    between atoms: N_3  and  C_6 
REMARK    4  A    between atoms: C_6  and  C_7 
REMARK    5  A    between atoms: C_10  and  N_11 
REMARK       I    between atoms: N_11  and  C_12 
REMARK    6  A    between atoms: C_12  and  O_13 
ROOT
HETATM    1  N   UNL     1      41.815 -14.422   1.687  1.00  0.00    -0.063 N 
HETATM    2  H   UNL     1      41.916 -15.068   0.892  1.00  0.00     0.278 HD
HETATM    3  H   UNL     1      42.201 -13.533   1.350  1.00  0.00     0.278 HD
ENDROOT
BRANCH   1   4
HETATM    4  C   UNL     1      40.352 -14.265   1.984  1.00  0.00     0.216 C 
HETATM    5  C   UNL     1      39.643 -15.614   1.870  1.00  0.00     0.045 C 
BRANCH   4   6
HETATM    6  C   UNL     1      40.156 -13.646   3.347  1.00  0.00    -0.009 A 
HETATM    7  C   UNL     1      39.850 -14.447   4.443  1.00  0.00     0.126 A 
HETATM    8  N   UNL     1      39.643 -14.013   5.698  1.00  0.00    -0.259 NA
HETATM    9  C   UNL     1      39.766 -12.675   5.899  1.00  0.00     0.074 A 
HETATM   10  C   UNL     1      40.073 -11.788   4.869  1.00  0.00     0.034 A 
HETATM   11  C   UNL     1      39.606 -12.007   7.148  1.00  0.00     0.040 A 
HETATM   12  S   UNL     1      40.157 -10.171   5.444  1.00  0.00    -0.100 SA
HETATM   13  C   UNL     1      40.272 -12.266   3.564  1.00  0.00     0.032 A 
HETATM   14  C   UNL     1      39.793 -10.647   7.044  1.00  0.00     0.053 A 
ENDBRANCH   4   6
ENDBRANCH   1   4
BRANCH   1  15
HETATM   15  C   UNL     1      42.677 -14.936   2.791  1.00  0.00     0.271 C 
BRANCH  15  16
HETATM   16  C   UNL     1      42.940 -16.407   2.635  1.00  0.00    -0.033 A 
HETATM   17  C   UNL     1      42.455 -17.325   3.576  1.00  0.00     0.011 A 
HETATM   18  C   UNL     1      42.715 -18.697   3.442  1.00  0.00     0.030 A 
HETATM   19  C   UNL     1      43.456 -19.181   2.365  1.00  0.00     0.036 A 
HETATM   20  C   UNL     1      43.928 -18.262   1.419  1.00  0.00     0.030 A 
HETATM   21  C   UNL     1      43.681 -16.891   1.551  1.00  0.00     0.011 A 
BRANCH  19  22
HETATM   22  N   UNL     1      43.760 -20.532   2.137  1.00  0.00    -0.303 N 
HETATM   23  C   UNL     1      44.474 -21.455   2.855  1.00  0.00     0.364 C 
HETATM   24  O   UNL     1      44.572 -22.607   2.445  1.00  0.00    -0.238 OA
HETATM   25  H   UNL     1      43.410 -20.951   1.284  1.00  0.00     0.171 HD
BRANCH  23  26
HETATM   26  O   UNL     1      45.058 -20.997   3.990  1.00  0.00    -0.309 OA
HETATM   27  C   UNL     1      45.019 -21.923   5.078  1.00  0.00     0.215 C 
ENDBRANCH  23  26
ENDBRANCH  19  22
ENDBRANCH  15  16
ENDBRANCH   1  15
TORSDOF 6
ENDMDL
