MODEL 1
REMARK VINA RESULT:      -8.2      0.000      0.000
REMARK  7 active torsions:
REMARK  status: ('A' for Active; 'I' for Inactive)
REMARK    1  A    between atoms: C_2  and  C_3 
REMARK    2  A    between atoms: C_3  and  C_4 
REMARK    3  A    between atoms: C_7  and  C_8 
REMARK    4  A    between atoms: C_14  and  C_15 
REMARK    5  A    between atoms: C_16  and  O_17 
REMARK    6  A    between atoms: O_17  and  C_18 
REMARK       I    between atoms: C_18  and  N_19 
REMARK    7  A    between atoms: C_33  and  N_34 
ROOT
HETATM    1  C   UNL     1      42.218 -14.256   3.899  1.00  0.00     0.099 A 
HETATM    2  N   UNL     1      42.974 -13.576   4.781  1.00  0.00    -0.172 NA
HETATM    3  N   UNL     1      42.325 -12.410   4.954  1.00  0.00    -0.256 N 
HETATM    4  H   UNL     1      42.695 -11.739   5.618  1.00  0.00     0.191 HD
HETATM    5  C   UNL     1      41.202 -12.315   4.200  1.00  0.00     0.175 A 
HETATM    6  C   UNL     1      41.124 -13.462   3.449  1.00  0.00     0.040 A 
HETATM    7  C   UNL     1      39.967 -13.662   2.523  1.00  0.00     0.108 A 
HETATM    8  C   UNL     1      39.047 -12.449   2.575  1.00  0.00     0.072 A 
HETATM    9  C   UNL     1      37.922 -12.441   1.553  1.00  0.00     0.021 C 
HETATM   10  N   UNL     1      36.989 -12.435   0.705  1.00  0.00    -0.096 N 
HETATM   11  C   UNL     1      39.233 -11.382   3.395  1.00  0.00     0.160 A 
HETATM   12  O   UNL     1      40.351 -11.296   4.244  1.00  0.00    -0.274 OA
ENDROOT
BRANCH   7  13
HETATM   13  C   UNL     1      40.522 -14.038   1.154  1.00  0.00    -0.010 C 
HETATM   14  C   UNL     1      41.171 -13.175   0.252  1.00  0.00     0.088 C 
HETATM   15  C   UNL     1      41.775 -13.671  -0.917  1.00  0.00     0.038 C 
HETATM   16  C   UNL     1      41.639 -15.009  -1.270  1.00  0.00     0.003 C 
HETATM   17  C   UNL     1      40.909 -15.859  -0.455  1.00  0.00     0.001 C 
HETATM   18  C   UNL     1      40.360 -15.379   0.736  1.00  0.00     0.011 C 
BRANCH  14  19
HETATM   19  O   UNL     1      41.207 -11.786   0.503  1.00  0.00    -0.261 OA
BRANCH  19  20
HETATM   20  C   UNL     1      40.752 -10.949  -0.531  1.00  0.00     0.368 C 
HETATM   21  N   UNL     1      41.712 -10.062  -0.984  1.00  0.00    -0.324 N 
HETATM   22  C   UNL     1      41.465  -9.334  -2.231  1.00  0.00     0.154 C 
HETATM   23  C   UNL     1      43.099 -10.059  -0.535  1.00  0.00     0.154 C 
HETATM   24  C   UNL     1      42.131  -7.955  -2.222  1.00  0.00     0.187 C 
HETATM   25  O   UNL     1      43.520  -8.050  -1.870  1.00  0.00    -0.388 OA
HETATM   26  C   UNL     1      43.668  -8.637  -0.568  1.00  0.00     0.187 C 
HETATM   27  O   UNL     1      39.618 -10.978  -1.003  1.00  0.00    -0.238 OA
ENDBRANCH  19  20
ENDBRANCH  14  19
ENDBRANCH   7  13
BRANCH  11  28
HETATM   28  N   UNL     1      38.411 -10.288   3.480  1.00  0.00    -0.379 N 
HETATM   29  H   UNL     1      37.526 -10.404   3.967  1.00  0.00     0.158 HD
HETATM   30  H   UNL     1      38.366  -9.739   2.627  1.00  0.00     0.158 HD
ENDBRANCH  11  28
BRANCH   1  31
HETATM   31  C   UNL     1      42.554 -15.624   3.530  1.00  0.00    -0.005 A 
HETATM   32  C   UNL     1      41.887 -16.702   4.121  1.00  0.00     0.014 A 
HETATM   33  C   UNL     1      42.107 -18.002   3.659  1.00  0.00     0.008 A 
HETATM   34  C   UNL     1      43.006 -18.249   2.610  1.00  0.00    -0.058 A 
HETATM   35  C   UNL     1      43.754 -17.177   2.108  1.00  0.00     0.008 A 
HETATM   36  C   UNL     1      43.520 -15.872   2.553  1.00  0.00     0.014 A 
BRANCH  34  37
HETATM   37  C   UNL     1      43.155 -19.666   2.096  1.00  0.00     0.042 C 
BRANCH  37  38
HETATM   38  C   UNL     1      44.473 -20.404   2.419  1.00  0.00    -0.019 C 
HETATM   39  C   UNL     1      44.456 -21.873   1.981  1.00  0.00     0.010 C 
HETATM   40  C   UNL     1      44.744 -20.334   3.926  1.00  0.00     0.010 C 
ENDBRANCH  37  38
ENDBRANCH  34  37
ENDBRANCH   1  31
TORSDOF 7
ENDMDL
MODEL 2
REMARK VINA RESULT:      -8.0      2.406      4.052
REMARK  7 active torsions:
REMARK  status: ('A' for Active; 'I' for Inactive)
REMARK    1  A    between atoms: C_2  and  C_3 
REMARK    2  A    between atoms: C_3  and  C_4 
REMARK    3  A    between atoms: C_7  and  C_8 
REMARK    4  A    between atoms: C_14  and  C_15 
REMARK    5  A    between atoms: C_16  and  O_17 
REMARK    6  A    between atoms: O_17  and  C_18 
REMARK       I    between atoms: C_18  and  N_19 
REMARK    7  A    between atoms: C_33  and  N_34 
ROOT
HETATM    1  C   UNL     1      40.575 -13.525   3.924  1.00  0.00     0.099 A 
HETATM    2  N   UNL     1      40.808 -13.406   5.245  1.00  0.00    -0.172 NA
HETATM    3  N   UNL     1      40.002 -12.404   5.641  1.00  0.00    -0.256 N 
HETATM    4  H   UNL     1      39.977 -12.156   6.623  1.00  0.00     0.191 HD
HETATM    5  C   UNL     1      39.288 -11.868   4.621  1.00  0.00     0.175 A 
HETATM    6  C   UNL     1      39.672 -12.519   3.475  1.00  0.00     0.040 A 
HETATM    7  C   UNL     1      39.034 -12.160   2.171  1.00  0.00     0.108 A 
HETATM    8  C   UNL     1      38.029 -11.035   2.379  1.00  0.00     0.072 A 
HETATM    9  C   UNL     1      37.433 -10.451   1.108  1.00  0.00     0.021 C 
HETATM   10  N   UNL     1      36.939  -9.967   0.054  1.00  0.00    -0.096 N 
HETATM   11  C   UNL     1      37.723 -10.496   3.588  1.00  0.00     0.160 A 
HETATM   12  O   UNL     1      38.371 -10.917   4.763  1.00  0.00    -0.274 OA
ENDROOT
BRANCH   7  13
HETATM   13  C   UNL     1      40.147 -11.901   1.161  1.00  0.00    -0.010 C 
HETATM   14  C   UNL     1      40.389 -12.631  -0.018  1.00  0.00     0.088 C 
HETATM   15  C   UNL     1      41.353 -12.203  -0.949  1.00  0.00     0.038 C 
HETATM   16  C   UNL     1      42.173 -11.116  -0.667  1.00  0.00     0.003 C 
HETATM   17  C   UNL     1      42.030 -10.446   0.538  1.00  0.00     0.001 C 
HETATM   18  C   UNL     1      41.033 -10.835   1.435  1.00  0.00     0.011 C 
BRANCH  14  19
HETATM   19  O   UNL     1      39.676 -13.822  -0.272  1.00  0.00    -0.261 OA
BRANCH  19  20
HETATM   20  C   UNL     1      40.244 -14.708  -1.204  1.00  0.00     0.368 C 
HETATM   21  N   UNL     1      39.470 -14.889  -2.336  1.00  0.00    -0.324 N 
HETATM   22  C   UNL     1      40.064 -15.556  -3.496  1.00  0.00     0.154 C 
HETATM   23  C   UNL     1      38.243 -14.151  -2.613  1.00  0.00     0.154 C 
HETATM   24  C   UNL     1      39.018 -16.336  -4.297  1.00  0.00     0.187 C 
HETATM   25  O   UNL     1      37.887 -15.510  -4.618  1.00  0.00    -0.388 OA
HETATM   26  C   UNL     1      37.270 -15.017  -3.419  1.00  0.00     0.187 C 
HETATM   27  O   UNL     1      41.319 -15.283  -1.052  1.00  0.00    -0.238 OA
ENDBRANCH  19  20
ENDBRANCH  14  19
ENDBRANCH   7  13
BRANCH  11  28
HETATM   28  N   UNL     1      36.807  -9.500   3.809  1.00  0.00    -0.379 N 
HETATM   29  H   UNL     1      37.079  -8.745   4.435  1.00  0.00     0.158 HD
HETATM   30  H   UNL     1      35.855  -9.832   3.921  1.00  0.00     0.158 HD
ENDBRANCH  11  28
BRANCH   1  31
HETATM   31  C   UNL     1      41.204 -14.586   3.150  1.00  0.00    -0.005 A 
HETATM   32  C   UNL     1      42.572 -14.540   2.865  1.00  0.00     0.014 A 
HETATM   33  C   UNL     1      43.199 -15.628   2.251  1.00  0.00     0.008 A 
HETATM   34  C   UNL     1      42.469 -16.773   1.900  1.00  0.00    -0.058 A 
HETATM   35  C   UNL     1      41.080 -16.759   2.084  1.00  0.00     0.008 A 
HETATM   36  C   UNL     1      40.454 -15.681   2.717  1.00  0.00     0.014 A 
BRANCH  34  37
HETATM   37  C   UNL     1      43.206 -17.954   1.305  1.00  0.00     0.042 C 
BRANCH  37  38
HETATM   38  C   UNL     1      43.845 -18.962   2.286  1.00  0.00    -0.019 C 
HETATM   39  C   UNL     1      43.553 -20.420   1.915  1.00  0.00     0.010 C 
HETATM   40  C   UNL     1      43.330 -18.693   3.704  1.00  0.00     0.010 C 
ENDBRANCH  37  38
ENDBRANCH  34  37
ENDBRANCH   1  31
TORSDOF 7
ENDMDL
MODEL 3
REMARK VINA RESULT:      -7.9      2.784      5.208
REMARK  7 active torsions:
REMARK  status: ('A' for Active; 'I' for Inactive)
REMARK    1  A    between atoms: C_2  and  C_3 
REMARK    2  A    between atoms: C_3  and  C_4 
REMARK    3  A    between atoms: C_7  and  C_8 
REMARK    4  A    between atoms: C_14  and  C_15 
REMARK    5  A    between atoms: C_16  and  O_17 
REMARK    6  A    between atoms: O_17  and  C_18 
REMARK       I    between atoms: C_18  and  N_19 
REMARK    7  A    between atoms: C_33  and  N_34 
ROOT
HETATM    1  C   UNL     1      41.317 -15.503  -1.031  1.00  0.00     0.099 A 
HETATM    2  N   UNL     1      40.776 -16.126  -2.094  1.00  0.00    -0.172 NA
HETATM    3  N   UNL     1      40.852 -15.224  -3.090  1.00  0.00    -0.256 N 
HETATM    4  H   UNL     1      40.534 -15.489  -4.015  1.00  0.00     0.191 HD
HETATM    5  C   UNL     1      41.396 -14.047  -2.693  1.00  0.00     0.175 A 
HETATM    6  C   UNL     1      41.655 -14.156  -1.349  1.00  0.00     0.040 A 
HETATM    7  C   UNL     1      42.286 -13.012  -0.623  1.00  0.00     0.108 A 
HETATM    8  C   UNL     1      42.506 -11.849  -1.582  1.00  0.00     0.072 A 
HETATM    9  C   UNL     1      42.981 -10.555  -0.938  1.00  0.00     0.021 C 
HETATM   10  N   UNL     1      43.375  -9.483  -0.404  1.00  0.00    -0.096 N 
HETATM   11  C   UNL     1      42.225 -11.888  -2.910  1.00  0.00     0.160 A 
HETATM   12  O   UNL     1      41.645 -13.023  -3.503  1.00  0.00    -0.274 OA
ENDROOT
BRANCH   7  13
HETATM   13  C   UNL     1      41.446 -12.723   0.617  1.00  0.00    -0.010 C 
HETATM   14  C   UNL     1      40.121 -12.248   0.634  1.00  0.00     0.088 C 
HETATM   15  C   UNL     1      39.398 -12.164   1.837  1.00  0.00     0.038 C 
HETATM   16  C   UNL     1      40.016 -12.432   3.053  1.00  0.00     0.003 C 
HETATM   17  C   UNL     1      41.354 -12.795   3.074  1.00  0.00     0.001 C 
HETATM   18  C   UNL     1      42.055 -12.936   1.874  1.00  0.00     0.011 C 
BRANCH  14  19
HETATM   19  O   UNL     1      39.505 -11.829  -0.565  1.00  0.00    -0.261 OA
BRANCH  19  20
HETATM   20  C   UNL     1      38.607 -12.733  -1.158  1.00  0.00     0.368 C 
HETATM   21  N   UNL     1      38.150 -12.323  -2.399  1.00  0.00    -0.324 N 
HETATM   22  C   UNL     1      37.438 -13.288  -3.241  1.00  0.00     0.154 C 
HETATM   23  C   UNL     1      38.632 -11.137  -3.096  1.00  0.00     0.154 C 
HETATM   24  C   UNL     1      36.397 -12.602  -4.129  1.00  0.00     0.187 C 
HETATM   25  O   UNL     1      36.976 -11.508  -4.860  1.00  0.00    -0.388 OA
HETATM   26  C   UNL     1      37.518 -10.533  -3.956  1.00  0.00     0.187 C 
HETATM   27  O   UNL     1      38.241 -13.789  -0.647  1.00  0.00    -0.238 OA
ENDBRANCH  19  20
ENDBRANCH  14  19
ENDBRANCH   7  13
BRANCH  11  28
HETATM   28  N   UNL     1      42.434 -10.866  -3.801  1.00  0.00    -0.379 N 
HETATM   29  H   UNL     1      43.390 -10.698  -4.104  1.00  0.00     0.158 HD
HETATM   30  H   UNL     1      41.888 -10.033  -3.607  1.00  0.00     0.158 HD
ENDBRANCH  11  28
BRANCH   1  31
HETATM   31  C   UNL     1      41.500 -16.207   0.231  1.00  0.00    -0.005 A 
HETATM   32  C   UNL     1      42.708 -16.851   0.514  1.00  0.00     0.014 A 
HETATM   33  C   UNL     1      42.932 -17.398   1.781  1.00  0.00     0.008 A 
HETATM   34  C   UNL     1      41.951 -17.321   2.780  1.00  0.00    -0.058 A 
HETATM   35  C   UNL     1      40.703 -16.778   2.447  1.00  0.00     0.008 A 
HETATM   36  C   UNL     1      40.483 -16.212   1.188  1.00  0.00     0.014 A 
BRANCH  34  37
HETATM   37  C   UNL     1      42.269 -17.862   4.158  1.00  0.00     0.042 C 
BRANCH  37  38
HETATM   38  C   UNL     1      43.758 -18.064   4.517  1.00  0.00    -0.019 C 
HETATM   39  C   UNL     1      44.167 -19.540   4.553  1.00  0.00     0.010 C 
HETATM   40  C   UNL     1      44.047 -17.430   5.882  1.00  0.00     0.010 C 
ENDBRANCH  37  38
ENDBRANCH  34  37
ENDBRANCH   1  31
TORSDOF 7
ENDMDL
MODEL 4
REMARK VINA RESULT:      -7.9      1.823      2.439
REMARK  7 active torsions:
REMARK  status: ('A' for Active; 'I' for Inactive)
REMARK    1  A    between atoms: C_2  and  C_3 
REMARK    2  A    between atoms: C_3  and  C_4 
REMARK    3  A    between atoms: C_7  and  C_8 
REMARK    4  A    between atoms: C_14  and  C_15 
REMARK    5  A    between atoms: C_16  and  O_17 
REMARK    6  A    between atoms: O_17  and  C_18 
REMARK       I    between atoms: C_18  and  N_19 
REMARK    7  A    between atoms: C_33  and  N_34 
ROOT
HETATM    1  C   UNL     1      42.059 -13.661   4.493  1.00  0.00     0.099 A 
HETATM    2  N   UNL     1      42.705 -12.548   4.887  1.00  0.00    -0.172 NA
HETATM    3  N   UNL     1      41.984 -11.537   4.369  1.00  0.00    -0.256 N 
HETATM    4  H   UNL     1      42.263 -10.584   4.571  1.00  0.00     0.191 HD
HETATM    5  C   UNL     1      40.923 -11.966   3.642  1.00  0.00     0.175 A 
HETATM    6  C   UNL     1      40.966 -13.339   3.639  1.00  0.00     0.040 A 
HETATM    7  C   UNL     1      39.899 -14.110   2.929  1.00  0.00     0.108 A 
HETATM    8  C   UNL     1      38.916 -13.149   2.272  1.00  0.00     0.072 A 
HETATM    9  C   UNL     1      37.878 -13.796   1.369  1.00  0.00     0.021 C 
HETATM   10  N   UNL     1      37.017 -14.334   0.621  1.00  0.00    -0.096 N 
HETATM   11  C   UNL     1      38.979 -11.797   2.382  1.00  0.00     0.160 A 
HETATM   12  O   UNL     1      40.018 -11.166   3.088  1.00  0.00    -0.274 OA
ENDROOT
BRANCH   7  13
HETATM   13  C   UNL     1      40.582 -15.118   2.012  1.00  0.00    -0.010 C 
HETATM   14  C   UNL     1      41.373 -14.819   0.886  1.00  0.00     0.088 C 
HETATM   15  C   UNL     1      42.075 -15.830   0.206  1.00  0.00     0.038 C 
HETATM   16  C   UNL     1      41.908 -17.165   0.556  1.00  0.00     0.003 C 
HETATM   17  C   UNL     1      41.047 -17.497   1.591  1.00  0.00     0.001 C 
HETATM   18  C   UNL     1      40.396 -16.488   2.304  1.00  0.00     0.011 C 
BRANCH  14  19
HETATM   19  O   UNL     1      41.454 -13.492   0.412  1.00  0.00    -0.261 OA
BRANCH  19  20
HETATM   20  C   UNL     1      40.915 -13.248  -0.864  1.00  0.00     0.368 C 
HETATM   21  N   UNL     1      41.622 -12.306  -1.590  1.00  0.00    -0.324 N 
HETATM   22  C   UNL     1      41.341 -12.163  -3.020  1.00  0.00     0.154 C 
HETATM   23  C   UNL     1      42.874 -11.704  -1.147  1.00  0.00     0.154 C 
HETATM   24  C   UNL     1      41.563 -10.726  -3.499  1.00  0.00     0.187 C 
HETATM   25  O   UNL     1      42.859 -10.243  -3.111  1.00  0.00    -0.388 OA
HETATM   26  C   UNL     1      42.999 -10.274  -1.682  1.00  0.00     0.187 C 
HETATM   27  O   UNL     1      39.913 -13.798  -1.314  1.00  0.00    -0.238 OA
ENDBRANCH  19  20
ENDBRANCH  14  19
ENDBRANCH   7  13
BRANCH  11  28
HETATM   28  N   UNL     1      38.096 -10.909   1.821  1.00  0.00    -0.379 N 
HETATM   29  H   UNL     1      38.071  -9.968   2.207  1.00  0.00     0.158 HD
HETATM   30  H   UNL     1      37.191 -11.310   1.602  1.00  0.00     0.158 HD
ENDBRANCH  11  28
BRANCH   1  31
HETATM   31  C   UNL     1      42.495 -14.975   4.946  1.00  0.00    -0.005 A 
HETATM   32  C   UNL     1      43.359 -15.745   4.160  1.00  0.00     0.014 A 
HETATM   33  C   UNL     1      43.890 -16.936   4.662  1.00  0.00     0.008 A 
HETATM   34  C   UNL     1      43.557 -17.384   5.949  1.00  0.00    -0.058 A 
HETATM   35  C   UNL     1      42.601 -16.666   6.678  1.00  0.00     0.008 A 
HETATM   36  C   UNL     1      42.084 -15.463   6.188  1.00  0.00     0.014 A 
BRANCH  34  37
HETATM   37  C   UNL     1      44.215 -18.643   6.476  1.00  0.00     0.042 C 
BRANCH  37  38
HETATM   38  C   UNL     1      43.822 -19.982   5.814  1.00  0.00    -0.019 C 
HETATM   39  C   UNL     1      43.682 -21.127   6.823  1.00  0.00     0.010 C 
HETATM   40  C   UNL     1      44.872 -20.363   4.765  1.00  0.00     0.010 C 
ENDBRANCH  37  38
ENDBRANCH  34  37
ENDBRANCH   1  31
TORSDOF 7
ENDMDL
MODEL 5
REMARK VINA RESULT:      -7.7      1.581      2.132
REMARK  7 active torsions:
REMARK  status: ('A' for Active; 'I' for Inactive)
REMARK    1  A    between atoms: C_2  and  C_3 
REMARK    2  A    between atoms: C_3  and  C_4 
REMARK    3  A    between atoms: C_7  and  C_8 
REMARK    4  A    between atoms: C_14  and  C_15 
REMARK    5  A    between atoms: C_16  and  O_17 
REMARK    6  A    between atoms: O_17  and  C_18 
REMARK       I    between atoms: C_18  and  N_19 
REMARK    7  A    between atoms: C_33  and  N_34 
ROOT
HETATM    1  C   UNL     1      41.623 -13.797   4.486  1.00  0.00     0.099 A 
HETATM    2  N   UNL     1      42.145 -12.789   5.209  1.00  0.00    -0.172 NA
HETATM    3  N   UNL     1      41.346 -11.738   4.949  1.00  0.00    -0.256 N 
HETATM    4  H   UNL     1      41.524 -10.859   5.422  1.00  0.00     0.191 HD
HETATM    5  C   UNL     1      40.355 -12.034   4.072  1.00  0.00     0.175 A 
HETATM    6  C   UNL     1      40.532 -13.342   3.692  1.00  0.00     0.040 A 
HETATM    7  C   UNL     1      39.568 -13.970   2.737  1.00  0.00     0.108 A 
HETATM    8  C   UNL     1      38.519 -12.950   2.314  1.00  0.00     0.072 A 
HETATM    9  C   UNL     1      37.578 -13.404   1.209  1.00  0.00     0.021 C 
HETATM   10  N   UNL     1      36.799 -13.781   0.292  1.00  0.00    -0.096 N 
HETATM   11  C   UNL     1      38.446 -11.682   2.796  1.00  0.00     0.160 A 
HETATM   12  O   UNL     1      39.396 -11.190   3.708  1.00  0.00    -0.274 OA
ENDROOT
BRANCH   7  13
HETATM   13  C   UNL     1      40.376 -14.620   1.618  1.00  0.00    -0.010 C 
HETATM   14  C   UNL     1      41.087 -13.949   0.606  1.00  0.00     0.088 C 
HETATM   15  C   UNL     1      41.919 -14.654  -0.282  1.00  0.00     0.038 C 
HETATM   16  C   UNL     1      41.963 -16.044  -0.258  1.00  0.00     0.003 C 
HETATM   17  C   UNL     1      41.185 -16.735   0.657  1.00  0.00     0.001 C 
HETATM   18  C   UNL     1      40.405 -16.033   1.578  1.00  0.00     0.011 C 
BRANCH  14  19
HETATM   19  O   UNL     1      40.957 -12.552   0.457  1.00  0.00    -0.261 OA
BRANCH  19  20
HETATM   20  C   UNL     1      41.903 -11.917  -0.367  1.00  0.00     0.368 C 
HETATM   21  N   UNL     1      41.490 -11.785  -1.681  1.00  0.00    -0.324 N 
HETATM   22  C   UNL     1      42.248 -10.904  -2.572  1.00  0.00     0.154 C 
HETATM   23  C   UNL     1      40.161 -12.146  -2.159  1.00  0.00     0.154 C 
HETATM   24  C   UNL     1      42.203 -11.393  -4.022  1.00  0.00     0.187 C 
HETATM   25  O   UNL     1      40.852 -11.629  -4.450  1.00  0.00    -0.388 OA
HETATM   26  C   UNL     1      40.228 -12.616  -3.616  1.00  0.00     0.187 C 
HETATM   27  O   UNL     1      43.000 -11.515   0.013  1.00  0.00    -0.238 OA
ENDBRANCH  19  20
ENDBRANCH  14  19
ENDBRANCH   7  13
BRANCH  11  28
HETATM   28  N   UNL     1      37.500 -10.751   2.452  1.00  0.00    -0.379 N 
HETATM   29  H   UNL     1      37.200 -10.101   3.174  1.00  0.00     0.158 HD
HETATM   30  H   UNL     1      36.759 -11.114   1.862  1.00  0.00     0.158 HD
ENDBRANCH  11  28
BRANCH   1  31
HETATM   31  C   UNL     1      42.170 -15.143   4.584  1.00  0.00    -0.005 A 
HETATM   32  C   UNL     1      41.522 -16.117   5.351  1.00  0.00     0.014 A 
HETATM   33  C   UNL     1      41.967 -17.442   5.324  1.00  0.00     0.008 A 
HETATM   34  C   UNL     1      43.071 -17.813   4.542  1.00  0.00    -0.058 A 
HETATM   35  C   UNL     1      43.781 -16.808   3.873  1.00  0.00     0.008 A 
HETATM   36  C   UNL     1      43.327 -15.486   3.881  1.00  0.00     0.014 A 
BRANCH  34  37
HETATM   37  C   UNL     1      43.469 -19.274   4.488  1.00  0.00     0.042 C 
BRANCH  37  38
HETATM   38  C   UNL     1      44.098 -19.791   3.175  1.00  0.00    -0.019 C 
HETATM   39  C   UNL     1      43.105 -19.816   2.009  1.00  0.00     0.010 C 
HETATM   40  C   UNL     1      44.649 -21.204   3.393  1.00  0.00     0.010 C 
ENDBRANCH  37  38
ENDBRANCH  34  37
ENDBRANCH   1  31
TORSDOF 7
ENDMDL
MODEL 6
REMARK VINA RESULT:      -7.6      2.371      4.554
REMARK  7 active torsions:
REMARK  status: ('A' for Active; 'I' for Inactive)
REMARK    1  A    between atoms: C_2  and  C_3 
REMARK    2  A    between atoms: C_3  and  C_4 
REMARK    3  A    between atoms: C_7  and  C_8 
REMARK    4  A    between atoms: C_14  and  C_15 
REMARK    5  A    between atoms: C_16  and  O_17 
REMARK    6  A    between atoms: O_17  and  C_18 
REMARK       I    between atoms: C_18  and  N_19 
REMARK    7  A    between atoms: C_33  and  N_34 
ROOT
HETATM    1  C   UNL     1      41.583 -15.960  -0.058  1.00  0.00     0.099 A 
HETATM    2  N   UNL     1      40.899 -16.656  -0.984  1.00  0.00    -0.172 NA
HETATM    3  N   UNL     1      40.514 -15.734  -1.885  1.00  0.00    -0.256 N 
HETATM    4  H   UNL     1      40.008 -16.037  -2.709  1.00  0.00     0.191 HD
HETATM    5  C   UNL     1      40.906 -14.479  -1.553  1.00  0.00     0.175 A 
HETATM    6  C   UNL     1      41.548 -14.565  -0.342  1.00  0.00     0.040 A 
HETATM    7  C   UNL     1      42.121 -13.331   0.280  1.00  0.00     0.108 A 
HETATM    8  C   UNL     1      41.831 -12.124  -0.603  1.00  0.00     0.072 A 
HETATM    9  C   UNL     1      42.204 -10.776  -0.006  1.00  0.00     0.021 C 
HETATM   10  N   UNL     1      42.514  -9.659   0.489  1.00  0.00    -0.096 N 
HETATM   11  C   UNL     1      41.202 -12.189  -1.806  1.00  0.00     0.160 A 
HETATM   12  O   UNL     1      40.713 -13.405  -2.312  1.00  0.00    -0.274 OA
ENDROOT
BRANCH   7  13
HETATM   13  C   UNL     1      41.622 -13.257   1.719  1.00  0.00    -0.010 C 
HETATM   14  C   UNL     1      40.279 -13.183   2.133  1.00  0.00     0.088 C 
HETATM   15  C   UNL     1      39.935 -13.273   3.493  1.00  0.00     0.038 C 
HETATM   16  C   UNL     1      40.923 -13.314   4.471  1.00  0.00     0.003 C 
HETATM   17  C   UNL     1      42.257 -13.277   4.096  1.00  0.00     0.001 C 
HETATM   18  C   UNL     1      42.598 -13.248   2.742  1.00  0.00     0.011 C 
BRANCH  14  19
HETATM   19  O   UNL     1      39.254 -12.996   1.180  1.00  0.00    -0.261 OA
BRANCH  19  20
HETATM   20  C   UNL     1      38.811 -11.676   0.986  1.00  0.00     0.368 C 
HETATM   21  N   UNL     1      38.016 -11.520  -0.136  1.00  0.00    -0.324 N 
HETATM   22  C   UNL     1      37.265 -10.273  -0.299  1.00  0.00     0.154 C 
HETATM   23  C   UNL     1      37.568 -12.622  -0.979  1.00  0.00     0.154 C 
HETATM   24  C   UNL     1      37.082  -9.913  -1.776  1.00  0.00     0.187 C 
HETATM   25  O   UNL     1      36.541 -11.019  -2.518  1.00  0.00    -0.388 OA
HETATM   26  C   UNL     1      37.413 -12.155  -2.430  1.00  0.00     0.187 C 
HETATM   27  O   UNL     1      39.089 -10.733   1.722  1.00  0.00    -0.238 OA
ENDBRANCH  19  20
ENDBRANCH  14  19
ENDBRANCH   7  13
BRANCH  11  28
HETATM   28  N   UNL     1      40.948 -11.124  -2.632  1.00  0.00    -0.379 N 
HETATM   29  H   UNL     1      40.051 -10.656  -2.529  1.00  0.00     0.158 HD
HETATM   30  H   UNL     1      41.257 -11.261  -3.588  1.00  0.00     0.158 HD
ENDBRANCH  11  28
BRANCH   1  31
HETATM   31  C   UNL     1      42.247 -16.640   1.046  1.00  0.00    -0.005 A 
HETATM   32  C   UNL     1      41.543 -16.948   2.214  1.00  0.00     0.014 A 
HETATM   33  C   UNL     1      42.140 -17.728   3.208  1.00  0.00     0.008 A 
HETATM   34  C   UNL     1      43.452 -18.203   3.057  1.00  0.00    -0.058 A 
HETATM   35  C   UNL     1      44.185 -17.790   1.938  1.00  0.00     0.008 A 
HETATM   36  C   UNL     1      43.584 -17.027   0.932  1.00  0.00     0.014 A 
BRANCH  34  37
HETATM   37  C   UNL     1      44.029 -19.106   4.128  1.00  0.00     0.042 C 
BRANCH  37  38
HETATM   38  C   UNL     1      44.775 -20.375   3.661  1.00  0.00    -0.019 C 
HETATM   39  C   UNL     1      44.068 -21.090   2.505  1.00  0.00     0.010 C 
HETATM   40  C   UNL     1      44.919 -21.347   4.837  1.00  0.00     0.010 C 
ENDBRANCH  37  38
ENDBRANCH  34  37
ENDBRANCH   1  31
TORSDOF 7
ENDMDL
MODEL 7
REMARK VINA RESULT:      -7.4      2.006      3.215
REMARK  7 active torsions:
REMARK  status: ('A' for Active; 'I' for Inactive)
REMARK    1  A    between atoms: C_2  and  C_3 
REMARK    2  A    between atoms: C_3  and  C_4 
REMARK    3  A    between atoms: C_7  and  C_8 
REMARK    4  A    between atoms: C_14  and  C_15 
REMARK    5  A    between atoms: C_16  and  O_17 
REMARK    6  A    between atoms: O_17  and  C_18 
REMARK       I    between atoms: C_18  and  N_19 
REMARK    7  A    between atoms: C_33  and  N_34 
ROOT
HETATM    1  C   UNL     1      39.650 -13.797   1.559  1.00  0.00     0.099 A 
HETATM    2  N   UNL     1      39.621 -13.112   2.717  1.00  0.00    -0.172 NA
HETATM    3  N   UNL     1      38.741 -12.117   2.500  1.00  0.00    -0.256 N 
HETATM    4  H   UNL     1      38.522 -11.483   3.260  1.00  0.00     0.191 HD
HETATM    5  C   UNL     1      38.231 -12.131   1.243  1.00  0.00     0.175 A 
HETATM    6  C   UNL     1      38.840 -13.164   0.573  1.00  0.00     0.040 A 
HETATM    7  C   UNL     1      38.462 -13.448  -0.846  1.00  0.00     0.108 A 
HETATM    8  C   UNL     1      37.421 -12.440  -1.316  1.00  0.00     0.072 A 
HETATM    9  C   UNL     1      37.076 -12.504  -2.796  1.00  0.00     0.021 C 
HETATM   10  N   UNL     1      36.790 -12.558  -4.023  1.00  0.00    -0.096 N 
HETATM   11  C   UNL     1      36.880 -11.475  -0.529  1.00  0.00     0.160 A 
HETATM   12  O   UNL     1      37.293 -11.299   0.803  1.00  0.00    -0.274 OA
ENDROOT
BRANCH   7  13
HETATM   13  C   UNL     1      39.746 -13.533  -1.663  1.00  0.00    -0.010 C 
HETATM   14  C   UNL     1      40.718 -12.523  -1.798  1.00  0.00     0.088 C 
HETATM   15  C   UNL     1      41.935 -12.773  -2.457  1.00  0.00     0.038 C 
HETATM   16  C   UNL     1      42.156 -13.987  -3.097  1.00  0.00     0.003 C 
HETATM   17  C   UNL     1      41.169 -14.961  -3.075  1.00  0.00     0.001 C 
HETATM   18  C   UNL     1      39.985 -14.734  -2.370  1.00  0.00     0.011 C 
BRANCH  14  19
HETATM   19  O   UNL     1      40.470 -11.231  -1.286  1.00  0.00    -0.261 OA
BRANCH  19  20
HETATM   20  C   UNL     1      41.456 -10.691  -0.443  1.00  0.00     0.368 C 
HETATM   21  N   UNL     1      42.035  -9.536  -0.941  1.00  0.00    -0.324 N 
HETATM   22  C   UNL     1      42.866  -8.724  -0.049  1.00  0.00     0.154 C 
HETATM   23  C   UNL     1      41.595  -8.861  -2.156  1.00  0.00     0.154 C 
HETATM   24  C   UNL     1      43.977  -8.001  -0.815  1.00  0.00     0.187 C 
HETATM   25  O   UNL     1      43.448  -7.276  -1.938  1.00  0.00    -0.388 OA
HETATM   26  C   UNL     1      42.779  -8.169  -2.840  1.00  0.00     0.187 C 
HETATM   27  O   UNL     1      41.796 -11.176   0.633  1.00  0.00    -0.238 OA
ENDBRANCH  19  20
ENDBRANCH  14  19
ENDBRANCH   7  13
BRANCH  11  28
HETATM   28  N   UNL     1      35.926 -10.570  -0.918  1.00  0.00    -0.379 N 
HETATM   29  H   UNL     1      36.247  -9.720  -1.375  1.00  0.00     0.158 HD
HETATM   30  H   UNL     1      35.178 -10.443  -0.244  1.00  0.00     0.158 HD
ENDBRANCH  11  28
BRANCH   1  31
HETATM   31  C   UNL     1      40.431 -15.020   1.437  1.00  0.00    -0.005 A 
HETATM   32  C   UNL     1      41.717 -14.988   0.888  1.00  0.00     0.014 A 
HETATM   33  C   UNL     1      42.517 -16.133   0.907  1.00  0.00     0.008 A 
HETATM   34  C   UNL     1      42.043 -17.331   1.462  1.00  0.00    -0.058 A 
HETATM   35  C   UNL     1      40.714 -17.382   1.901  1.00  0.00     0.008 A 
HETATM   36  C   UNL     1      39.918 -16.232   1.902  1.00  0.00     0.014 A 
BRANCH  34  37
HETATM   37  C   UNL     1      42.974 -18.524   1.526  1.00  0.00     0.042 C 
BRANCH  37  38
HETATM   38  C   UNL     1      43.319 -19.082   2.925  1.00  0.00    -0.019 C 
HETATM   39  C   UNL     1      43.759 -17.992   3.908  1.00  0.00     0.010 C 
HETATM   40  C   UNL     1      44.436 -20.124   2.800  1.00  0.00     0.010 C 
ENDBRANCH  37  38
ENDBRANCH  34  37
ENDBRANCH   1  31
TORSDOF 7
ENDMDL
MODEL 8
REMARK VINA RESULT:      -7.3      2.698      4.983
REMARK  7 active torsions:
REMARK  status: ('A' for Active; 'I' for Inactive)
REMARK    1  A    between atoms: C_2  and  C_3 
REMARK    2  A    between atoms: C_3  and  C_4 
REMARK    3  A    between atoms: C_7  and  C_8 
REMARK    4  A    between atoms: C_14  and  C_15 
REMARK    5  A    between atoms: C_16  and  O_17 
REMARK    6  A    between atoms: O_17  and  C_18 
REMARK       I    between atoms: C_18  and  N_19 
REMARK    7  A    between atoms: C_33  and  N_34 
ROOT
HETATM    1  C   UNL     1      41.500 -15.834   0.186  1.00  0.00     0.099 A 
HETATM    2  N   UNL     1      40.984 -16.629  -0.769  1.00  0.00    -0.172 NA
HETATM    3  N   UNL     1      40.819 -15.820  -1.831  1.00  0.00    -0.256 N 
HETATM    4  H   UNL     1      40.472 -16.216  -2.698  1.00  0.00     0.191 HD
HETATM    5  C   UNL     1      41.187 -14.540  -1.580  1.00  0.00     0.175 A 
HETATM    6  C   UNL     1      41.576 -14.484  -0.264  1.00  0.00     0.040 A 
HETATM    7  C   UNL     1      42.065 -13.192   0.308  1.00  0.00     0.108 A 
HETATM    8  C   UNL     1      42.001 -12.099  -0.752  1.00  0.00     0.072 A 
HETATM    9  C   UNL     1      42.303 -10.694  -0.257  1.00  0.00     0.021 C 
HETATM   10  N   UNL     1      42.554  -9.528   0.154  1.00  0.00    -0.096 N 
HETATM   11  C   UNL     1      41.617 -12.304  -2.039  1.00  0.00     0.160 A 
HETATM   12  O   UNL     1      41.188 -13.566  -2.484  1.00  0.00    -0.274 OA
ENDROOT
BRANCH   7  13
HETATM   13  C   UNL     1      41.298 -12.932   1.600  1.00  0.00    -0.010 C 
HETATM   14  C   UNL     1      39.901 -12.822   1.733  1.00  0.00     0.088 C 
HETATM   15  C   UNL     1      39.299 -12.733   3.001  1.00  0.00     0.038 C 
HETATM   16  C   UNL     1      40.079 -12.629   4.147  1.00  0.00     0.003 C 
HETATM   17  C   UNL     1      41.460 -12.623   4.036  1.00  0.00     0.001 C 
HETATM   18  C   UNL     1      42.057 -12.771   2.782  1.00  0.00     0.011 C 
BRANCH  14  19
HETATM   19  O   UNL     1      39.083 -12.779   0.583  1.00  0.00    -0.261 OA
BRANCH  19  20
HETATM   20  C   UNL     1      38.728 -11.502   0.113  1.00  0.00     0.368 C 
HETATM   21  N   UNL     1      38.156 -11.519  -1.147  1.00  0.00    -0.324 N 
HETATM   22  C   UNL     1      37.491 -10.307  -1.634  1.00  0.00     0.154 C 
HETATM   23  C   UNL     1      37.829 -12.736  -1.880  1.00  0.00     0.154 C 
HETATM   24  C   UNL     1      37.591 -10.182  -3.156  1.00  0.00     0.187 C 
HETATM   25  O   UNL     1      37.154 -11.386  -3.808  1.00  0.00    -0.388 OA
HETATM   26  C   UNL     1      37.956 -12.501  -3.389  1.00  0.00     0.187 C 
HETATM   27  O   UNL     1      38.902 -10.457   0.734  1.00  0.00    -0.238 OA
ENDBRANCH  19  20
ENDBRANCH  14  19
ENDBRANCH   7  13
BRANCH  11  28
HETATM   28  N   UNL     1      41.571 -11.346  -3.019  1.00  0.00    -0.379 N 
HETATM   29  H   UNL     1      42.208 -10.558  -2.933  1.00  0.00     0.158 HD
HETATM   30  H   UNL     1      40.632 -11.112  -3.323  1.00  0.00     0.158 HD
ENDBRANCH  11  28
BRANCH   1  31
HETATM   31  C   UNL     1      41.909 -16.382   1.472  1.00  0.00    -0.005 A 
HETATM   32  C   UNL     1      43.241 -16.739   1.699  1.00  0.00     0.014 A 
HETATM   33  C   UNL     1      43.656 -17.125   2.977  1.00  0.00     0.008 A 
HETATM   34  C   UNL     1      42.747 -17.173   4.043  1.00  0.00    -0.058 A 
HETATM   35  C   UNL     1      41.394 -16.927   3.776  1.00  0.00     0.008 A 
HETATM   36  C   UNL     1      40.979 -16.521   2.504  1.00  0.00     0.014 A 
BRANCH  34  37
HETATM   37  C   UNL     1      43.259 -17.526   5.424  1.00  0.00     0.042 C 
BRANCH  37  38
HETATM   38  C   UNL     1      42.891 -16.574   6.584  1.00  0.00    -0.019 C 
HETATM   39  C   UNL     1      43.557 -15.200   6.461  1.00  0.00     0.010 C 
HETATM   40  C   UNL     1      43.296 -17.211   7.918  1.00  0.00     0.010 C 
ENDBRANCH  37  38
ENDBRANCH  34  37
ENDBRANCH   1  31
TORSDOF 7
ENDMDL
MODEL 9
REMARK VINA RESULT:      -7.3      2.616      5.272
REMARK  7 active torsions:
REMARK  status: ('A' for Active; 'I' for Inactive)
REMARK    1  A    between atoms: C_2  and  C_3 
REMARK    2  A    between atoms: C_3  and  C_4 
REMARK    3  A    between atoms: C_7  and  C_8 
REMARK    4  A    between atoms: C_14  and  C_15 
REMARK    5  A    between atoms: C_16  and  O_17 
REMARK    6  A    between atoms: O_17  and  C_18 
REMARK       I    between atoms: C_18  and  N_19 
REMARK    7  A    between atoms: C_33  and  N_34 
ROOT
HETATM    1  C   UNL     1      41.528 -15.756   0.283  1.00  0.00     0.099 A 
HETATM    2  N   UNL     1      41.005 -16.552  -0.668  1.00  0.00    -0.172 NA
HETATM    3  N   UNL     1      40.836 -15.744  -1.730  1.00  0.00    -0.256 N 
HETATM    4  H   UNL     1      40.484 -16.140  -2.594  1.00  0.00     0.191 HD
HETATM    5  C   UNL     1      41.207 -14.464  -1.482  1.00  0.00     0.175 A 
HETATM    6  C   UNL     1      41.603 -14.407  -0.169  1.00  0.00     0.040 A 
HETATM    7  C   UNL     1      42.096 -13.114   0.399  1.00  0.00     0.108 A 
HETATM    8  C   UNL     1      42.028 -12.023  -0.662  1.00  0.00     0.072 A 
HETATM    9  C   UNL     1      42.335 -10.617  -0.170  1.00  0.00     0.021 C 
HETATM   10  N   UNL     1      42.589  -9.452   0.238  1.00  0.00    -0.096 N 
HETATM   11  C   UNL     1      41.637 -12.228  -1.946  1.00  0.00     0.160 A 
HETATM   12  O   UNL     1      41.204 -13.491  -2.388  1.00  0.00    -0.274 OA
ENDROOT
BRANCH   7  13
HETATM   13  C   UNL     1      41.337 -12.852   1.695  1.00  0.00    -0.010 C 
HETATM   14  C   UNL     1      39.969 -12.542   1.812  1.00  0.00     0.088 C 
HETATM   15  C   UNL     1      39.348 -12.471   3.072  1.00  0.00     0.038 C 
HETATM   16  C   UNL     1      40.098 -12.585   4.237  1.00  0.00     0.003 C 
HETATM   17  C   UNL     1      41.468 -12.780   4.151  1.00  0.00     0.001 C 
HETATM   18  C   UNL     1      42.074 -12.910   2.900  1.00  0.00     0.011 C 
BRANCH  14  19
HETATM   19  O   UNL     1      39.203 -12.278   0.656  1.00  0.00    -0.261 OA
BRANCH  19  20
HETATM   20  C   UNL     1      37.821 -12.517   0.751  1.00  0.00     0.368 C 
HETATM   21  N   UNL     1      37.057 -11.364   0.711  1.00  0.00    -0.324 N 
HETATM   22  C   UNL     1      35.610 -11.484   0.520  1.00  0.00     0.154 C 
HETATM   23  C   UNL     1      37.601 -10.032   0.472  1.00  0.00     0.154 C 
HETATM   24  C   UNL     1      34.852 -10.350   1.216  1.00  0.00     0.187 C 
HETATM   25  O   UNL     1      35.383  -9.067   0.848  1.00  0.00    -0.388 OA
HETATM   26  C   UNL     1      36.770  -8.976   1.207  1.00  0.00     0.187 C 
HETATM   27  O   UNL     1      37.313 -13.630   0.863  1.00  0.00    -0.238 OA
ENDBRANCH  19  20
ENDBRANCH  14  19
ENDBRANCH   7  13
BRANCH  11  28
HETATM   28  N   UNL     1      41.587 -11.272  -2.928  1.00  0.00    -0.379 N 
HETATM   29  H   UNL     1      42.225 -10.484  -2.846  1.00  0.00     0.158 HD
HETATM   30  H   UNL     1      40.646 -11.037  -3.227  1.00  0.00     0.158 HD
ENDBRANCH  11  28
BRANCH   1  31
HETATM   31  C   UNL     1      41.943 -16.303   1.567  1.00  0.00    -0.005 A 
HETATM   32  C   UNL     1      43.281 -16.637   1.797  1.00  0.00     0.014 A 
HETATM   33  C   UNL     1      43.699 -17.022   3.074  1.00  0.00     0.008 A 
HETATM   34  C   UNL     1      42.788 -17.092   4.138  1.00  0.00    -0.058 A 
HETATM   35  C   UNL     1      41.431 -16.869   3.868  1.00  0.00     0.008 A 
HETATM   36  C   UNL     1      41.013 -16.464   2.597  1.00  0.00     0.014 A 
BRANCH  34  37
HETATM   37  C   UNL     1      43.303 -17.442   5.518  1.00  0.00     0.042 C 
BRANCH  37  38
HETATM   38  C   UNL     1      42.966 -16.470   6.671  1.00  0.00    -0.019 C 
HETATM   39  C   UNL     1      43.704 -15.131   6.555  1.00  0.00     0.010 C 
HETATM   40  C   UNL     1      43.319 -17.122   8.011  1.00  0.00     0.010 C 
ENDBRANCH  37  38
ENDBRANCH  34  37
ENDBRANCH   1  31
TORSDOF 7
ENDMDL
MODEL 10
REMARK VINA RESULT:      -7.0      3.648      6.241
REMARK  7 active torsions:
REMARK  status: ('A' for Active; 'I' for Inactive)
REMARK    1  A    between atoms: C_2  and  C_3 
REMARK    2  A    between atoms: C_3  and  C_4 
REMARK    3  A    between atoms: C_7  and  C_8 
REMARK    4  A    between atoms: C_14  and  C_15 
REMARK    5  A    between atoms: C_16  and  O_17 
REMARK    6  A    between atoms: O_17  and  C_18 
REMARK       I    between atoms: C_18  and  N_19 
REMARK    7  A    between atoms: C_33  and  N_34 
ROOT
HETATM    1  C   UNL     1      41.196 -14.687  -0.923  1.00  0.00     0.099 A 
HETATM    2  N   UNL     1      41.291 -15.712  -1.790  1.00  0.00    -0.172 NA
HETATM    3  N   UNL     1      41.524 -15.128  -2.980  1.00  0.00    -0.256 N 
HETATM    4  H   UNL     1      41.673 -15.716  -3.792  1.00  0.00     0.191 HD
HETATM    5  C   UNL     1      41.556 -13.775  -2.904  1.00  0.00     0.175 A 
HETATM    6  C   UNL     1      41.284 -13.438  -1.601  1.00  0.00     0.040 A 
HETATM    7  C   UNL     1      41.271 -11.998  -1.198  1.00  0.00     0.108 A 
HETATM    8  C   UNL     1      41.553 -11.118  -2.409  1.00  0.00     0.072 A 
HETATM    9  C   UNL     1      41.397  -9.624  -2.179  1.00  0.00     0.021 C 
HETATM   10  N   UNL     1      41.268  -8.384  -1.987  1.00  0.00    -0.096 N 
HETATM   11  C   UNL     1      41.836 -11.593  -3.650  1.00  0.00     0.160 A 
HETATM   12  O   UNL     1      41.839 -12.971  -3.925  1.00  0.00    -0.274 OA
ENDROOT
BRANCH   7  13
HETATM   13  C   UNL     1      39.968 -11.732  -0.452  1.00  0.00    -0.010 C 
HETATM   14  C   UNL     1      38.669 -11.828  -0.983  1.00  0.00     0.088 C 
HETATM   15  C   UNL     1      37.538 -11.707  -0.156  1.00  0.00     0.038 C 
HETATM   16  C   UNL     1      37.676 -11.367   1.185  1.00  0.00     0.003 C 
HETATM   17  C   UNL     1      38.942 -11.157   1.709  1.00  0.00     0.001 C 
HETATM   18  C   UNL     1      40.067 -11.336   0.902  1.00  0.00     0.011 C 
BRANCH  14  19
HETATM   19  O   UNL     1      38.484 -12.030  -2.368  1.00  0.00    -0.261 OA
BRANCH  19  20
HETATM   20  C   UNL     1      37.842 -13.222  -2.748  1.00  0.00     0.368 C 
HETATM   21  N   UNL     1      36.944 -13.056  -3.788  1.00  0.00    -0.324 N 
HETATM   22  C   UNL     1      36.420 -14.246  -4.462  1.00  0.00     0.154 C 
HETATM   23  C   UNL     1      36.755 -11.806  -4.514  1.00  0.00     0.154 C 
HETATM   24  C   UNL     1      35.000 -14.020  -4.986  1.00  0.00     0.187 C 
HETATM   25  O   UNL     1      34.921 -12.823  -5.776  1.00  0.00    -0.388 OA
HETATM   26  C   UNL     1      35.307 -11.681  -4.996  1.00  0.00     0.187 C 
HETATM   27  O   UNL     1      38.036 -14.316  -2.225  1.00  0.00    -0.238 OA
ENDBRANCH  19  20
ENDBRANCH  14  19
ENDBRANCH   7  13
BRANCH  11  28
HETATM   28  N   UNL     1      42.116 -10.827  -4.753  1.00  0.00    -0.379 N 
HETATM   29  H   UNL     1      41.389 -10.741  -5.459  1.00  0.00     0.158 HD
HETATM   30  H   UNL     1      43.056 -10.951  -5.113  1.00  0.00     0.158 HD
ENDBRANCH  11  28
BRANCH   1  31
HETATM   31  C   UNL     1      41.037 -14.931   0.504  1.00  0.00    -0.005 A 
HETATM   32  C   UNL     1      42.158 -15.087   1.325  1.00  0.00     0.014 A 
HETATM   33  C   UNL     1      42.006 -15.174   2.712  1.00  0.00     0.008 A 
HETATM   34  C   UNL     1      40.733 -15.119   3.299  1.00  0.00    -0.058 A 
HETATM   35  C   UNL     1      39.613 -15.082   2.459  1.00  0.00     0.008 A 
HETATM   36  C   UNL     1      39.763 -14.974   1.073  1.00  0.00     0.014 A 
BRANCH  34  37
HETATM   37  C   UNL     1      40.626 -15.143   4.810  1.00  0.00     0.042 C 
BRANCH  37  38
HETATM   38  C   UNL     1      41.366 -16.275   5.558  1.00  0.00    -0.019 C 
HETATM   39  C   UNL     1      40.476 -16.996   6.576  1.00  0.00     0.010 C 
HETATM   40  C   UNL     1      42.588 -15.698   6.279  1.00  0.00     0.010 C 
ENDBRANCH  37  38
ENDBRANCH  34  37
ENDBRANCH   1  31
TORSDOF 7
ENDMDL
