MODEL 1
REMARK VINA RESULT:      -8.9      0.000      0.000
REMARK  3 active torsions:
REMARK  status: ('A' for Active; 'I' for Inactive)
REMARK    1  A    between atoms: C_3  and  C_4 
REMARK    2  A    between atoms: C_8  and  C_9 
REMARK       I    between atoms: C_9  and  N_10 
REMARK    3  A    between atoms: N_10  and  C_11 
ROOT
HETATM    1  C   UNL     1      43.974 -13.743   7.333  1.00  0.00     0.064 A 
HETATM    2  N   UNL     1      42.906 -13.393   6.549  1.00  0.00    -0.277 N 
HETATM    3  H   UNL     1      42.474 -12.476   6.478  1.00  0.00     0.189 HD
HETATM    4  N   UNL     1      42.384 -14.404   5.829  1.00  0.00    -0.169 NA
HETATM    5  C   UNL     1      43.142 -15.466   6.169  1.00  0.00     0.147 A 
HETATM    6  C   UNL     1      44.153 -15.091   7.087  1.00  0.00     0.071 A 
ENDROOT
BRANCH   5   7
HETATM    7  C   UNL     1      42.890 -16.815   5.630  1.00  0.00     0.276 C 
HETATM    8  N   UNL     1      43.878 -17.209   4.749  1.00  0.00    -0.322 N 
HETATM    9  H   UNL     1      44.620 -16.520   4.645  1.00  0.00     0.169 HD
HETATM   10  O   UNL     1      41.900 -17.459   5.959  1.00  0.00    -0.266 OA
BRANCH   8  11
HETATM   11  C   UNL     1      43.957 -18.389   3.993  1.00  0.00     0.035 A 
HETATM   12  C   UNL     1      44.368 -19.617   4.519  1.00  0.00     0.039 A 
HETATM   13  C   UNL     1      44.387 -20.725   3.685  1.00  0.00    -0.024 A 
HETATM   14  C   UNL     1      44.010 -20.639   2.356  1.00  0.00    -0.026 A 
HETATM   15  C   UNL     1      44.745 -22.130   4.004  1.00  0.00     0.207 C 
HETATM   16  C   UNL     1      44.101 -21.981   1.731  1.00  0.00     0.207 C 
HETATM   17  C   UNL     1      43.599 -19.437   1.809  1.00  0.00     0.012 A 
HETATM   18  O   UNL     1      44.747 -22.810   2.726  1.00  0.00    -0.382 OA
HETATM   19  C   UNL     1      43.577 -18.309   2.638  1.00  0.00     0.030 A 
ENDBRANCH   8  11
ENDBRANCH   5   7
BRANCH   1  20
HETATM   20  C   UNL     1      44.717 -12.813   8.194  1.00  0.00     0.014 A 
HETATM   21  C   UNL     1      44.044 -12.250   9.294  1.00  0.00     0.015 A 
HETATM   22  C   UNL     1      44.679 -11.350  10.153  1.00  0.00     0.001 A 
HETATM   23  C   UNL     1      46.003 -10.990   9.928  1.00  0.00     0.002 A 
HETATM   24  C   UNL     1      46.692 -11.533   8.846  1.00  0.00     0.025 A 
HETATM   25  C   UNL     1      46.059 -12.438   7.983  1.00  0.00     0.046 A 
HETATM   26 CL   UNL     1      47.002 -13.030   6.656  1.00  0.00    -0.083 Cl
ENDBRANCH   1  20
TORSDOF 3
ENDMDL
MODEL 2
REMARK VINA RESULT:      -8.5      6.288      9.203
REMARK  3 active torsions:
REMARK  status: ('A' for Active; 'I' for Inactive)
REMARK    1  A    between atoms: C_3  and  C_4 
REMARK    2  A    between atoms: C_8  and  C_9 
REMARK       I    between atoms: C_9  and  N_10 
REMARK    3  A    between atoms: N_10  and  C_11 
ROOT
HETATM    1  C   UNL     1      43.626 -19.120   2.477  1.00  0.00     0.064 A 
HETATM    2  N   UNL     1      44.473 -18.281   1.801  1.00  0.00    -0.277 N 
HETATM    3  H   UNL     1      45.488 -18.315   1.792  1.00  0.00     0.189 HD
HETATM    4  N   UNL     1      43.859 -17.307   1.103  1.00  0.00    -0.169 NA
HETATM    5  C   UNL     1      42.549 -17.514   1.347  1.00  0.00     0.147 A 
HETATM    6  C   UNL     1      42.363 -18.643   2.182  1.00  0.00     0.071 A 
ENDROOT
BRANCH   5   7
HETATM    7  C   UNL     1      41.499 -16.636   0.798  1.00  0.00     0.276 C 
HETATM    8  N   UNL     1      41.869 -16.088  -0.414  1.00  0.00    -0.322 N 
HETATM    9  H   UNL     1      42.783 -16.405  -0.735  1.00  0.00     0.169 HD
HETATM   10  O   UNL     1      40.446 -16.447   1.398  1.00  0.00    -0.266 OA
BRANCH   8  11
HETATM   11  C   UNL     1      41.171 -15.164  -1.207  1.00  0.00     0.035 A 
HETATM   12  C   UNL     1      40.817 -13.884  -0.771  1.00  0.00     0.039 A 
HETATM   13  C   UNL     1      40.147 -13.044  -1.648  1.00  0.00    -0.024 A 
HETATM   14  C   UNL     1      39.825 -13.445  -2.934  1.00  0.00    -0.026 A 
HETATM   15  C   UNL     1      39.697 -11.645  -1.443  1.00  0.00     0.207 C 
HETATM   16  C   UNL     1      39.147 -12.332  -3.640  1.00  0.00     0.207 C 
HETATM   17  C   UNL     1      40.163 -14.706  -3.391  1.00  0.00     0.012 A 
HETATM   18  O   UNL     1      38.915 -11.332  -2.620  1.00  0.00    -0.382 OA
HETATM   19  C   UNL     1      40.838 -15.566  -2.517  1.00  0.00     0.030 A 
ENDBRANCH   8  11
ENDBRANCH   5   7
BRANCH   1  20
HETATM   20  C   UNL     1      44.059 -20.261   3.294  1.00  0.00     0.014 A 
HETATM   21  C   UNL     1      44.298 -20.042   4.663  1.00  0.00     0.015 A 
HETATM   22  C   UNL     1      44.721 -21.076   5.502  1.00  0.00     0.001 A 
HETATM   23  C   UNL     1      44.919 -22.353   4.988  1.00  0.00     0.002 A 
HETATM   24  C   UNL     1      44.690 -22.596   3.636  1.00  0.00     0.025 A 
HETATM   25  C   UNL     1      44.263 -21.562   2.791  1.00  0.00     0.046 A 
HETATM   26 CL   UNL     1      44.035 -21.971   1.123  1.00  0.00    -0.083 Cl
ENDBRANCH   1  20
TORSDOF 3
ENDMDL
MODEL 3
REMARK VINA RESULT:      -8.5      3.158      4.744
REMARK  3 active torsions:
REMARK  status: ('A' for Active; 'I' for Inactive)
REMARK    1  A    between atoms: C_3  and  C_4 
REMARK    2  A    between atoms: C_8  and  C_9 
REMARK       I    between atoms: C_9  and  N_10 
REMARK    3  A    between atoms: N_10  and  C_11 
ROOT
HETATM    1  C   UNL     1      44.295 -10.854  10.099  1.00  0.00     0.064 A 
HETATM    2  N   UNL     1      45.599 -10.562   9.797  1.00  0.00    -0.277 N 
HETATM    3  H   UNL     1      46.168  -9.821  10.198  1.00  0.00     0.189 HD
HETATM    4  N   UNL     1      46.145 -11.345   8.848  1.00  0.00    -0.169 NA
HETATM    5  C   UNL     1      45.143 -12.181   8.506  1.00  0.00     0.147 A 
HETATM    6  C   UNL     1      43.983 -11.919   9.275  1.00  0.00     0.071 A 
ENDROOT
BRANCH   5   7
HETATM    7  C   UNL     1      45.296 -13.201   7.453  1.00  0.00     0.276 C 
HETATM    8  N   UNL     1      44.236 -14.085   7.437  1.00  0.00    -0.322 N 
HETATM    9  H   UNL     1      43.521 -13.867   8.129  1.00  0.00     0.169 HD
HETATM   10  O   UNL     1      46.275 -13.214   6.714  1.00  0.00    -0.266 OA
BRANCH   8  11
HETATM   11  C   UNL     1      44.054 -15.219   6.629  1.00  0.00     0.035 A 
HETATM   12  C   UNL     1      44.463 -16.504   6.996  1.00  0.00     0.039 A 
HETATM   13  C   UNL     1      44.211 -17.556   6.128  1.00  0.00    -0.024 A 
HETATM   14  C   UNL     1      43.568 -17.359   4.918  1.00  0.00    -0.026 A 
HETATM   15  C   UNL     1      44.510 -18.999   6.297  1.00  0.00     0.207 C 
HETATM   16  C   UNL     1      43.412 -18.663   4.228  1.00  0.00     0.207 C 
HETATM   17  C   UNL     1      43.153 -16.099   4.529  1.00  0.00     0.012 A 
HETATM   18  O   UNL     1      44.183 -19.596   5.020  1.00  0.00    -0.382 OA
HETATM   19  C   UNL     1      43.402 -15.027   5.393  1.00  0.00     0.030 A 
ENDBRANCH   8  11
ENDBRANCH   5   7
BRANCH   1  20
HETATM   20  C   UNL     1      43.493 -10.149  11.108  1.00  0.00     0.014 A 
HETATM   21  C   UNL     1      43.939 -10.174  12.442  1.00  0.00     0.015 A 
HETATM   22  C   UNL     1      43.225  -9.535  13.460  1.00  0.00     0.001 A 
HETATM   23  C   UNL     1      42.046  -8.860  13.165  1.00  0.00     0.002 A 
HETATM   24  C   UNL     1      41.583  -8.821  11.851  1.00  0.00     0.025 A 
HETATM   25  C   UNL     1      42.297  -9.459  10.828  1.00  0.00     0.046 A 
HETATM   26 CL   UNL     1      41.615  -9.368   9.237  1.00  0.00    -0.083 Cl
ENDBRANCH   1  20
TORSDOF 3
ENDMDL
MODEL 4
REMARK VINA RESULT:      -8.5      6.190      9.304
REMARK  3 active torsions:
REMARK  status: ('A' for Active; 'I' for Inactive)
REMARK    1  A    between atoms: C_3  and  C_4 
REMARK    2  A    between atoms: C_8  and  C_9 
REMARK       I    between atoms: C_9  and  N_10 
REMARK    3  A    between atoms: N_10  and  C_11 
ROOT
HETATM    1  C   UNL     1      42.291 -17.821   2.253  1.00  0.00     0.064 A 
HETATM    2  N   UNL     1      41.238 -17.348   2.992  1.00  0.00    -0.277 N 
HETATM    3  H   UNL     1      40.887 -17.727   3.867  1.00  0.00     0.189 HD
HETATM    4  N   UNL     1      40.612 -16.282   2.458  1.00  0.00    -0.169 NA
HETATM    5  C   UNL     1      41.283 -16.057   1.310  1.00  0.00     0.147 A 
HETATM    6  C   UNL     1      42.345 -16.981   1.157  1.00  0.00     0.071 A 
ENDROOT
BRANCH   5   7
HETATM    7  C   UNL     1      40.901 -14.983   0.375  1.00  0.00     0.276 C 
HETATM    8  N   UNL     1      41.925 -14.674  -0.498  1.00  0.00    -0.322 N 
HETATM    9  H   UNL     1      42.752 -15.255  -0.368  1.00  0.00     0.169 HD
HETATM   10  O   UNL     1      39.792 -14.460   0.421  1.00  0.00    -0.266 OA
BRANCH   8  11
HETATM   11  C   UNL     1      41.965 -13.674  -1.483  1.00  0.00     0.035 A 
HETATM   12  C   UNL     1      42.489 -12.397  -1.266  1.00  0.00     0.039 A 
HETATM   13  C   UNL     1      42.498 -11.494  -2.319  1.00  0.00    -0.024 A 
HETATM   14  C   UNL     1      42.003 -11.830  -3.567  1.00  0.00    -0.026 A 
HETATM   15  C   UNL     1      43.024 -10.107  -2.356  1.00  0.00     0.207 C 
HETATM   16  C   UNL     1      42.176 -10.682  -4.489  1.00  0.00     0.207 C 
HETATM   17  C   UNL     1      41.478 -13.086  -3.809  1.00  0.00     0.012 A 
HETATM   18  O   UNL     1      42.616  -9.592  -3.646  1.00  0.00    -0.382 OA
HETATM   19  C   UNL     1      41.460 -14.008  -2.756  1.00  0.00     0.030 A 
ENDBRANCH   8  11
ENDBRANCH   5   7
BRANCH   1  20
HETATM   20  C   UNL     1      43.133 -18.962   2.635  1.00  0.00     0.014 A 
HETATM   21  C   UNL     1      43.137 -20.092   1.796  1.00  0.00     0.015 A 
HETATM   22  C   UNL     1      43.905 -21.220   2.097  1.00  0.00     0.001 A 
HETATM   23  C   UNL     1      44.682 -21.244   3.249  1.00  0.00     0.002 A 
HETATM   24  C   UNL     1      44.696 -20.139   4.098  1.00  0.00     0.025 A 
HETATM   25  C   UNL     1      43.929 -19.005   3.797  1.00  0.00     0.046 A 
HETATM   26 CL   UNL     1      44.001 -17.700   4.935  1.00  0.00    -0.083 Cl
ENDBRANCH   1  20
TORSDOF 3
ENDMDL
MODEL 5
REMARK VINA RESULT:      -8.2      5.696      7.869
REMARK  3 active torsions:
REMARK  status: ('A' for Active; 'I' for Inactive)
REMARK    1  A    between atoms: C_3  and  C_4 
REMARK    2  A    between atoms: C_8  and  C_9 
REMARK       I    between atoms: C_9  and  N_10 
REMARK    3  A    between atoms: N_10  and  C_11 
ROOT
HETATM    1  C   UNL     1      41.427 -13.805  -0.769  1.00  0.00     0.064 A 
HETATM    2  N   UNL     1      41.722 -13.328   0.482  1.00  0.00    -0.277 N 
HETATM    3  H   UNL     1      41.885 -12.360   0.744  1.00  0.00     0.189 HD
HETATM    4  N   UNL     1      41.821 -14.274   1.435  1.00  0.00    -0.169 NA
HETATM    5  C   UNL     1      41.591 -15.425   0.770  1.00  0.00     0.147 A 
HETATM    6  C   UNL     1      41.323 -15.172  -0.598  1.00  0.00     0.071 A 
ENDROOT
BRANCH   5   7
HETATM    7  C   UNL     1      41.640 -16.740   1.435  1.00  0.00     0.276 C 
HETATM    8  N   UNL     1      42.929 -17.090   1.786  1.00  0.00    -0.322 N 
HETATM    9  H   UNL     1      43.616 -16.374   1.555  1.00  0.00     0.169 HD
HETATM   10  O   UNL     1      40.624 -17.400   1.620  1.00  0.00    -0.266 OA
BRANCH   8  11
HETATM   11  C   UNL     1      43.383 -18.281   2.374  1.00  0.00     0.035 A 
HETATM   12  C   UNL     1      43.521 -19.484   1.675  1.00  0.00     0.039 A 
HETATM   13  C   UNL     1      44.001 -20.595   2.352  1.00  0.00    -0.024 A 
HETATM   14  C   UNL     1      44.343 -20.536   3.693  1.00  0.00    -0.026 A 
HETATM   15  C   UNL     1      44.268 -21.960   1.837  1.00  0.00     0.207 C 
HETATM   16  C   UNL     1      44.853 -21.859   4.128  1.00  0.00     0.207 C 
HETATM   17  C   UNL     1      44.217 -19.359   4.407  1.00  0.00     0.012 A 
HETATM   18  O   UNL     1      44.594 -22.742   3.011  1.00  0.00    -0.382 OA
HETATM   19  C   UNL     1      43.732 -18.229   3.739  1.00  0.00     0.030 A 
ENDBRANCH   8  11
ENDBRANCH   5   7
BRANCH   1  20
HETATM   20  C   UNL     1      41.255 -12.967  -1.962  1.00  0.00     0.014 A 
HETATM   21  C   UNL     1      42.402 -12.636  -2.708  1.00  0.00     0.015 A 
HETATM   22  C   UNL     1      42.321 -11.835  -3.850  1.00  0.00     0.001 A 
HETATM   23  C   UNL     1      41.090 -11.343  -4.269  1.00  0.00     0.002 A 
HETATM   24  C   UNL     1      39.939 -11.655  -3.548  1.00  0.00     0.025 A 
HETATM   25  C   UNL     1      40.016 -12.460  -2.403  1.00  0.00     0.046 A 
HETATM   26 CL   UNL     1      38.527 -12.763  -1.570  1.00  0.00    -0.083 Cl
ENDBRANCH   1  20
TORSDOF 3
ENDMDL
MODEL 6
REMARK VINA RESULT:      -8.1      3.151      4.939
REMARK  3 active torsions:
REMARK  status: ('A' for Active; 'I' for Inactive)
REMARK    1  A    between atoms: C_3  and  C_4 
REMARK    2  A    between atoms: C_8  and  C_9 
REMARK       I    between atoms: C_9  and  N_10 
REMARK    3  A    between atoms: N_10  and  C_11 
ROOT
HETATM    1  C   UNL     1      44.161 -11.160  10.378  1.00  0.00     0.064 A 
HETATM    2  N   UNL     1      45.473 -11.510  10.562  1.00  0.00    -0.277 N 
HETATM    3  H   UNL     1      46.102 -11.167  11.283  1.00  0.00     0.189 HD
HETATM    4  N   UNL     1      45.952 -12.386   9.658  1.00  0.00    -0.169 NA
HETATM    5  C   UNL     1      44.904 -12.607   8.838  1.00  0.00     0.147 A 
HETATM    6  C   UNL     1      43.767 -11.877   9.265  1.00  0.00     0.071 A 
ENDROOT
BRANCH   5   7
HETATM    7  C   UNL     1      44.999 -13.492   7.663  1.00  0.00     0.276 C 
HETATM    8  N   UNL     1      43.946 -14.384   7.606  1.00  0.00    -0.322 N 
HETATM    9  H   UNL     1      43.274 -14.260   8.361  1.00  0.00     0.169 HD
HETATM   10  O   UNL     1      45.930 -13.404   6.870  1.00  0.00    -0.266 OA
BRANCH   8  11
HETATM   11  C   UNL     1      43.721 -15.415   6.680  1.00  0.00     0.035 A 
HETATM   12  C   UNL     1      43.355 -15.192   5.350  1.00  0.00     0.039 A 
HETATM   13  C   UNL     1      43.180 -16.286   4.515  1.00  0.00    -0.024 A 
HETATM   14  C   UNL     1      43.361 -17.581   4.971  1.00  0.00    -0.026 A 
HETATM   15  C   UNL     1      42.831 -16.317   3.074  1.00  0.00     0.207 C 
HETATM   16  C   UNL     1      43.139 -18.530   3.852  1.00  0.00     0.207 C 
HETATM   17  C   UNL     1      43.723 -17.831   6.281  1.00  0.00     0.012 A 
HETATM   18  O   UNL     1      42.621 -17.717   2.773  1.00  0.00    -0.382 OA
HETATM   19  C   UNL     1      43.901 -16.737   7.137  1.00  0.00     0.030 A 
ENDBRANCH   8  11
ENDBRANCH   5   7
BRANCH   1  20
HETATM   20  C   UNL     1      43.416 -10.234  11.242  1.00  0.00     0.014 A 
HETATM   21  C   UNL     1      43.793 -10.143  12.594  1.00  0.00     0.015 A 
HETATM   22  C   UNL     1      43.126  -9.292  13.480  1.00  0.00     0.001 A 
HETATM   23  C   UNL     1      42.062  -8.517  13.032  1.00  0.00     0.002 A 
HETATM   24  C   UNL     1      41.669  -8.589  11.697  1.00  0.00     0.025 A 
HETATM   25  C   UNL     1      42.337  -9.439  10.805  1.00  0.00     0.046 A 
HETATM   26 CL   UNL     1      41.746  -9.469   9.177  1.00  0.00    -0.083 Cl
ENDBRANCH   1  20
TORSDOF 3
ENDMDL
MODEL 7
REMARK VINA RESULT:      -7.7      3.178      4.540
REMARK  3 active torsions:
REMARK  status: ('A' for Active; 'I' for Inactive)
REMARK    1  A    between atoms: C_3  and  C_4 
REMARK    2  A    between atoms: C_8  and  C_9 
REMARK       I    between atoms: C_9  and  N_10 
REMARK    3  A    between atoms: N_10  and  C_11 
ROOT
HETATM    1  C   UNL     1      43.582 -11.163   9.475  1.00  0.00     0.064 A 
HETATM    2  N   UNL     1      44.773 -11.550  10.033  1.00  0.00    -0.277 N 
HETATM    3  H   UNL     1      45.215 -11.160  10.860  1.00  0.00     0.189 HD
HETATM    4  N   UNL     1      45.408 -12.537   9.372  1.00  0.00    -0.169 NA
HETATM    5  C   UNL     1      44.596 -12.798   8.328  1.00  0.00     0.147 A 
HETATM    6  C   UNL     1      43.442 -11.978   8.368  1.00  0.00     0.071 A 
ENDROOT
BRANCH   5   7
HETATM    7  C   UNL     1      44.930 -13.807   7.306  1.00  0.00     0.276 C 
HETATM    8  N   UNL     1      43.988 -14.815   7.251  1.00  0.00    -0.322 N 
HETATM    9  H   UNL     1      43.214 -14.675   7.899  1.00  0.00     0.169 HD
HETATM   10  O   UNL     1      45.944 -13.712   6.622  1.00  0.00    -0.266 OA
BRANCH   8  11
HETATM   11  C   UNL     1      43.989 -15.973   6.458  1.00  0.00     0.035 A 
HETATM   12  C   UNL     1      43.217 -16.119   5.302  1.00  0.00     0.039 A 
HETATM   13  C   UNL     1      43.313 -17.300   4.582  1.00  0.00    -0.024 A 
HETATM   14  C   UNL     1      44.152 -18.326   4.981  1.00  0.00    -0.026 A 
HETATM   15  C   UNL     1      42.635 -17.683   3.319  1.00  0.00     0.207 C 
HETATM   16  C   UNL     1      44.068 -19.438   4.003  1.00  0.00     0.207 C 
HETATM   17  C   UNL     1      44.926 -18.209   6.121  1.00  0.00     0.012 A 
HETATM   18  O   UNL     1      42.978 -19.075   3.123  1.00  0.00    -0.382 OA
HETATM   19  C   UNL     1      44.838 -17.024   6.860  1.00  0.00     0.030 A 
ENDBRANCH   8  11
ENDBRANCH   5   7
BRANCH   1  20
HETATM   20  C   UNL     1      42.705 -10.119  10.021  1.00  0.00     0.014 A 
HETATM   21  C   UNL     1      41.742  -9.551   9.167  1.00  0.00     0.015 A 
HETATM   22  C   UNL     1      40.879  -8.546   9.609  1.00  0.00     0.001 A 
HETATM   23  C   UNL     1      40.964  -8.082  10.917  1.00  0.00     0.002 A 
HETATM   24  C   UNL     1      41.910  -8.627  11.783  1.00  0.00     0.025 A 
HETATM   25  C   UNL     1      42.776  -9.637  11.343  1.00  0.00     0.046 A 
HETATM   26 CL   UNL     1      43.929 -10.222  12.496  1.00  0.00    -0.083 Cl
ENDBRANCH   1  20
TORSDOF 3
ENDMDL
MODEL 8
REMARK VINA RESULT:      -7.5      3.819      4.303
REMARK  3 active torsions:
REMARK  status: ('A' for Active; 'I' for Inactive)
REMARK    1  A    between atoms: C_3  and  C_4 
REMARK    2  A    between atoms: C_8  and  C_9 
REMARK       I    between atoms: C_9  and  N_10 
REMARK    3  A    between atoms: N_10  and  C_11 
ROOT
HETATM    1  C   UNL     1      40.058 -12.394   6.383  1.00  0.00     0.064 A 
HETATM    2  N   UNL     1      39.213 -13.415   6.033  1.00  0.00    -0.277 N 
HETATM    3  H   UNL     1      38.221 -13.485   6.240  1.00  0.00     0.189 HD
HETATM    4  N   UNL     1      39.801 -14.426   5.366  1.00  0.00    -0.169 NA
HETATM    5  C   UNL     1      41.094 -14.051   5.288  1.00  0.00     0.147 A 
HETATM    6  C   UNL     1      41.289 -12.784   5.892  1.00  0.00     0.071 A 
ENDROOT
BRANCH   5   7
HETATM    7  C   UNL     1      42.121 -14.898   4.656  1.00  0.00     0.276 C 
HETATM    8  N   UNL     1      41.708 -16.212   4.549  1.00  0.00    -0.322 N 
HETATM    9  H   UNL     1      40.762 -16.364   4.893  1.00  0.00     0.169 HD
HETATM   10  O   UNL     1      43.198 -14.435   4.296  1.00  0.00    -0.266 OA
BRANCH   8  11
HETATM   11  C   UNL     1      42.425 -17.318   4.064  1.00  0.00     0.035 A 
HETATM   12  C   UNL     1      43.233 -18.127   4.868  1.00  0.00     0.039 A 
HETATM   13  C   UNL     1      43.878 -19.209   4.288  1.00  0.00    -0.024 A 
HETATM   14  C   UNL     1      43.738 -19.500   2.942  1.00  0.00    -0.026 A 
HETATM   15  C   UNL     1      44.752 -20.226   4.922  1.00  0.00     0.207 C 
HETATM   16  C   UNL     1      44.512 -20.723   2.621  1.00  0.00     0.207 C 
HETATM   17  C   UNL     1      42.945 -18.716   2.124  1.00  0.00     0.012 A 
HETATM   18  O   UNL     1      45.272 -21.006   3.819  1.00  0.00    -0.382 OA
HETATM   19  C   UNL     1      42.289 -17.620   2.694  1.00  0.00     0.030 A 
ENDBRANCH   8  11
ENDBRANCH   5   7
BRANCH   1  20
HETATM   20  C   UNL     1      39.647 -11.181   7.102  1.00  0.00     0.014 A 
HETATM   21  C   UNL     1      39.390 -11.285   8.482  1.00  0.00     0.015 A 
HETATM   22  C   UNL     1      38.986 -10.177   9.232  1.00  0.00     0.001 A 
HETATM   23  C   UNL     1      38.826  -8.941   8.617  1.00  0.00     0.002 A 
HETATM   24  C   UNL     1      39.073  -8.811   7.252  1.00  0.00     0.025 A 
HETATM   25  C   UNL     1      39.481  -9.919   6.496  1.00  0.00     0.046 A 
HETATM   26 CL   UNL     1      39.734  -9.649   4.804  1.00  0.00    -0.083 Cl
ENDBRANCH   1  20
TORSDOF 3
ENDMDL
MODEL 9
REMARK VINA RESULT:      -7.5      4.931      6.148
REMARK  3 active torsions:
REMARK  status: ('A' for Active; 'I' for Inactive)
REMARK    1  A    between atoms: C_3  and  C_4 
REMARK    2  A    between atoms: C_8  and  C_9 
REMARK       I    between atoms: C_9  and  N_10 
REMARK    3  A    between atoms: N_10  and  C_11 
ROOT
HETATM    1  C   UNL     1      39.839 -13.577   2.437  1.00  0.00     0.064 A 
HETATM    2  N   UNL     1      41.084 -13.601   1.865  1.00  0.00    -0.277 N 
HETATM    3  H   UNL     1      41.471 -12.923   1.214  1.00  0.00     0.189 HD
HETATM    4  N   UNL     1      41.838 -14.664   2.206  1.00  0.00    -0.169 NA
HETATM    5  C   UNL     1      41.040 -15.372   3.031  1.00  0.00     0.147 A 
HETATM    6  C   UNL     1      39.797 -14.718   3.214  1.00  0.00     0.071 A 
ENDROOT
BRANCH   5   7
HETATM    7  C   UNL     1      41.461 -16.656   3.621  1.00  0.00     0.276 C 
HETATM    8  N   UNL     1      42.502 -17.228   2.916  1.00  0.00    -0.322 N 
HETATM    9  H   UNL     1      42.818 -16.657   2.134  1.00  0.00     0.169 HD
HETATM   10  O   UNL     1      40.910 -17.113   4.616  1.00  0.00    -0.266 OA
BRANCH   8  11
HETATM   11  C   UNL     1      43.127 -18.466   3.129  1.00  0.00     0.035 A 
HETATM   12  C   UNL     1      43.168 -19.486   2.173  1.00  0.00     0.039 A 
HETATM   13  C   UNL     1      43.834 -20.662   2.483  1.00  0.00    -0.024 A 
HETATM   14  C   UNL     1      44.453 -20.844   3.708  1.00  0.00    -0.026 A 
HETATM   15  C   UNL     1      44.047 -21.865   1.642  1.00  0.00     0.207 C 
HETATM   16  C   UNL     1      45.106 -22.175   3.736  1.00  0.00     0.207 C 
HETATM   17  C   UNL     1      44.429 -19.852   4.671  1.00  0.00     0.012 A 
HETATM   18  O   UNL     1      44.654 -22.834   2.530  1.00  0.00    -0.382 OA
HETATM   19  C   UNL     1      43.759 -18.660   4.375  1.00  0.00     0.030 A 
ENDBRANCH   8  11
ENDBRANCH   5   7
BRANCH   1  20
HETATM   20  C   UNL     1      38.845 -12.515   2.228  1.00  0.00     0.014 A 
HETATM   21  C   UNL     1      37.953 -12.648   1.148  1.00  0.00     0.015 A 
HETATM   22  C   UNL     1      36.987 -11.676   0.879  1.00  0.00     0.001 A 
HETATM   23  C   UNL     1      36.895 -10.545   1.682  1.00  0.00     0.002 A 
HETATM   24  C   UNL     1      37.766 -10.389   2.758  1.00  0.00     0.025 A 
HETATM   25  C   UNL     1      38.736 -11.363   3.032  1.00  0.00     0.046 A 
HETATM   26 CL   UNL     1      39.783 -11.053   4.377  1.00  0.00    -0.083 Cl
ENDBRANCH   1  20
TORSDOF 3
ENDMDL
MODEL 10
REMARK VINA RESULT:      -7.4      4.715      5.453
REMARK  3 active torsions:
REMARK  status: ('A' for Active; 'I' for Inactive)
REMARK    1  A    between atoms: C_3  and  C_4 
REMARK    2  A    between atoms: C_8  and  C_9 
REMARK       I    between atoms: C_9  and  N_10 
REMARK    3  A    between atoms: N_10  and  C_11 
ROOT
HETATM    1  C   UNL     1      41.502 -13.176   2.784  1.00  0.00     0.064 A 
HETATM    2  N   UNL     1      42.793 -12.943   3.180  1.00  0.00    -0.277 N 
HETATM    3  H   UNL     1      43.189 -12.058   3.484  1.00  0.00     0.189 HD
HETATM    4  N   UNL     1      43.599 -14.021   3.126  1.00  0.00    -0.169 NA
HETATM    5  C   UNL     1      42.797 -14.999   2.661  1.00  0.00     0.147 A 
HETATM    6  C   UNL     1      41.481 -14.517   2.454  1.00  0.00     0.071 A 
ENDROOT
BRANCH   5   7
HETATM    7  C   UNL     1      43.289 -16.366   2.409  1.00  0.00     0.276 C 
HETATM    8  N   UNL     1      43.215 -17.155   3.540  1.00  0.00    -0.322 N 
HETATM    9  H   UNL     1      42.808 -16.673   4.340  1.00  0.00     0.169 HD
HETATM   10  O   UNL     1      43.709 -16.700   1.307  1.00  0.00    -0.266 OA
BRANCH   8  11
HETATM   11  C   UNL     1      43.643 -18.481   3.712  1.00  0.00     0.035 A 
HETATM   12  C   UNL     1      43.742 -19.403   2.666  1.00  0.00     0.039 A 
HETATM   13  C   UNL     1      44.198 -20.682   2.947  1.00  0.00    -0.024 A 
HETATM   14  C   UNL     1      44.554 -21.059   4.230  1.00  0.00    -0.026 A 
HETATM   15  C   UNL     1      44.424 -21.818   2.020  1.00  0.00     0.207 C 
HETATM   16  C   UNL     1      45.032 -22.463   4.215  1.00  0.00     0.207 C 
HETATM   17  C   UNL     1      44.466 -20.168   5.284  1.00  0.00     0.012 A 
HETATM   18  O   UNL     1      44.739 -22.939   2.880  1.00  0.00    -0.382 OA
HETATM   19  C   UNL     1      44.005 -18.874   5.017  1.00  0.00     0.030 A 
ENDBRANCH   8  11
ENDBRANCH   5   7
BRANCH   1  20
HETATM   20  C   UNL     1      40.439 -12.163   2.768  1.00  0.00     0.014 A 
HETATM   21  C   UNL     1      39.665 -11.998   3.932  1.00  0.00     0.015 A 
HETATM   22  C   UNL     1      38.629 -11.062   3.991  1.00  0.00     0.001 A 
HETATM   23  C   UNL     1      38.342 -10.272   2.884  1.00  0.00     0.002 A 
HETATM   24  C   UNL     1      39.092 -10.415   1.719  1.00  0.00     0.025 A 
HETATM   25  C   UNL     1      40.133 -11.352   1.656  1.00  0.00     0.046 A 
HETATM   26 CL   UNL     1      40.983 -11.464   0.150  1.00  0.00    -0.083 Cl
ENDBRANCH   1  20
TORSDOF 3
ENDMDL
