MODEL 1
REMARK VINA RESULT:      -8.5      0.000      0.000
REMARK  8 active torsions:
REMARK  status: ('A' for Active; 'I' for Inactive)
REMARK    1  A    between atoms: C_2  and  O_3 
REMARK    2  A    between atoms: O_3  and  C_4 
REMARK    3  A    between atoms: C_5  and  N_6 
REMARK       I    between atoms: N_6  and  C_7 
REMARK    4  A    between atoms: C_7  and  C_8 
REMARK    5  A    between atoms: N_11  and  C_12 
REMARK    6  A    between atoms: C_12  and  C_13 
REMARK       I    between atoms: C_13  and  N_14 
REMARK    7  A    between atoms: N_14  and  C_15 
REMARK    8  A    between atoms: C_23  and  N_24 
ROOT
HETATM    1  C   UNL     1      42.358 -15.644   5.996  1.00  0.00     0.187 A 
HETATM    2  N   UNL     1      41.995 -14.325   5.800  1.00  0.00    -0.150 NA
HETATM    3  N   UNL     1      43.032 -13.551   6.074  1.00  0.00     0.007 NA
HETATM    4  N   UNL     1      44.044 -14.353   6.441  1.00  0.00    -0.248 N 
HETATM    5  C   UNL     1      43.658 -15.672   6.492  1.00  0.00     0.151 A 
ENDROOT
BRANCH   1   6
HETATM    6  C   UNL     1      41.383 -16.710   5.788  1.00  0.00     0.280 C 
HETATM    7  N   UNL     1      41.555 -17.695   4.840  1.00  0.00    -0.319 N 
HETATM    8  H   UNL     1      40.993 -18.506   5.065  1.00  0.00     0.169 HD
HETATM    9  O   UNL     1      40.415 -16.841   6.546  1.00  0.00    -0.265 OA
BRANCH   7  10
HETATM   10  C   UNL     1      42.250 -17.737   3.616  1.00  0.00     0.068 A 
HETATM   11  C   UNL     1      43.579 -18.170   3.443  1.00  0.00     0.095 A 
HETATM   12  C   UNL     1      44.114 -18.215   2.147  1.00  0.00     0.039 A 
HETATM   13  C   UNL     1      43.365 -17.793   1.046  1.00  0.00     0.003 A 
HETATM   14  C   UNL     1      42.079 -17.298   1.228  1.00  0.00     0.002 A 
HETATM   15  C   UNL     1      41.531 -17.261   2.508  1.00  0.00     0.032 A 
BRANCH  11  16
HETATM   16  O   UNL     1      44.306 -18.443   4.572  1.00  0.00    -0.349 OA
BRANCH  16  17
HETATM   17  C   UNL     1      44.598 -19.808   4.865  1.00  0.00     0.171 C 
HETATM   18  C   UNL     1      43.957 -20.163   6.193  1.00  0.00     0.034 C 
ENDBRANCH  16  17
ENDBRANCH  11  16
ENDBRANCH   7  10
ENDBRANCH   1   6
BRANCH   5  19
HETATM   19  N   UNL     1      44.469 -16.652   6.953  1.00  0.00    -0.382 N 
HETATM   20  H   UNL     1      44.320 -17.183   7.816  1.00  0.00     0.157 HD
HETATM   21  H   UNL     1      45.358 -16.865   6.506  1.00  0.00     0.157 HD
ENDBRANCH   5  19
BRANCH   4  22
HETATM   22  C   UNL     1      45.349 -13.769   6.622  1.00  0.00     0.251 C 
BRANCH  22  23
HETATM   23  C   UNL     1      45.461 -12.973   7.896  1.00  0.00     0.241 C 
HETATM   24  N   UNL     1      44.287 -12.913   8.628  1.00  0.00    -0.326 N 
HETATM   25  H   UNL     1      43.568 -13.595   8.407  1.00  0.00     0.169 HD
HETATM   26  O   UNL     1      46.530 -12.446   8.202  1.00  0.00    -0.271 OA
BRANCH  24  27
HETATM   27  C   UNL     1      44.029 -12.073   9.731  1.00  0.00     0.034 A 
HETATM   28  C   UNL     1      43.579 -10.754   9.607  1.00  0.00     0.031 A 
HETATM   29  C   UNL     1      43.294  -9.990  10.744  1.00  0.00     0.026 A 
HETATM   30  C   UNL     1      43.463 -10.540  12.011  1.00  0.00     0.034 A 
HETATM   31 CL   UNL     1      43.107  -9.602  13.406  1.00  0.00    -0.084 Cl
HETATM   32  C   UNL     1      43.911 -11.851  12.149  1.00  0.00     0.026 A 
HETATM   33  C   UNL     1      44.187 -12.617  11.012  1.00  0.00     0.031 A 
ENDBRANCH  24  27
ENDBRANCH  22  23
ENDBRANCH   4  22
TORSDOF 8
ENDMDL
MODEL 2
REMARK VINA RESULT:      -8.5      3.904      7.898
REMARK  8 active torsions:
REMARK  status: ('A' for Active; 'I' for Inactive)
REMARK    1  A    between atoms: C_2  and  O_3 
REMARK    2  A    between atoms: O_3  and  C_4 
REMARK    3  A    between atoms: C_5  and  N_6 
REMARK       I    between atoms: N_6  and  C_7 
REMARK    4  A    between atoms: C_7  and  C_8 
REMARK    5  A    between atoms: N_11  and  C_12 
REMARK    6  A    between atoms: C_12  and  C_13 
REMARK       I    between atoms: C_13  and  N_14 
REMARK    7  A    between atoms: N_14  and  C_15 
REMARK    8  A    between atoms: C_23  and  N_24 
ROOT
HETATM    1  C   UNL     1      40.904 -14.899   3.612  1.00  0.00     0.187 A 
HETATM    2  N   UNL     1      39.857 -15.414   2.871  1.00  0.00    -0.150 NA
HETATM    3  N   UNL     1      40.334 -15.906   1.740  1.00  0.00     0.007 NA
HETATM    4  N   UNL     1      41.663 -15.713   1.750  1.00  0.00    -0.248 N 
HETATM    5  C   UNL     1      42.070 -15.011   2.860  1.00  0.00     0.151 A 
ENDROOT
BRANCH   1   6
HETATM    6  C   UNL     1      40.646 -14.268   4.902  1.00  0.00     0.280 C 
HETATM    7  N   UNL     1      41.472 -14.446   5.991  1.00  0.00    -0.319 N 
HETATM    8  H   UNL     1      41.349 -13.693   6.656  1.00  0.00     0.169 HD
HETATM    9  O   UNL     1      39.736 -13.443   5.034  1.00  0.00    -0.265 OA
BRANCH   7  10
HETATM   10  C   UNL     1      42.334 -15.488   6.381  1.00  0.00     0.068 A 
HETATM   11  C   UNL     1      43.733 -15.393   6.503  1.00  0.00     0.095 A 
HETATM   12  C   UNL     1      44.451 -16.505   6.966  1.00  0.00     0.039 A 
HETATM   13  C   UNL     1      43.803 -17.708   7.257  1.00  0.00     0.003 A 
HETATM   14  C   UNL     1      42.432 -17.822   7.067  1.00  0.00     0.002 A 
HETATM   15  C   UNL     1      41.704 -16.721   6.622  1.00  0.00     0.032 A 
BRANCH  11  16
HETATM   16  O   UNL     1      44.326 -14.233   6.075  1.00  0.00    -0.349 OA
BRANCH  16  17
HETATM   17  C   UNL     1      45.415 -13.718   6.838  1.00  0.00     0.171 C 
HETATM   18  C   UNL     1      44.856 -13.013   8.059  1.00  0.00     0.034 C 
ENDBRANCH  16  17
ENDBRANCH  11  16
ENDBRANCH   7  10
ENDBRANCH   1   6
BRANCH   5  19
HETATM   19  N   UNL     1      43.343 -14.589   3.031  1.00  0.00    -0.382 N 
HETATM   20  H   UNL     1      44.180 -15.130   2.795  1.00  0.00     0.157 HD
HETATM   21  H   UNL     1      43.558 -13.717   3.511  1.00  0.00     0.157 HD
ENDBRANCH   5  19
BRANCH   4  22
HETATM   22  C   UNL     1      42.450 -16.319   0.706  1.00  0.00     0.251 C 
BRANCH  22  23
HETATM   23  C   UNL     1      43.407 -17.359   1.225  1.00  0.00     0.241 C 
HETATM   24  N   UNL     1      42.790 -18.480   1.756  1.00  0.00    -0.326 N 
HETATM   25  H   UNL     1      41.815 -18.628   1.516  1.00  0.00     0.169 HD
HETATM   26  O   UNL     1      44.622 -17.170   1.156  1.00  0.00    -0.271 OA
BRANCH  24  27
HETATM   27  C   UNL     1      43.408 -19.502   2.506  1.00  0.00     0.034 A 
HETATM   28  C   UNL     1      43.702 -20.768   1.988  1.00  0.00     0.031 A 
HETATM   29  C   UNL     1      44.361 -21.721   2.772  1.00  0.00     0.026 A 
HETATM   30  C   UNL     1      44.725 -21.414   4.079  1.00  0.00     0.034 A 
HETATM   31 CL   UNL     1      45.540 -22.584   5.039  1.00  0.00    -0.084 Cl
HETATM   32  C   UNL     1      44.438 -20.158   4.608  1.00  0.00     0.026 A 
HETATM   33  C   UNL     1      43.786 -19.203   3.821  1.00  0.00     0.031 A 
ENDBRANCH  24  27
ENDBRANCH  22  23
ENDBRANCH   4  22
TORSDOF 8
ENDMDL
MODEL 3
REMARK VINA RESULT:      -8.2      4.740      7.481
REMARK  8 active torsions:
REMARK  status: ('A' for Active; 'I' for Inactive)
REMARK    1  A    between atoms: C_2  and  O_3 
REMARK    2  A    between atoms: O_3  and  C_4 
REMARK    3  A    between atoms: C_5  and  N_6 
REMARK       I    between atoms: N_6  and  C_7 
REMARK    4  A    between atoms: C_7  and  C_8 
REMARK    5  A    between atoms: N_11  and  C_12 
REMARK    6  A    between atoms: C_12  and  C_13 
REMARK       I    between atoms: C_13  and  N_14 
REMARK    7  A    between atoms: N_14  and  C_15 
REMARK    8  A    between atoms: C_23  and  N_24 
ROOT
HETATM    1  C   UNL     1      42.053 -13.652   4.659  1.00  0.00     0.187 A 
HETATM    2  N   UNL     1      43.417 -13.426   4.616  1.00  0.00    -0.150 NA
HETATM    3  N   UNL     1      44.004 -14.176   5.533  1.00  0.00     0.007 NA
HETATM    4  N   UNL     1      43.041 -14.871   6.158  1.00  0.00    -0.248 N 
HETATM    5  C   UNL     1      41.788 -14.524   5.711  1.00  0.00     0.151 A 
ENDROOT
BRANCH   1   6
HETATM    6  C   UNL     1      41.162 -12.926   3.761  1.00  0.00     0.280 C 
HETATM    7  N   UNL     1      40.492 -13.542   2.726  1.00  0.00    -0.319 N 
HETATM    8  H   UNL     1      39.689 -12.993   2.447  1.00  0.00     0.169 HD
HETATM    9  O   UNL     1      40.875 -11.742   3.972  1.00  0.00    -0.265 OA
BRANCH   7  10
HETATM   10  C   UNL     1      40.769 -14.683   1.949  1.00  0.00     0.068 A 
HETATM   11  C   UNL     1      41.487 -14.695   0.738  1.00  0.00     0.095 A 
HETATM   12  C   UNL     1      41.737 -15.924   0.110  1.00  0.00     0.039 A 
HETATM   13  C   UNL     1      41.243 -17.116   0.644  1.00  0.00     0.003 A 
HETATM   14  C   UNL     1      40.472 -17.094   1.800  1.00  0.00     0.002 A 
HETATM   15  C   UNL     1      40.229 -15.882   2.441  1.00  0.00     0.032 A 
BRANCH  11  16
HETATM   16  O   UNL     1      41.829 -13.484   0.195  1.00  0.00    -0.349 OA
BRANCH  16  17
HETATM   17  C   UNL     1      41.322 -13.163  -1.099  1.00  0.00     0.171 C 
HETATM   18  C   UNL     1      42.495 -12.917  -2.028  1.00  0.00     0.034 C 
ENDBRANCH  16  17
ENDBRANCH  11  16
ENDBRANCH   7  10
ENDBRANCH   1   6
BRANCH   5  19
HETATM   19  N   UNL     1      40.654 -14.999   6.275  1.00  0.00    -0.382 N 
HETATM   20  H   UNL     1      39.782 -14.472   6.382  1.00  0.00     0.157 HD
HETATM   21  H   UNL     1      40.624 -15.908   6.732  1.00  0.00     0.157 HD
ENDBRANCH   5  19
BRANCH   4  22
HETATM   22  C   UNL     1      43.434 -15.900   7.087  1.00  0.00     0.251 C 
BRANCH  22  23
HETATM   23  C   UNL     1      43.405 -17.278   6.480  1.00  0.00     0.241 C 
HETATM   24  N   UNL     1      44.254 -17.434   5.396  1.00  0.00    -0.326 N 
HETATM   25  H   UNL     1      44.986 -16.741   5.278  1.00  0.00     0.169 HD
HETATM   26  O   UNL     1      42.670 -18.145   6.950  1.00  0.00    -0.271 OA
BRANCH  24  27
HETATM   27  C   UNL     1      44.280 -18.524   4.501  1.00  0.00     0.034 A 
HETATM   28  C   UNL     1      44.809 -19.777   4.827  1.00  0.00     0.031 A 
HETATM   29  C   UNL     1      44.758 -20.830   3.907  1.00  0.00     0.026 A 
HETATM   30  C   UNL     1      44.183 -20.633   2.656  1.00  0.00     0.034 A 
HETATM   31 CL   UNL     1      44.116 -21.930   1.530  1.00  0.00    -0.084 Cl
HETATM   32  C   UNL     1      43.653 -19.391   2.318  1.00  0.00     0.026 A 
HETATM   33  C   UNL     1      43.696 -18.340   3.241  1.00  0.00     0.031 A 
ENDBRANCH  24  27
ENDBRANCH  22  23
ENDBRANCH   4  22
TORSDOF 8
ENDMDL
MODEL 4
REMARK VINA RESULT:      -8.2      1.244      2.610
REMARK  8 active torsions:
REMARK  status: ('A' for Active; 'I' for Inactive)
REMARK    1  A    between atoms: C_2  and  O_3 
REMARK    2  A    between atoms: O_3  and  C_4 
REMARK    3  A    between atoms: C_5  and  N_6 
REMARK       I    between atoms: N_6  and  C_7 
REMARK    4  A    between atoms: C_7  and  C_8 
REMARK    5  A    between atoms: N_11  and  C_12 
REMARK    6  A    between atoms: C_12  and  C_13 
REMARK       I    between atoms: C_13  and  N_14 
REMARK    7  A    between atoms: N_14  and  C_15 
REMARK    8  A    between atoms: C_23  and  N_24 
ROOT
HETATM    1  C   UNL     1      42.324 -15.724   5.925  1.00  0.00     0.187 A 
HETATM    2  N   UNL     1      42.045 -14.391   5.685  1.00  0.00    -0.150 NA
HETATM    3  N   UNL     1      43.105 -13.668   6.005  1.00  0.00     0.007 NA
HETATM    4  N   UNL     1      44.049 -14.516   6.444  1.00  0.00    -0.248 N 
HETATM    5  C   UNL     1      43.591 -15.811   6.496  1.00  0.00     0.151 A 
ENDROOT
BRANCH   1   6
HETATM    6  C   UNL     1      41.307 -16.741   5.678  1.00  0.00     0.280 C 
HETATM    7  N   UNL     1      41.422 -17.674   4.670  1.00  0.00    -0.319 N 
HETATM    8  H   UNL     1      40.835 -18.476   4.862  1.00  0.00     0.169 HD
HETATM    9  O   UNL     1      40.351 -16.882   6.449  1.00  0.00    -0.265 OA
BRANCH   7  10
HETATM   10  C   UNL     1      42.088 -17.669   3.430  1.00  0.00     0.068 A 
HETATM   11  C   UNL     1      41.607 -17.081   2.244  1.00  0.00     0.095 A 
HETATM   12  C   UNL     1      42.417 -17.103   1.100  1.00  0.00     0.039 A 
HETATM   13  C   UNL     1      43.661 -17.738   1.113  1.00  0.00     0.003 A 
HETATM   14  C   UNL     1      44.102 -18.380   2.263  1.00  0.00     0.002 A 
HETATM   15  C   UNL     1      43.314 -18.353   3.411  1.00  0.00     0.032 A 
BRANCH  11  16
HETATM   16  O   UNL     1      40.326 -16.593   2.257  1.00  0.00    -0.349 OA
BRANCH  16  17
HETATM   17  C   UNL     1      40.150 -15.178   2.261  1.00  0.00     0.171 C 
HETATM   18  C   UNL     1      38.773 -14.863   1.708  1.00  0.00     0.034 C 
ENDBRANCH  16  17
ENDBRANCH  11  16
ENDBRANCH   7  10
ENDBRANCH   1   6
BRANCH   5  19
HETATM   19  N   UNL     1      44.319 -16.824   7.019  1.00  0.00    -0.382 N 
HETATM   20  H   UNL     1      45.303 -17.012   6.809  1.00  0.00     0.157 HD
HETATM   21  H   UNL     1      43.894 -17.543   7.601  1.00  0.00     0.157 HD
ENDBRANCH   5  19
BRANCH   4  22
HETATM   22  C   UNL     1      45.371 -13.998   6.691  1.00  0.00     0.251 C 
BRANCH  22  23
HETATM   23  C   UNL     1      45.409 -13.011   7.827  1.00  0.00     0.241 C 
HETATM   24  N   UNL     1      44.240 -12.956   8.567  1.00  0.00    -0.326 N 
HETATM   25  H   UNL     1      43.593 -13.733   8.467  1.00  0.00     0.169 HD
HETATM   26  O   UNL     1      46.421 -12.339   8.028  1.00  0.00    -0.271 OA
BRANCH  24  27
HETATM   27  C   UNL     1      43.903 -11.988   9.535  1.00  0.00     0.034 A 
HETATM   28  C   UNL     1      44.440 -11.970  10.827  1.00  0.00     0.031 A 
HETATM   29  C   UNL     1      44.100 -10.950  11.723  1.00  0.00     0.026 A 
HETATM   30  C   UNL     1      43.218  -9.948  11.333  1.00  0.00     0.034 A 
HETATM   31 CL   UNL     1      42.807  -8.693  12.434  1.00  0.00    -0.084 Cl
HETATM   32  C   UNL     1      42.676  -9.954  10.051  1.00  0.00     0.026 A 
HETATM   33  C   UNL     1      43.023 -10.968   9.153  1.00  0.00     0.031 A 
ENDBRANCH  24  27
ENDBRANCH  22  23
ENDBRANCH   4  22
TORSDOF 8
ENDMDL
MODEL 5
REMARK VINA RESULT:      -7.7      1.500      2.588
REMARK  8 active torsions:
REMARK  status: ('A' for Active; 'I' for Inactive)
REMARK    1  A    between atoms: C_2  and  O_3 
REMARK    2  A    between atoms: O_3  and  C_4 
REMARK    3  A    between atoms: C_5  and  N_6 
REMARK       I    between atoms: N_6  and  C_7 
REMARK    4  A    between atoms: C_7  and  C_8 
REMARK    5  A    between atoms: N_11  and  C_12 
REMARK    6  A    between atoms: C_12  and  C_13 
REMARK       I    between atoms: C_13  and  N_14 
REMARK    7  A    between atoms: N_14  and  C_15 
REMARK    8  A    between atoms: C_23  and  N_24 
ROOT
HETATM    1  C   UNL     1      42.628 -15.418   4.591  1.00  0.00     0.187 A 
HETATM    2  N   UNL     1      43.288 -14.448   3.859  1.00  0.00    -0.150 NA
HETATM    3  N   UNL     1      44.103 -13.787   4.663  1.00  0.00     0.007 NA
HETATM    4  N   UNL     1      43.973 -14.317   5.889  1.00  0.00    -0.248 N 
HETATM    5  C   UNL     1      43.002 -15.289   5.926  1.00  0.00     0.151 A 
ENDROOT
BRANCH   1   6
HETATM    6  C   UNL     1      41.643 -16.279   3.945  1.00  0.00     0.280 C 
HETATM    7  N   UNL     1      41.733 -17.654   3.970  1.00  0.00    -0.319 N 
HETATM    8  H   UNL     1      40.827 -18.071   3.793  1.00  0.00     0.169 HD
HETATM    9  O   UNL     1      40.614 -15.805   3.450  1.00  0.00    -0.265 OA
BRANCH   7  10
HETATM   10  C   UNL     1      42.819 -18.543   4.081  1.00  0.00     0.068 A 
HETATM   11  C   UNL     1      43.563 -19.066   3.007  1.00  0.00     0.095 A 
HETATM   12  C   UNL     1      44.661 -19.893   3.282  1.00  0.00     0.039 A 
HETATM   13  C   UNL     1      44.989 -20.238   4.595  1.00  0.00     0.003 A 
HETATM   14  C   UNL     1      44.210 -19.779   5.650  1.00  0.00     0.002 A 
HETATM   15  C   UNL     1      43.125 -18.945   5.392  1.00  0.00     0.032 A 
BRANCH  11  16
HETATM   16  O   UNL     1      43.112 -18.802   1.740  1.00  0.00    -0.349 OA
BRANCH  16  17
HETATM   17  C   UNL     1      43.663 -17.679   1.055  1.00  0.00     0.171 C 
HETATM   18  C   UNL     1      42.522 -16.828   0.530  1.00  0.00     0.034 C 
ENDBRANCH  16  17
ENDBRANCH  11  16
ENDBRANCH   7  10
ENDBRANCH   1   6
BRANCH   5  19
HETATM   19  N   UNL     1      42.605 -15.882   7.075  1.00  0.00    -0.382 N 
HETATM   20  H   UNL     1      42.850 -15.565   8.017  1.00  0.00     0.157 HD
HETATM   21  H   UNL     1      42.101 -16.767   7.074  1.00  0.00     0.157 HD
ENDBRANCH   5  19
BRANCH   4  22
HETATM   22  C   UNL     1      44.888 -13.891   6.919  1.00  0.00     0.251 C 
BRANCH  22  23
HETATM   23  C   UNL     1      44.301 -12.838   7.821  1.00  0.00     0.241 C 
HETATM   24  N   UNL     1      44.975 -12.685   9.022  1.00  0.00    -0.326 N 
HETATM   25  H   UNL     1      45.913 -13.070   9.078  1.00  0.00     0.169 HD
HETATM   26  O   UNL     1      43.308 -12.203   7.466  1.00  0.00    -0.271 OA
BRANCH  24  27
HETATM   27  C   UNL     1      44.538 -11.947  10.141  1.00  0.00     0.034 A 
HETATM   28  C   UNL     1      44.523 -10.550  10.185  1.00  0.00     0.031 A 
HETATM   29  C   UNL     1      44.030  -9.879  11.311  1.00  0.00     0.026 A 
HETATM   30  C   UNL     1      43.555 -10.605  12.398  1.00  0.00     0.034 A 
HETATM   31 CL   UNL     1      42.944  -9.780  13.777  1.00  0.00    -0.084 Cl
HETATM   32  C   UNL     1      43.565 -11.997  12.369  1.00  0.00     0.026 A 
HETATM   33  C   UNL     1      44.050 -12.666  11.240  1.00  0.00     0.031 A 
ENDBRANCH  24  27
ENDBRANCH  22  23
ENDBRANCH   4  22
TORSDOF 8
ENDMDL
MODEL 6
REMARK VINA RESULT:      -7.5      6.016      9.036
REMARK  8 active torsions:
REMARK  status: ('A' for Active; 'I' for Inactive)
REMARK    1  A    between atoms: C_2  and  O_3 
REMARK    2  A    between atoms: O_3  and  C_4 
REMARK    3  A    between atoms: C_5  and  N_6 
REMARK       I    between atoms: N_6  and  C_7 
REMARK    4  A    between atoms: C_7  and  C_8 
REMARK    5  A    between atoms: N_11  and  C_12 
REMARK    6  A    between atoms: C_12  and  C_13 
REMARK       I    between atoms: C_13  and  N_14 
REMARK    7  A    between atoms: N_14  and  C_15 
REMARK    8  A    between atoms: C_23  and  N_24 
ROOT
HETATM    1  C   UNL     1      41.804 -13.761   0.228  1.00  0.00     0.187 A 
HETATM    2  N   UNL     1      41.560 -15.105   0.015  1.00  0.00    -0.150 NA
HETATM    3  N   UNL     1      41.469 -15.714   1.185  1.00  0.00     0.007 NA
HETATM    4  N   UNL     1      41.651 -14.784   2.135  1.00  0.00    -0.248 N 
HETATM    5  C   UNL     1      41.949 -13.554   1.597  1.00  0.00     0.151 A 
ENDROOT
BRANCH   1   6
HETATM    6  C   UNL     1      41.974 -12.859  -0.905  1.00  0.00     0.280 C 
HETATM    7  N   UNL     1      41.007 -12.695  -1.873  1.00  0.00    -0.319 N 
HETATM    8  H   UNL     1      41.136 -11.816  -2.358  1.00  0.00     0.169 HD
HETATM    9  O   UNL     1      42.952 -12.106  -0.976  1.00  0.00    -0.265 OA
BRANCH   7  10
HETATM   10  C   UNL     1      39.988 -13.535  -2.362  1.00  0.00     0.068 A 
HETATM   11  C   UNL     1      38.645 -13.527  -1.938  1.00  0.00     0.095 A 
HETATM   12  C   UNL     1      37.730 -14.383  -2.567  1.00  0.00     0.039 A 
HETATM   13  C   UNL     1      38.144 -15.268  -3.565  1.00  0.00     0.003 A 
HETATM   14  C   UNL     1      39.483 -15.326  -3.932  1.00  0.00     0.002 A 
HETATM   15  C   UNL     1      40.400 -14.471  -3.325  1.00  0.00     0.032 A 
BRANCH  11  16
HETATM   16  O   UNL     1      38.328 -12.735  -0.865  1.00  0.00    -0.349 OA
BRANCH  16  17
HETATM   17  C   UNL     1      37.406 -13.248   0.095  1.00  0.00     0.171 C 
HETATM   18  C   UNL     1      38.160 -14.156   1.048  1.00  0.00     0.034 C 
ENDBRANCH  16  17
ENDBRANCH  11  16
ENDBRANCH   7  10
ENDBRANCH   1   6
BRANCH   5  19
HETATM   19  N   UNL     1      42.293 -12.489   2.357  1.00  0.00    -0.382 N 
HETATM   20  H   UNL     1      42.115 -12.398   3.361  1.00  0.00     0.157 HD
HETATM   21  H   UNL     1      42.678 -11.641   1.945  1.00  0.00     0.157 HD
ENDBRANCH   5  19
BRANCH   4  22
HETATM   22  C   UNL     1      41.424 -15.156   3.509  1.00  0.00     0.251 C 
BRANCH  22  23
HETATM   23  C   UNL     1      41.765 -16.597   3.788  1.00  0.00     0.241 C 
HETATM   24  N   UNL     1      42.996 -16.991   3.291  1.00  0.00    -0.326 N 
HETATM   25  H   UNL     1      43.651 -16.257   3.040  1.00  0.00     0.169 HD
HETATM   26  O   UNL     1      40.976 -17.309   4.408  1.00  0.00    -0.271 OA
BRANCH  24  27
HETATM   27  C   UNL     1      43.482 -18.312   3.204  1.00  0.00     0.034 A 
HETATM   28  C   UNL     1      44.241 -18.922   4.208  1.00  0.00     0.031 A 
HETATM   29  C   UNL     1      44.650 -20.255   4.079  1.00  0.00     0.026 A 
HETATM   30  C   UNL     1      44.305 -20.981   2.944  1.00  0.00     0.034 A 
HETATM   31 CL   UNL     1      44.803 -22.619   2.790  1.00  0.00    -0.084 Cl
HETATM   32  C   UNL     1      43.550 -20.386   1.936  1.00  0.00     0.026 A 
HETATM   33  C   UNL     1      43.135 -19.057   2.070  1.00  0.00     0.031 A 
ENDBRANCH  24  27
ENDBRANCH  22  23
ENDBRANCH   4  22
TORSDOF 8
ENDMDL
MODEL 7
REMARK VINA RESULT:      -7.5      1.574      2.039
REMARK  8 active torsions:
REMARK  status: ('A' for Active; 'I' for Inactive)
REMARK    1  A    between atoms: C_2  and  O_3 
REMARK    2  A    between atoms: O_3  and  C_4 
REMARK    3  A    between atoms: C_5  and  N_6 
REMARK       I    between atoms: N_6  and  C_7 
REMARK    4  A    between atoms: C_7  and  C_8 
REMARK    5  A    between atoms: N_11  and  C_12 
REMARK    6  A    between atoms: C_12  and  C_13 
REMARK       I    between atoms: C_13  and  N_14 
REMARK    7  A    between atoms: N_14  and  C_15 
REMARK    8  A    between atoms: C_23  and  N_24 
ROOT
HETATM    1  C   UNL     1      42.436 -15.139   4.258  1.00  0.00     0.187 A 
HETATM    2  N   UNL     1      43.335 -14.361   3.552  1.00  0.00    -0.150 NA
HETATM    3  N   UNL     1      44.183 -13.809   4.402  1.00  0.00     0.007 NA
HETATM    4  N   UNL     1      43.839 -14.220   5.634  1.00  0.00    -0.248 N 
HETATM    5  C   UNL     1      42.700 -14.989   5.617  1.00  0.00     0.151 A 
ENDROOT
BRANCH   1   6
HETATM    6  C   UNL     1      41.369 -15.844   3.557  1.00  0.00     0.280 C 
HETATM    7  N   UNL     1      41.408 -17.202   3.323  1.00  0.00    -0.319 N 
HETATM    8  H   UNL     1      40.476 -17.560   3.154  1.00  0.00     0.169 HD
HETATM    9  O   UNL     1      40.320 -15.265   3.250  1.00  0.00    -0.265 OA
BRANCH   7  10
HETATM   10  C   UNL     1      42.466 -18.119   3.174  1.00  0.00     0.068 A 
HETATM   11  C   UNL     1      43.143 -18.766   4.225  1.00  0.00     0.095 A 
HETATM   12  C   UNL     1      44.137 -19.706   3.914  1.00  0.00     0.039 A 
HETATM   13  C   UNL     1      44.490 -19.965   2.588  1.00  0.00     0.003 A 
HETATM   14  C   UNL     1      43.871 -19.273   1.555  1.00  0.00     0.002 A 
HETATM   15  C   UNL     1      42.872 -18.347   1.849  1.00  0.00     0.032 A 
BRANCH  11  16
HETATM   16  O   UNL     1      42.847 -18.372   5.504  1.00  0.00    -0.349 OA
BRANCH  16  17
HETATM   17  C   UNL     1      43.917 -18.291   6.443  1.00  0.00     0.171 C 
HETATM   18  C   UNL     1      43.739 -19.392   7.471  1.00  0.00     0.034 C 
ENDBRANCH  16  17
ENDBRANCH  11  16
ENDBRANCH   7  10
ENDBRANCH   1   6
BRANCH   5  19
HETATM   19  N   UNL     1      42.091 -15.416   6.747  1.00  0.00    -0.382 N 
HETATM   20  H   UNL     1      42.303 -15.085   7.692  1.00  0.00     0.157 HD
HETATM   21  H   UNL     1      41.428 -16.189   6.737  1.00  0.00     0.157 HD
ENDBRANCH   5  19
BRANCH   4  22
HETATM   22  C   UNL     1      44.718 -13.900   6.731  1.00  0.00     0.251 C 
BRANCH  22  23
HETATM   23  C   UNL     1      44.130 -12.884   7.674  1.00  0.00     0.241 C 
HETATM   24  N   UNL     1      44.835 -12.738   8.857  1.00  0.00    -0.326 N 
HETATM   25  H   UNL     1      45.784 -13.097   8.877  1.00  0.00     0.169 HD
HETATM   26  O   UNL     1      43.109 -12.270   7.362  1.00  0.00    -0.271 OA
BRANCH  24  27
HETATM   27  C   UNL     1      44.411 -12.037  10.005  1.00  0.00     0.034 A 
HETATM   28  C   UNL     1      43.988 -12.667  11.180  1.00  0.00     0.031 A 
HETATM   29  C   UNL     1      43.627 -11.911  12.301  1.00  0.00     0.026 A 
HETATM   30  C   UNL     1      43.682 -10.522  12.250  1.00  0.00     0.034 A 
HETATM   31 CL   UNL     1      43.244  -9.595  13.630  1.00  0.00    -0.084 Cl
HETATM   32  C   UNL     1      44.100  -9.882  11.086  1.00  0.00     0.026 A 
HETATM   33  C   UNL     1      44.469 -10.638   9.969  1.00  0.00     0.031 A 
ENDBRANCH  24  27
ENDBRANCH  22  23
ENDBRANCH   4  22
TORSDOF 8
ENDMDL
MODEL 8
REMARK VINA RESULT:      -7.3      1.948      2.550
REMARK  8 active torsions:
REMARK  status: ('A' for Active; 'I' for Inactive)
REMARK    1  A    between atoms: C_2  and  O_3 
REMARK    2  A    between atoms: O_3  and  C_4 
REMARK    3  A    between atoms: C_5  and  N_6 
REMARK       I    between atoms: N_6  and  C_7 
REMARK    4  A    between atoms: C_7  and  C_8 
REMARK    5  A    between atoms: N_11  and  C_12 
REMARK    6  A    between atoms: C_12  and  C_13 
REMARK       I    between atoms: C_13  and  N_14 
REMARK    7  A    between atoms: N_14  and  C_15 
REMARK    8  A    between atoms: C_23  and  N_24 
ROOT
HETATM    1  C   UNL     1      41.290 -15.311   5.847  1.00  0.00     0.187 A 
HETATM    2  N   UNL     1      42.604 -14.951   5.611  1.00  0.00    -0.150 NA
HETATM    3  N   UNL     1      42.683 -13.633   5.553  1.00  0.00     0.007 NA
HETATM    4  N   UNL     1      41.445 -13.150   5.746  1.00  0.00    -0.248 N 
HETATM    5  C   UNL     1      40.514 -14.156   5.853  1.00  0.00     0.151 A 
ENDROOT
BRANCH   1   6
HETATM    6  C   UNL     1      40.921 -16.720   5.931  1.00  0.00     0.280 C 
HETATM    7  N   UNL     1      41.515 -17.688   5.150  1.00  0.00    -0.319 N 
HETATM    8  H   UNL     1      41.400 -18.602   5.571  1.00  0.00     0.169 HD
HETATM    9  O   UNL     1      40.141 -17.121   6.802  1.00  0.00    -0.265 OA
BRANCH   7  10
HETATM   10  C   UNL     1      42.125 -17.657   3.882  1.00  0.00     0.068 A 
HETATM   11  C   UNL     1      43.461 -18.008   3.607  1.00  0.00     0.095 A 
HETATM   12  C   UNL     1      43.908 -17.986   2.278  1.00  0.00     0.039 A 
HETATM   13  C   UNL     1      43.063 -17.576   1.243  1.00  0.00     0.003 A 
HETATM   14  C   UNL     1      41.768 -17.161   1.526  1.00  0.00     0.002 A 
HETATM   15  C   UNL     1      41.307 -17.192   2.840  1.00  0.00     0.032 A 
BRANCH  11  16
HETATM   16  O   UNL     1      44.277 -18.270   4.677  1.00  0.00    -0.349 OA
BRANCH  16  17
HETATM   17  C   UNL     1      44.768 -19.601   4.832  1.00  0.00     0.171 C 
HETATM   18  C   UNL     1      44.152 -20.198   6.083  1.00  0.00     0.034 C 
ENDBRANCH  16  17
ENDBRANCH  11  16
ENDBRANCH   7  10
ENDBRANCH   1   6
BRANCH   5  19
HETATM   19  N   UNL     1      39.185 -13.916   5.929  1.00  0.00    -0.382 N 
HETATM   20  H   UNL     1      38.684 -13.199   5.396  1.00  0.00     0.157 HD
HETATM   21  H   UNL     1      38.595 -14.383   6.614  1.00  0.00     0.157 HD
ENDBRANCH   5  19
BRANCH   4  22
HETATM   22  C   UNL     1      41.284 -11.726   5.907  1.00  0.00     0.251 C 
BRANCH  22  23
HETATM   23  C   UNL     1      41.188 -11.309   7.350  1.00  0.00     0.241 C 
HETATM   24  N   UNL     1      42.378 -10.841   7.883  1.00  0.00    -0.326 N 
HETATM   25  H   UNL     1      43.104 -10.571   7.226  1.00  0.00     0.169 HD
HETATM   26  O   UNL     1      40.117 -11.400   7.950  1.00  0.00    -0.271 OA
BRANCH  24  27
HETATM   27  C   UNL     1      42.648 -10.592   9.244  1.00  0.00     0.034 A 
HETATM   28  C   UNL     1      43.596 -11.305   9.985  1.00  0.00     0.031 A 
HETATM   29  C   UNL     1      43.850 -10.973  11.321  1.00  0.00     0.026 A 
HETATM   30  C   UNL     1      43.152  -9.931  11.922  1.00  0.00     0.034 A 
HETATM   31 CL   UNL     1      43.469  -9.521  13.562  1.00  0.00    -0.084 Cl
HETATM   32  C   UNL     1      42.205  -9.213  11.197  1.00  0.00     0.026 A 
HETATM   33  C   UNL     1      41.958  -9.540   9.859  1.00  0.00     0.031 A 
ENDBRANCH  24  27
ENDBRANCH  22  23
ENDBRANCH   4  22
TORSDOF 8
ENDMDL
MODEL 9
REMARK VINA RESULT:      -7.3      4.586      7.682
REMARK  8 active torsions:
REMARK  status: ('A' for Active; 'I' for Inactive)
REMARK    1  A    between atoms: C_2  and  O_3 
REMARK    2  A    between atoms: O_3  and  C_4 
REMARK    3  A    between atoms: C_5  and  N_6 
REMARK       I    between atoms: N_6  and  C_7 
REMARK    4  A    between atoms: C_7  and  C_8 
REMARK    5  A    between atoms: N_11  and  C_12 
REMARK    6  A    between atoms: C_12  and  C_13 
REMARK       I    between atoms: C_13  and  N_14 
REMARK    7  A    between atoms: N_14  and  C_15 
REMARK    8  A    between atoms: C_23  and  N_24 
ROOT
HETATM    1  C   UNL     1      42.711 -15.708   6.551  1.00  0.00     0.187 A 
HETATM    2  N   UNL     1      41.833 -16.775   6.594  1.00  0.00    -0.150 NA
HETATM    3  N   UNL     1      40.661 -16.384   6.122  1.00  0.00     0.007 NA
HETATM    4  N   UNL     1      40.778 -15.090   5.783  1.00  0.00    -0.248 N 
HETATM    5  C   UNL     1      42.016 -14.587   6.106  1.00  0.00     0.151 A 
ENDROOT
BRANCH   1   6
HETATM    6  C   UNL     1      44.076 -15.863   7.042  1.00  0.00     0.280 C 
HETATM    7  N   UNL     1      44.808 -17.014   6.842  1.00  0.00    -0.319 N 
HETATM    8  H   UNL     1      45.798 -16.824   6.929  1.00  0.00     0.169 HD
HETATM    9  O   UNL     1      44.678 -14.912   7.553  1.00  0.00    -0.265 OA
BRANCH   7  10
HETATM   10  C   UNL     1      44.445 -18.361   6.659  1.00  0.00     0.068 A 
HETATM   11  C   UNL     1      44.378 -19.031   5.422  1.00  0.00     0.095 A 
HETATM   12  C   UNL     1      44.060 -20.397   5.406  1.00  0.00     0.039 A 
HETATM   13  C   UNL     1      43.766 -21.079   6.589  1.00  0.00     0.003 A 
HETATM   14  C   UNL     1      43.761 -20.400   7.801  1.00  0.00     0.002 A 
HETATM   15  C   UNL     1      44.089 -19.046   7.833  1.00  0.00     0.032 A 
BRANCH  11  16
HETATM   16  O   UNL     1      44.544 -18.279   4.288  1.00  0.00    -0.349 OA
BRANCH  16  17
HETATM   17  C   UNL     1      43.413 -18.087   3.440  1.00  0.00     0.171 C 
HETATM   18  C   UNL     1      43.797 -18.488   2.029  1.00  0.00     0.034 C 
ENDBRANCH  16  17
ENDBRANCH  11  16
ENDBRANCH   7  10
ENDBRANCH   1   6
BRANCH   5  19
HETATM   19  N   UNL     1      42.329 -13.277   5.973  1.00  0.00    -0.382 N 
HETATM   20  H   UNL     1      43.230 -12.917   5.647  1.00  0.00     0.157 HD
HETATM   21  H   UNL     1      41.701 -12.542   6.291  1.00  0.00     0.157 HD
ENDBRANCH   5  19
BRANCH   4  22
HETATM   22  C   UNL     1      39.688 -14.468   5.075  1.00  0.00     0.251 C 
BRANCH  22  23
HETATM   23  C   UNL     1      40.039 -14.118   3.653  1.00  0.00     0.241 C 
HETATM   24  N   UNL     1      39.738 -15.112   2.736  1.00  0.00    -0.326 N 
HETATM   25  H   UNL     1      39.092 -15.836   3.035  1.00  0.00     0.169 HD
HETATM   26  O   UNL     1      40.547 -13.028   3.393  1.00  0.00    -0.271 OA
BRANCH  24  27
HETATM   27  C   UNL     1      40.148 -15.162   1.388  1.00  0.00     0.034 A 
HETATM   28  C   UNL     1      41.105 -16.061   0.906  1.00  0.00     0.031 A 
HETATM   29  C   UNL     1      41.430 -16.091  -0.455  1.00  0.00     0.026 A 
HETATM   30  C   UNL     1      40.803 -15.218  -1.338  1.00  0.00     0.034 A 
HETATM   31 CL   UNL     1      41.199 -15.260  -3.011  1.00  0.00    -0.084 Cl
HETATM   32  C   UNL     1      39.849 -14.317  -0.872  1.00  0.00     0.026 A 
HETATM   33  C   UNL     1      39.519 -14.294   0.487  1.00  0.00     0.031 A 
ENDBRANCH  24  27
ENDBRANCH  22  23
ENDBRANCH   4  22
TORSDOF 8
ENDMDL
MODEL 10
REMARK VINA RESULT:      -7.2      4.764      7.162
REMARK  8 active torsions:
REMARK  status: ('A' for Active; 'I' for Inactive)
REMARK    1  A    between atoms: C_2  and  O_3 
REMARK    2  A    between atoms: O_3  and  C_4 
REMARK    3  A    between atoms: C_5  and  N_6 
REMARK       I    between atoms: N_6  and  C_7 
REMARK    4  A    between atoms: C_7  and  C_8 
REMARK    5  A    between atoms: N_11  and  C_12 
REMARK    6  A    between atoms: C_12  and  C_13 
REMARK       I    between atoms: C_13  and  N_14 
REMARK    7  A    between atoms: N_14  and  C_15 
REMARK    8  A    between atoms: C_23  and  N_24 
ROOT
HETATM    1  C   UNL     1      42.412 -16.077   6.329  1.00  0.00     0.187 A 
HETATM    2  N   UNL     1      41.095 -16.469   6.176  1.00  0.00    -0.150 NA
HETATM    3  N   UNL     1      40.406 -15.461   5.668  1.00  0.00     0.007 NA
HETATM    4  N   UNL     1      41.259 -14.439   5.498  1.00  0.00    -0.248 N 
HETATM    5  C   UNL     1      42.515 -14.736   5.972  1.00  0.00     0.151 A 
ENDROOT
BRANCH   1   6
HETATM    6  C   UNL     1      43.389 -17.000   6.899  1.00  0.00     0.280 C 
HETATM    7  N   UNL     1      44.225 -17.768   6.117  1.00  0.00    -0.319 N 
HETATM    8  H   UNL     1      45.035 -18.063   6.649  1.00  0.00     0.169 HD
HETATM    9  O   UNL     1      43.590 -17.038   8.118  1.00  0.00    -0.265 OA
BRANCH   7  10
HETATM   10  C   UNL     1      44.113 -18.284   4.812  1.00  0.00     0.068 A 
HETATM   11  C   UNL     1      44.413 -19.604   4.425  1.00  0.00     0.095 A 
HETATM   12  C   UNL     1      44.189 -19.987   3.095  1.00  0.00     0.039 A 
HETATM   13  C   UNL     1      43.722 -19.069   2.151  1.00  0.00     0.003 A 
HETATM   14  C   UNL     1      43.496 -17.748   2.519  1.00  0.00     0.002 A 
HETATM   15  C   UNL     1      43.701 -17.357   3.840  1.00  0.00     0.032 A 
BRANCH  11  16
HETATM   16  O   UNL     1      44.993 -20.420   5.361  1.00  0.00    -0.349 OA
BRANCH  16  17
HETATM   17  C   UNL     1      44.240 -21.535   5.835  1.00  0.00     0.171 C 
HETATM   18  C   UNL     1      43.632 -21.169   7.175  1.00  0.00     0.034 C 
ENDBRANCH  16  17
ENDBRANCH  11  16
ENDBRANCH   7  10
ENDBRANCH   1   6
BRANCH   5  19
HETATM   19  N   UNL     1      43.512 -13.823   6.021  1.00  0.00    -0.382 N 
HETATM   20  H   UNL     1      44.478 -14.019   6.296  1.00  0.00     0.157 HD
HETATM   21  H   UNL     1      43.336 -12.830   5.877  1.00  0.00     0.157 HD
ENDBRANCH   5  19
BRANCH   4  22
HETATM   22  C   UNL     1      40.795 -13.272   4.790  1.00  0.00     0.251 C 
BRANCH  22  23
HETATM   23  C   UNL     1      41.137 -13.304   3.323  1.00  0.00     0.241 C 
HETATM   24  N   UNL     1      40.312 -14.122   2.569  1.00  0.00    -0.326 N 
HETATM   25  H   UNL     1      39.428 -14.398   2.986  1.00  0.00     0.169 HD
HETATM   26  O   UNL     1      42.080 -12.640   2.894  1.00  0.00    -0.271 OA
BRANCH  24  27
HETATM   27  C   UNL     1      40.519 -14.520   1.233  1.00  0.00     0.034 A 
HETATM   28  C   UNL     1      41.257 -15.652   0.871  1.00  0.00     0.031 A 
HETATM   29  C   UNL     1      41.383 -16.018  -0.474  1.00  0.00     0.026 A 
HETATM   30  C   UNL     1      40.775 -15.251  -1.463  1.00  0.00     0.034 A 
HETATM   31 CL   UNL     1      40.926 -15.706  -3.114  1.00  0.00    -0.084 Cl
HETATM   32  C   UNL     1      40.039 -14.121  -1.117  1.00  0.00     0.026 A 
HETATM   33  C   UNL     1      39.906 -13.760   0.228  1.00  0.00     0.031 A 
ENDBRANCH  24  27
ENDBRANCH  22  23
ENDBRANCH   4  22
TORSDOF 8
ENDMDL
