MODEL 1
REMARK VINA RESULT:      -8.0      0.000      0.000
REMARK  5 active torsions:
REMARK  status: ('A' for Active; 'I' for Inactive)
REMARK    1  A    between atoms: C_3  and  N_4 
REMARK    2  A    between atoms: N_4  and  C_5 
REMARK    3  A    between atoms: C_5  and  C_6 
REMARK    4  A    between atoms: C_8  and  N_9 
REMARK    5  A    between atoms: C_18  and  C_19 
ROOT
HETATM    1  C   UNL     1      40.834 -15.807   6.152  1.00  0.00     0.053 C 
HETATM    2  C   UNL     1      41.681 -16.894   5.548  1.00  0.00    -0.005 A 
HETATM    3  C   UNL     1      41.492 -17.155   4.060  1.00  0.00     0.151 A 
HETATM    4  N   UNL     1      42.200 -18.032   3.396  1.00  0.00    -0.146 NA
HETATM    5  N   UNL     1      43.104 -18.709   4.138  1.00  0.00    -0.187 N 
HETATM    6  C   UNL     1      43.353 -18.573   5.483  1.00  0.00     0.181 A 
HETATM    7  C   UNL     1      42.607 -17.615   6.224  1.00  0.00    -0.003 A 
HETATM    8  C   UNL     1      42.840 -17.420   7.704  1.00  0.00     0.053 C 
HETATM    9  C   UNL     1      43.954 -19.689   3.707  1.00  0.00     0.258 A 
HETATM   10  N   UNL     1      44.681 -20.121   4.724  1.00  0.00    -0.123 NA
HETATM   11  N   UNL     1      44.301 -19.416   5.841  1.00  0.00    -0.128 NA
ENDROOT
BRANCH   3  12
HETATM   12  N   UNL     1      40.547 -16.451   3.355  1.00  0.00    -0.366 N 
HETATM   13  H   UNL     1      39.694 -16.153   3.821  1.00  0.00     0.161 HD
BRANCH  12  14
HETATM   14  C   UNL     1      40.346 -16.613   1.916  1.00  0.00     0.201 C 
BRANCH  14  15
HETATM   15  C   UNL     1      40.871 -15.411   1.147  1.00  0.00     0.144 A 
HETATM   16  N   UNL     1      41.412 -14.398   1.855  1.00  0.00    -0.220 NA
HETATM   17  C   UNL     1      41.892 -13.361   1.160  1.00  0.00     0.104 A 
HETATM   18  C   UNL     1      41.849 -13.299  -0.214  1.00  0.00     0.063 A 
HETATM   19  C   UNL     1      41.290 -14.380  -0.852  1.00  0.00     0.122 A 
HETATM   20  N   UNL     1      40.797 -15.451  -0.205  1.00  0.00    -0.244 NA
BRANCH  17  21
HETATM   21  N   UNL     1      42.411 -12.303   1.899  1.00  0.00    -0.287 NA
HETATM   22  H   UNL     1      41.677 -11.605   1.996  1.00  0.00     0.125 HD
HETATM   23  H   UNL     1      42.764 -12.602   2.801  1.00  0.00     0.125 HD
ENDBRANCH  17  21
ENDBRANCH  14  15
ENDBRANCH  12  14
ENDBRANCH   3  12
BRANCH   9  24
HETATM   24  C   UNL     1      43.970 -20.119   2.304  1.00  0.00     0.454 C 
HETATM   25  F   UNL     1      44.906 -21.077   2.058  1.00  0.00    -0.163 F 
HETATM   26  F   UNL     1      42.774 -20.628   1.901  1.00  0.00    -0.163 F 
HETATM   27  F   UNL     1      44.251 -19.097   1.450  1.00  0.00    -0.163 F 
ENDBRANCH   9  24
TORSDOF 5
ENDMDL
MODEL 2
REMARK VINA RESULT:      -7.9      0.536      1.524
REMARK  5 active torsions:
REMARK  status: ('A' for Active; 'I' for Inactive)
REMARK    1  A    between atoms: C_3  and  N_4 
REMARK    2  A    between atoms: N_4  and  C_5 
REMARK    3  A    between atoms: C_5  and  C_6 
REMARK    4  A    between atoms: C_8  and  N_9 
REMARK    5  A    between atoms: C_18  and  C_19 
ROOT
HETATM    1  C   UNL     1      40.910 -15.924   6.234  1.00  0.00     0.053 C 
HETATM    2  C   UNL     1      41.744 -16.997   5.592  1.00  0.00    -0.005 A 
HETATM    3  C   UNL     1      41.504 -17.249   4.109  1.00  0.00     0.151 A 
HETATM    4  N   UNL     1      42.196 -18.114   3.413  1.00  0.00    -0.146 NA
HETATM    5  N   UNL     1      43.133 -18.787   4.117  1.00  0.00    -0.187 N 
HETATM    6  C   UNL     1      43.430 -18.659   5.452  1.00  0.00     0.181 A 
HETATM    7  C   UNL     1      42.702 -17.714   6.228  1.00  0.00    -0.003 A 
HETATM    8  C   UNL     1      42.987 -17.527   7.700  1.00  0.00     0.053 C 
HETATM    9  C   UNL     1      43.976 -19.755   3.647  1.00  0.00     0.258 A 
HETATM   10  N   UNL     1      44.744 -20.187   4.634  1.00  0.00    -0.123 NA
HETATM   11  N   UNL     1      44.398 -19.494   5.769  1.00  0.00    -0.128 NA
ENDROOT
BRANCH   3  12
HETATM   12  N   UNL     1      40.526 -16.550   3.444  1.00  0.00    -0.366 N 
HETATM   13  H   UNL     1      39.641 -16.363   3.909  1.00  0.00     0.161 HD
BRANCH  12  14
HETATM   14  C   UNL     1      40.375 -16.584   1.991  1.00  0.00     0.201 C 
BRANCH  14  15
HETATM   15  C   UNL     1      40.929 -15.321   1.350  1.00  0.00     0.144 A 
HETATM   16  N   UNL     1      41.147 -15.334   0.019  1.00  0.00    -0.220 NA
HETATM   17  C   UNL     1      41.609 -14.206  -0.531  1.00  0.00     0.104 A 
HETATM   18  C   UNL     1      41.864 -13.068   0.200  1.00  0.00     0.063 A 
HETATM   19  C   UNL     1      41.603 -13.143   1.547  1.00  0.00     0.122 A 
HETATM   20  N   UNL     1      41.132 -14.248   2.152  1.00  0.00    -0.244 NA
BRANCH  17  21
HETATM   21  N   UNL     1      41.870 -14.241  -1.898  1.00  0.00    -0.287 NA
HETATM   22  H   UNL     1      40.977 -14.187  -2.384  1.00  0.00     0.125 HD
HETATM   23  H   UNL     1      42.498 -13.500  -2.187  1.00  0.00     0.125 HD
ENDBRANCH  17  21
ENDBRANCH  14  15
ENDBRANCH  12  14
ENDBRANCH   3  12
BRANCH   9  24
HETATM   24  C   UNL     1      43.945 -20.175   2.241  1.00  0.00     0.454 C 
HETATM   25  F   UNL     1      44.191 -19.150   1.381  1.00  0.00    -0.163 F 
HETATM   26  F   UNL     1      44.859 -21.145   1.966  1.00  0.00    -0.163 F 
HETATM   27  F   UNL     1      42.736 -20.684   1.878  1.00  0.00    -0.163 F 
ENDBRANCH   9  24
TORSDOF 5
ENDMDL
MODEL 3
REMARK VINA RESULT:      -7.8      2.911      4.095
REMARK  5 active torsions:
REMARK  status: ('A' for Active; 'I' for Inactive)
REMARK    1  A    between atoms: C_3  and  N_4 
REMARK    2  A    between atoms: N_4  and  C_5 
REMARK    3  A    between atoms: C_5  and  C_6 
REMARK    4  A    between atoms: C_8  and  N_9 
REMARK    5  A    between atoms: C_18  and  C_19 
ROOT
HETATM    1  C   UNL     1      43.776 -17.965   1.108  1.00  0.00     0.053 C 
HETATM    2  C   UNL     1      43.792 -18.081   2.607  1.00  0.00    -0.005 A 
HETATM    3  C   UNL     1      43.442 -16.823   3.391  1.00  0.00     0.151 A 
HETATM    4  N   UNL     1      43.366 -16.796   4.696  1.00  0.00    -0.146 NA
HETATM    5  N   UNL     1      43.642 -17.971   5.304  1.00  0.00    -0.187 N 
HETATM    6  C   UNL     1      43.983 -19.162   4.709  1.00  0.00     0.181 A 
HETATM    7  C   UNL     1      44.058 -19.221   3.290  1.00  0.00    -0.003 A 
HETATM    8  C   UNL     1      44.425 -20.504   2.580  1.00  0.00     0.053 C 
HETATM    9  C   UNL     1      43.657 -18.218   6.649  1.00  0.00     0.258 A 
HETATM   10  N   UNL     1      43.980 -19.483   6.861  1.00  0.00    -0.123 NA
HETATM   11  N   UNL     1      44.185 -20.074   5.638  1.00  0.00    -0.128 NA
ENDROOT
BRANCH   3  12
HETATM   12  N   UNL     1      43.187 -15.649   2.724  1.00  0.00    -0.366 N 
HETATM   13  H   UNL     1      43.868 -14.895   2.760  1.00  0.00     0.161 HD
BRANCH  12  14
HETATM   14  C   UNL     1      41.834 -15.143   2.500  1.00  0.00     0.201 C 
BRANCH  14  15
HETATM   15  C   UNL     1      41.667 -14.629   1.078  1.00  0.00     0.144 A 
HETATM   16  N   UNL     1      41.187 -15.484   0.152  1.00  0.00    -0.220 NA
HETATM   17  C   UNL     1      41.023 -15.006  -1.086  1.00  0.00     0.104 A 
HETATM   18  C   UNL     1      41.323 -13.708  -1.432  1.00  0.00     0.063 A 
HETATM   19  C   UNL     1      41.797 -12.906  -0.422  1.00  0.00     0.122 A 
HETATM   20  N   UNL     1      41.976 -13.332   0.841  1.00  0.00    -0.244 NA
BRANCH  17  21
HETATM   21  N   UNL     1      40.565 -15.905  -2.045  1.00  0.00    -0.287 NA
HETATM   22  H   UNL     1      39.774 -15.475  -2.518  1.00  0.00     0.125 HD
HETATM   23  H   UNL     1      41.293 -16.171  -2.699  1.00  0.00     0.125 HD
ENDBRANCH  17  21
ENDBRANCH  14  15
ENDBRANCH  12  14
ENDBRANCH   3  12
BRANCH   9  24
HETATM   24  C   UNL     1      43.345 -17.163   7.620  1.00  0.00     0.454 C 
HETATM   25  F   UNL     1      44.130 -16.061   7.469  1.00  0.00    -0.163 F 
HETATM   26  F   UNL     1      42.055 -16.739   7.533  1.00  0.00    -0.163 F 
HETATM   27  F   UNL     1      43.521 -17.572   8.906  1.00  0.00    -0.163 F 
ENDBRANCH   9  24
TORSDOF 5
ENDMDL
MODEL 4
REMARK VINA RESULT:      -7.7      3.379      4.562
REMARK  5 active torsions:
REMARK  status: ('A' for Active; 'I' for Inactive)
REMARK    1  A    between atoms: C_3  and  N_4 
REMARK    2  A    between atoms: N_4  and  C_5 
REMARK    3  A    between atoms: C_5  and  C_6 
REMARK    4  A    between atoms: C_8  and  N_9 
REMARK    5  A    between atoms: C_18  and  C_19 
ROOT
HETATM    1  C   UNL     1      43.646 -17.834   1.062  1.00  0.00     0.053 C 
HETATM    2  C   UNL     1      43.718 -18.024   2.552  1.00  0.00    -0.005 A 
HETATM    3  C   UNL     1      43.392 -16.807   3.408  1.00  0.00     0.151 A 
HETATM    4  N   UNL     1      43.363 -16.845   4.715  1.00  0.00    -0.146 NA
HETATM    5  N   UNL     1      43.668 -18.046   5.255  1.00  0.00    -0.187 N 
HETATM    6  C   UNL     1      43.993 -19.204   4.590  1.00  0.00     0.181 A 
HETATM    7  C   UNL     1      44.015 -19.193   3.167  1.00  0.00    -0.003 A 
HETATM    8  C   UNL     1      44.363 -20.437   2.383  1.00  0.00     0.053 C 
HETATM    9  C   UNL     1      43.733 -18.359   6.584  1.00  0.00     0.258 A 
HETATM   10  N   UNL     1      44.071 -19.630   6.722  1.00  0.00    -0.123 NA
HETATM   11  N   UNL     1      44.234 -20.159   5.465  1.00  0.00    -0.128 NA
ENDROOT
BRANCH   3  12
HETATM   12  N   UNL     1      43.105 -15.604   2.810  1.00  0.00    -0.366 N 
HETATM   13  H   UNL     1      43.059 -15.549   1.795  1.00  0.00     0.161 HD
BRANCH  12  14
HETATM   14  C   UNL     1      43.462 -14.318   3.404  1.00  0.00     0.201 C 
BRANCH  14  15
HETATM   15  C   UNL     1      42.225 -13.561   3.864  1.00  0.00     0.144 A 
HETATM   16  N   UNL     1      41.639 -13.953   5.014  1.00  0.00    -0.220 NA
HETATM   17  C   UNL     1      40.569 -13.260   5.416  1.00  0.00     0.104 A 
HETATM   18  C   UNL     1      40.062 -12.193   4.710  1.00  0.00     0.063 A 
HETATM   19  C   UNL     1      40.729 -11.858   3.556  1.00  0.00     0.122 A 
HETATM   20  N   UNL     1      41.813 -12.516   3.108  1.00  0.00    -0.244 NA
BRANCH  17  21
HETATM   21  N   UNL     1      39.946 -13.696   6.582  1.00  0.00    -0.287 NA
HETATM   22  H   UNL     1      38.946 -13.744   6.398  1.00  0.00     0.125 HD
HETATM   23  H   UNL     1      40.310 -14.586   6.901  1.00  0.00     0.125 HD
ENDBRANCH  17  21
ENDBRANCH  14  15
ENDBRANCH  12  14
ENDBRANCH   3  12
BRANCH   9  24
HETATM   24  C   UNL     1      43.452 -17.354   7.617  1.00  0.00     0.454 C 
HETATM   25  F   UNL     1      44.163 -16.206   7.441  1.00  0.00    -0.163 F 
HETATM   26  F   UNL     1      42.139 -16.998   7.655  1.00  0.00    -0.163 F 
HETATM   27  F   UNL     1      43.759 -17.794   8.867  1.00  0.00    -0.163 F 
ENDBRANCH   9  24
TORSDOF 5
ENDMDL
MODEL 5
REMARK VINA RESULT:      -7.7      1.363      2.020
REMARK  5 active torsions:
REMARK  status: ('A' for Active; 'I' for Inactive)
REMARK    1  A    between atoms: C_3  and  N_4 
REMARK    2  A    between atoms: N_4  and  C_5 
REMARK    3  A    between atoms: C_5  and  C_6 
REMARK    4  A    between atoms: C_8  and  N_9 
REMARK    5  A    between atoms: C_18  and  C_19 
ROOT
HETATM    1  C   UNL     1      41.854 -16.463   6.622  1.00  0.00     0.053 C 
HETATM    2  C   UNL     1      42.486 -17.518   5.756  1.00  0.00    -0.005 A 
HETATM    3  C   UNL     1      41.896 -17.697   4.363  1.00  0.00     0.151 A 
HETATM    4  N   UNL     1      42.382 -18.539   3.488  1.00  0.00    -0.146 NA
HETATM    5  N   UNL     1      43.440 -19.259   3.922  1.00  0.00    -0.187 N 
HETATM    6  C   UNL     1      44.046 -19.198   5.153  1.00  0.00     0.181 A 
HETATM    7  C   UNL     1      43.547 -18.279   6.117  1.00  0.00    -0.003 A 
HETATM    8  C   UNL     1      44.175 -18.166   7.487  1.00  0.00     0.053 C 
HETATM    9  C   UNL     1      44.123 -20.218   3.227  1.00  0.00     0.258 A 
HETATM   10  N   UNL     1      45.090 -20.707   3.984  1.00  0.00    -0.123 NA
HETATM   11  N   UNL     1      45.039 -20.063   5.197  1.00  0.00    -0.128 NA
ENDROOT
BRANCH   3  12
HETATM   12  N   UNL     1      40.808 -16.951   3.978  1.00  0.00    -0.366 N 
HETATM   13  H   UNL     1      39.879 -17.225   4.288  1.00  0.00     0.161 HD
BRANCH  12  14
HETATM   14  C   UNL     1      40.760 -16.211   2.719  1.00  0.00     0.201 C 
BRANCH  14  15
HETATM   15  C   UNL     1      40.990 -14.724   2.945  1.00  0.00     0.144 A 
HETATM   16  N   UNL     1      41.636 -14.034   1.983  1.00  0.00    -0.220 NA
HETATM   17  C   UNL     1      41.806 -12.724   2.187  1.00  0.00     0.104 A 
HETATM   18  C   UNL     1      41.357 -12.080   3.318  1.00  0.00     0.063 A 
HETATM   19  C   UNL     1      40.701 -12.860   4.240  1.00  0.00     0.122 A 
HETATM   20  N   UNL     1      40.497 -14.180   4.083  1.00  0.00    -0.244 NA
BRANCH  17  21
HETATM   21  N   UNL     1      42.509 -12.026   1.209  1.00  0.00    -0.287 NA
HETATM   22  H   UNL     1      41.888 -11.313   0.833  1.00  0.00     0.125 HD
HETATM   23  H   UNL     1      43.367 -11.624   1.568  1.00  0.00     0.125 HD
ENDBRANCH  17  21
ENDBRANCH  14  15
ENDBRANCH  12  14
ENDBRANCH   3  12
BRANCH   9  24
HETATM   24  C   UNL     1      43.750 -20.571   1.851  1.00  0.00     0.454 C 
HETATM   25  F   UNL     1      42.482 -21.057   1.759  1.00  0.00    -0.163 F 
HETATM   26  F   UNL     1      43.826 -19.511   1.002  1.00  0.00    -0.163 F 
HETATM   27  F   UNL     1      44.557 -21.533   1.325  1.00  0.00    -0.163 F 
ENDBRANCH   9  24
TORSDOF 5
ENDMDL
MODEL 6
REMARK VINA RESULT:      -7.6      2.201      2.917
REMARK  5 active torsions:
REMARK  status: ('A' for Active; 'I' for Inactive)
REMARK    1  A    between atoms: C_3  and  N_4 
REMARK    2  A    between atoms: N_4  and  C_5 
REMARK    3  A    between atoms: C_5  and  C_6 
REMARK    4  A    between atoms: C_8  and  N_9 
REMARK    5  A    between atoms: C_18  and  C_19 
ROOT
HETATM    1  C   UNL     1      43.176 -16.190   6.569  1.00  0.00     0.053 C 
HETATM    2  C   UNL     1      43.422 -17.421   5.741  1.00  0.00    -0.005 A 
HETATM    3  C   UNL     1      42.975 -17.361   4.286  1.00  0.00     0.151 A 
HETATM    4  N   UNL     1      43.176 -18.338   3.440  1.00  0.00    -0.146 NA
HETATM    5  N   UNL     1      43.794 -19.421   3.960  1.00  0.00    -0.187 N 
HETATM    6  C   UNL     1      44.227 -19.597   5.252  1.00  0.00     0.181 A 
HETATM    7  C   UNL     1      44.035 -18.543   6.189  1.00  0.00    -0.003 A 
HETATM    8  C   UNL     1      44.492 -18.679   7.622  1.00  0.00     0.053 C 
HETATM    9  C   UNL     1      44.106 -20.582   3.310  1.00  0.00     0.258 A 
HETATM   10  N   UNL     1      44.698 -21.413   4.151  1.00  0.00    -0.123 NA
HETATM   11  N   UNL     1      44.772 -20.790   5.374  1.00  0.00    -0.128 NA
ENDROOT
BRANCH   3  12
HETATM   12  N   UNL     1      42.335 -16.242   3.811  1.00  0.00    -0.366 N 
HETATM   13  H   UNL     1      42.715 -15.322   4.019  1.00  0.00     0.161 HD
BRANCH  12  14
HETATM   14  C   UNL     1      40.892 -16.190   3.583  1.00  0.00     0.201 C 
BRANCH  14  15
HETATM   15  C   UNL     1      40.316 -14.847   4.002  1.00  0.00     0.144 A 
HETATM   16  N   UNL     1      40.140 -14.621   5.321  1.00  0.00    -0.220 NA
HETATM   17  C   UNL     1      39.657 -13.424   5.671  1.00  0.00     0.104 A 
HETATM   18  C   UNL     1      39.341 -12.448   4.754  1.00  0.00     0.063 A 
HETATM   19  C   UNL     1      39.563 -12.762   3.435  1.00  0.00     0.122 A 
HETATM   20  N   UNL     1      40.051 -13.946   3.026  1.00  0.00    -0.244 NA
BRANCH  17  21
HETATM   21  N   UNL     1      39.441 -13.214   7.030  1.00  0.00    -0.287 NA
HETATM   22  H   UNL     1      39.193 -12.235   7.155  1.00  0.00     0.125 HD
HETATM   23  H   UNL     1      38.728 -13.830   7.404  1.00  0.00     0.125 HD
ENDBRANCH  17  21
ENDBRANCH  14  15
ENDBRANCH  12  14
ENDBRANCH   3  12
BRANCH   9  24
HETATM   24  C   UNL     1      43.784 -20.769   1.890  1.00  0.00     0.454 C 
HETATM   25  F   UNL     1      42.478 -21.095   1.686  1.00  0.00    -0.163 F 
HETATM   26  F   UNL     1      44.030 -19.655   1.148  1.00  0.00    -0.163 F 
HETATM   27  F   UNL     1      44.511 -21.769   1.320  1.00  0.00    -0.163 F 
ENDBRANCH   9  24
TORSDOF 5
ENDMDL
MODEL 7
REMARK VINA RESULT:      -7.5      1.525      1.994
REMARK  5 active torsions:
REMARK  status: ('A' for Active; 'I' for Inactive)
REMARK    1  A    between atoms: C_3  and  N_4 
REMARK    2  A    between atoms: N_4  and  C_5 
REMARK    3  A    between atoms: C_5  and  C_6 
REMARK    4  A    between atoms: C_8  and  N_9 
REMARK    5  A    between atoms: C_18  and  C_19 
ROOT
HETATM    1  C   UNL     1      43.371 -15.942   6.656  1.00  0.00     0.053 C 
HETATM    2  C   UNL     1      43.555 -17.157   5.789  1.00  0.00    -0.005 A 
HETATM    3  C   UNL     1      43.047 -17.053   4.356  1.00  0.00     0.151 A 
HETATM    4  N   UNL     1      43.191 -18.013   3.480  1.00  0.00    -0.146 NA
HETATM    5  N   UNL     1      43.809 -19.120   3.947  1.00  0.00    -0.187 N 
HETATM    6  C   UNL     1      44.293 -19.336   5.215  1.00  0.00     0.181 A 
HETATM    7  C   UNL     1      44.164 -18.301   6.183  1.00  0.00    -0.003 A 
HETATM    8  C   UNL     1      44.680 -18.481   7.592  1.00  0.00     0.053 C 
HETATM    9  C   UNL     1      44.068 -20.271   3.257  1.00  0.00     0.258 A 
HETATM   10  N   UNL     1      44.679 -21.134   4.052  1.00  0.00    -0.123 NA
HETATM   11  N   UNL     1      44.819 -20.542   5.284  1.00  0.00    -0.128 NA
ENDROOT
BRANCH   3  12
HETATM   12  N   UNL     1      42.410 -15.911   3.936  1.00  0.00    -0.366 N 
HETATM   13  H   UNL     1      42.834 -15.005   4.121  1.00  0.00     0.161 HD
BRANCH  12  14
HETATM   14  C   UNL     1      40.957 -15.812   3.816  1.00  0.00     0.201 C 
BRANCH  14  15
HETATM   15  C   UNL     1      40.552 -15.292   2.445  1.00  0.00     0.144 A 
HETATM   16  N   UNL     1      39.241 -15.067   2.220  1.00  0.00    -0.220 NA
HETATM   17  C   UNL     1      38.907 -14.585   1.018  1.00  0.00     0.104 A 
HETATM   18  C   UNL     1      39.833 -14.323   0.034  1.00  0.00     0.063 A 
HETATM   19  C   UNL     1      41.145 -14.573   0.356  1.00  0.00     0.122 A 
HETATM   20  N   UNL     1      41.539 -15.051   1.549  1.00  0.00    -0.244 NA
BRANCH  17  21
HETATM   21  N   UNL     1      37.549 -14.393   0.779  1.00  0.00    -0.287 NA
HETATM   22  H   UNL     1      37.425 -13.438   0.453  1.00  0.00     0.125 HD
HETATM   23  H   UNL     1      37.178 -15.065   0.117  1.00  0.00     0.125 HD
ENDBRANCH  17  21
ENDBRANCH  14  15
ENDBRANCH  12  14
ENDBRANCH   3  12
BRANCH   9  24
HETATM   24  C   UNL     1      43.681 -20.418   1.849  1.00  0.00     0.454 C 
HETATM   25  F   UNL     1      44.321 -21.449   1.232  1.00  0.00    -0.163 F 
HETATM   26  F   UNL     1      42.347 -20.638   1.695  1.00  0.00    -0.163 F 
HETATM   27  F   UNL     1      43.967 -19.309   1.113  1.00  0.00    -0.163 F 
ENDBRANCH   9  24
TORSDOF 5
ENDMDL
MODEL 8
REMARK VINA RESULT:      -7.4      4.553      6.375
REMARK  5 active torsions:
REMARK  status: ('A' for Active; 'I' for Inactive)
REMARK    1  A    between atoms: C_3  and  N_4 
REMARK    2  A    between atoms: N_4  and  C_5 
REMARK    3  A    between atoms: C_5  and  C_6 
REMARK    4  A    between atoms: C_8  and  N_9 
REMARK    5  A    between atoms: C_18  and  C_19 
ROOT
HETATM    1  C   UNL     1      41.988 -13.133   5.552  1.00  0.00     0.053 C 
HETATM    2  C   UNL     1      42.537 -14.495   5.228  1.00  0.00    -0.005 A 
HETATM    3  C   UNL     1      43.426 -15.138   6.284  1.00  0.00     0.151 A 
HETATM    4  N   UNL     1      43.926 -16.340   6.157  1.00  0.00    -0.146 NA
HETATM    5  N   UNL     1      43.610 -16.966   5.002  1.00  0.00    -0.187 N 
HETATM    6  C   UNL     1      42.835 -16.485   3.974  1.00  0.00     0.181 A 
HETATM    7  C   UNL     1      42.267 -15.186   4.095  1.00  0.00    -0.003 A 
HETATM    8  C   UNL     1      41.404 -14.607   2.998  1.00  0.00     0.053 C 
HETATM    9  C   UNL     1      44.011 -18.211   4.604  1.00  0.00     0.258 A 
HETATM   10  N   UNL     1      43.508 -18.476   3.410  1.00  0.00    -0.123 NA
HETATM   11  N   UNL     1      42.767 -17.387   3.017  1.00  0.00    -0.128 NA
ENDROOT
BRANCH   3  12
HETATM   12  N   UNL     1      43.731 -14.451   7.434  1.00  0.00    -0.366 N 
HETATM   13  H   UNL     1      42.980 -14.129   8.039  1.00  0.00     0.161 HD
BRANCH  12  14
HETATM   14  C   UNL     1      44.925 -13.618   7.568  1.00  0.00     0.201 C 
BRANCH  14  15
HETATM   15  C   UNL     1      44.741 -12.561   8.646  1.00  0.00     0.144 A 
HETATM   16  N   UNL     1      43.741 -11.670   8.490  1.00  0.00    -0.220 NA
HETATM   17  C   UNL     1      43.578 -10.765   9.460  1.00  0.00     0.104 A 
HETATM   18  C   UNL     1      44.380 -10.716  10.578  1.00  0.00     0.063 A 
HETATM   19  C   UNL     1      45.367 -11.668  10.658  1.00  0.00     0.122 A 
HETATM   20  N   UNL     1      45.572 -12.605   9.715  1.00  0.00    -0.244 NA
BRANCH  17  21
HETATM   21  N   UNL     1      42.570  -9.824   9.272  1.00  0.00    -0.287 NA
HETATM   22  H   UNL     1      42.700  -9.089   9.964  1.00  0.00     0.125 HD
HETATM   23  H   UNL     1      42.563  -9.452   8.329  1.00  0.00     0.125 HD
ENDBRANCH  17  21
ENDBRANCH  14  15
ENDBRANCH  12  14
ENDBRANCH   3  12
BRANCH   9  24
HETATM   24  C   UNL     1      44.874 -19.040   5.455  1.00  0.00     0.454 C 
HETATM   25  F   UNL     1      45.939 -18.354   5.952  1.00  0.00    -0.163 F 
HETATM   26  F   UNL     1      44.209 -19.558   6.523  1.00  0.00    -0.163 F 
HETATM   27  F   UNL     1      45.396 -20.104   4.785  1.00  0.00    -0.163 F 
ENDBRANCH   9  24
TORSDOF 5
ENDMDL
MODEL 9
REMARK VINA RESULT:      -7.4      1.437      2.265
REMARK  5 active torsions:
REMARK  status: ('A' for Active; 'I' for Inactive)
REMARK    1  A    between atoms: C_3  and  N_4 
REMARK    2  A    between atoms: N_4  and  C_5 
REMARK    3  A    between atoms: C_5  and  C_6 
REMARK    4  A    between atoms: C_8  and  N_9 
REMARK    5  A    between atoms: C_18  and  C_19 
ROOT
HETATM    1  C   UNL     1      39.685 -14.420   3.197  1.00  0.00     0.053 C 
HETATM    2  C   UNL     1      40.583 -15.618   3.345  1.00  0.00    -0.005 A 
HETATM    3  C   UNL     1      40.978 -16.334   2.061  1.00  0.00     0.151 A 
HETATM    4  N   UNL     1      41.795 -17.355   2.038  1.00  0.00    -0.146 NA
HETATM    5  N   UNL     1      42.250 -17.743   3.250  1.00  0.00    -0.187 N 
HETATM    6  C   UNL     1      41.954 -17.189   4.472  1.00  0.00     0.181 A 
HETATM    7  C   UNL     1      41.080 -16.068   4.522  1.00  0.00    -0.003 A 
HETATM    8  C   UNL     1      40.721 -15.416   5.837  1.00  0.00     0.053 C 
HETATM    9  C   UNL     1      43.093 -18.786   3.517  1.00  0.00     0.258 A 
HETATM   10  N   UNL     1      43.304 -18.860   4.821  1.00  0.00    -0.123 NA
HETATM   11  N   UNL     1      42.585 -17.853   5.419  1.00  0.00    -0.128 NA
ENDROOT
BRANCH   3  12
HETATM   12  N   UNL     1      40.473 -15.910   0.856  1.00  0.00    -0.366 N 
HETATM   13  H   UNL     1      39.494 -16.075   0.637  1.00  0.00     0.161 HD
BRANCH  12  14
HETATM   14  C   UNL     1      41.286 -15.812  -0.355  1.00  0.00     0.201 C 
BRANCH  14  15
HETATM   15  C   UNL     1      41.465 -14.364  -0.784  1.00  0.00     0.144 A 
HETATM   16  N   UNL     1      41.947 -13.493   0.127  1.00  0.00    -0.220 NA
HETATM   17  C   UNL     1      42.122 -12.230  -0.275  1.00  0.00     0.104 A 
HETATM   18  C   UNL     1      41.831 -11.806  -1.552  1.00  0.00     0.063 A 
HETATM   19  C   UNL     1      41.356 -12.764  -2.415  1.00  0.00     0.122 A 
HETATM   20  N   UNL     1      41.165 -14.048  -2.066  1.00  0.00    -0.244 NA
BRANCH  17  21
HETATM   21  N   UNL     1      42.580 -11.329   0.681  1.00  0.00    -0.287 NA
HETATM   22  H   UNL     1      42.010 -11.449   1.515  1.00  0.00     0.125 HD
HETATM   23  H   UNL     1      43.566 -11.452   0.881  1.00  0.00     0.125 HD
ENDBRANCH  17  21
ENDBRANCH  14  15
ENDBRANCH  12  14
ENDBRANCH   3  12
BRANCH   9  24
HETATM   24  C   UNL     1      43.623 -19.631   2.440  1.00  0.00     0.454 C 
HETATM   25  F   UNL     1      42.659 -20.375   1.833  1.00  0.00    -0.163 F 
HETATM   26  F   UNL     1      44.233 -18.908   1.462  1.00  0.00    -0.163 F 
HETATM   27  F   UNL     1      44.553 -20.519   2.886  1.00  0.00    -0.163 F 
ENDBRANCH   9  24
TORSDOF 5
ENDMDL
MODEL 10
REMARK VINA RESULT:      -7.4      3.130      4.164
REMARK  5 active torsions:
REMARK  status: ('A' for Active; 'I' for Inactive)
REMARK    1  A    between atoms: C_3  and  N_4 
REMARK    2  A    between atoms: N_4  and  C_5 
REMARK    3  A    between atoms: C_5  and  C_6 
REMARK    4  A    between atoms: C_8  and  N_9 
REMARK    5  A    between atoms: C_18  and  C_19 
ROOT
HETATM    1  C   UNL     1      43.703 -17.819   1.123  1.00  0.00     0.053 C 
HETATM    2  C   UNL     1      43.749 -17.974   2.617  1.00  0.00    -0.005 A 
HETATM    3  C   UNL     1      43.394 -16.743   3.440  1.00  0.00     0.151 A 
HETATM    4  N   UNL     1      43.341 -16.752   4.747  1.00  0.00    -0.146 NA
HETATM    5  N   UNL     1      43.648 -17.937   5.319  1.00  0.00    -0.187 N 
HETATM    6  C   UNL     1      43.996 -19.106   4.686  1.00  0.00     0.181 A 
HETATM    7  C   UNL     1      44.046 -19.127   3.264  1.00  0.00    -0.003 A 
HETATM    8  C   UNL     1      44.420 -20.384   2.514  1.00  0.00     0.053 C 
HETATM    9  C   UNL     1      43.691 -18.220   6.656  1.00  0.00     0.258 A 
HETATM   10  N   UNL     1      44.039 -19.484   6.828  1.00  0.00    -0.123 NA
HETATM   11  N   UNL     1      44.230 -20.040   5.586  1.00  0.00    -0.128 NA
ENDROOT
BRANCH   3  12
HETATM   12  N   UNL     1      43.107 -15.556   2.810  1.00  0.00    -0.366 N 
HETATM   13  H   UNL     1      43.753 -15.190   2.115  1.00  0.00     0.161 HD
BRANCH  12  14
HETATM   14  C   UNL     1      42.334 -14.489   3.442  1.00  0.00     0.201 C 
BRANCH  14  15
HETATM   15  C   UNL     1      40.950 -14.370   2.822  1.00  0.00     0.144 A 
HETATM   16  N   UNL     1      40.364 -13.155   2.818  1.00  0.00    -0.220 NA
HETATM   17  C   UNL     1      39.160 -13.065   2.245  1.00  0.00     0.104 A 
HETATM   18  C   UNL     1      38.519 -14.144   1.680  1.00  0.00     0.063 A 
HETATM   19  C   UNL     1      39.194 -15.340   1.721  1.00  0.00     0.122 A 
HETATM   20  N   UNL     1      40.409 -15.487   2.278  1.00  0.00    -0.244 NA
BRANCH  17  21
HETATM   21  N   UNL     1      38.545 -11.817   2.280  1.00  0.00    -0.287 NA
HETATM   22  H   UNL     1      37.597 -11.930   1.928  1.00  0.00     0.125 HD
HETATM   23  H   UNL     1      38.553 -11.412   3.209  1.00  0.00     0.125 HD
ENDBRANCH  17  21
ENDBRANCH  14  15
ENDBRANCH  12  14
ENDBRANCH   3  12
BRANCH   9  24
HETATM   24  C   UNL     1      43.381 -17.196   7.660  1.00  0.00     0.454 C 
HETATM   25  F   UNL     1      43.567 -17.636   8.935  1.00  0.00    -0.163 F 
HETATM   26  F   UNL     1      44.143 -16.077   7.517  1.00  0.00    -0.163 F 
HETATM   27  F   UNL     1      42.086 -16.780   7.595  1.00  0.00    -0.163 F 
ENDBRANCH   9  24
TORSDOF 5
ENDMDL
