MODEL 1
REMARK VINA RESULT:      -7.5      0.000      0.000
REMARK  6 active torsions:
REMARK  status: ('A' for Active; 'I' for Inactive)
REMARK    1  A    between atoms: C_2  and  C_3 
REMARK    2  A    between atoms: C_2  and  C_9 
REMARK    3  A    between atoms: C_9  and  N_10 
REMARK       I    between atoms: N_10  and  C_11 
REMARK       I    between atoms: C_11  and  N_12 
REMARK    4  A    between atoms: N_12  and  C_13 
REMARK    5  A    between atoms: C_14  and  O_15 
REMARK    6  A    between atoms: O_15  and  C_16 
ROOT
HETATM    1  N   UNL     1      42.569 -15.896   1.752  1.00  0.00    -0.342 N 
HETATM    2  C   UNL     1      43.316 -17.032   1.848  1.00  0.00     0.320 C 
HETATM    3  N   UNL     1      42.710 -18.083   2.479  1.00  0.00    -0.306 N 
HETATM    4  O   UNL     1      44.423 -17.055   1.318  1.00  0.00    -0.247 OA
HETATM    5  H   UNL     1      43.065 -15.161   1.260  1.00  0.00     0.164 HD
HETATM    6  H   UNL     1      41.721 -18.129   2.301  1.00  0.00     0.171 HD
ENDROOT
BRANCH   1   7
HETATM    7  C   UNL     1      41.419 -15.483   2.544  1.00  0.00     0.138 C 
BRANCH   7   8
HETATM    8  C   UNL     1      41.720 -14.492   3.712  1.00  0.00    -0.004 C 
HETATM    9  C   UNL     1      40.434 -13.647   3.909  1.00  0.00     0.021 C 
HETATM   10  C   UNL     1      42.818 -13.483   3.304  1.00  0.00     0.021 C 
BRANCH   8  11
HETATM   11  C   UNL     1      42.128 -15.245   4.995  1.00  0.00    -0.046 A 
HETATM   12  C   UNL     1      43.303 -14.956   5.702  1.00  0.00     0.027 A 
HETATM   13  C   UNL     1      43.615 -15.686   6.843  1.00  0.00     0.116 A 
HETATM   14  N   UNL     1      42.846 -16.673   7.342  1.00  0.00    -0.273 NA
HETATM   15  C   UNL     1      41.710 -16.938   6.670  1.00  0.00     0.116 A 
HETATM   16  C   UNL     1      41.317 -16.265   5.520  1.00  0.00     0.027 A 
ENDBRANCH   8  11
ENDBRANCH   7   8
ENDBRANCH   1   7
BRANCH   3  17
HETATM   17  C   UNL     1      43.348 -19.327   2.691  1.00  0.00     0.070 A 
HETATM   18  C   UNL     1      44.181 -19.583   3.793  1.00  0.00     0.101 A 
HETATM   19  C   UNL     1      44.780 -20.840   3.934  1.00  0.00     0.039 A 
HETATM   20  C   UNL     1      44.575 -21.828   2.970  1.00  0.00     0.003 A 
HETATM   21  C   UNL     1      43.736 -21.582   1.886  1.00  0.00     0.002 A 
HETATM   22  C   UNL     1      43.109 -20.342   1.757  1.00  0.00     0.032 A 
BRANCH  18  23
HETATM   23  O   UNL     1      44.244 -18.668   4.814  1.00  0.00    -0.288 OA
BRANCH  23  24
HETATM   24  C   UNL     1      45.038 -19.132   5.898  1.00  0.00     0.505 C 
HETATM   25  F   UNL     1      45.787 -18.082   6.328  1.00  0.00    -0.184 F 
HETATM   26  F   UNL     1      44.216 -19.450   6.933  1.00  0.00    -0.184 F 
ENDBRANCH  23  24
ENDBRANCH  18  23
ENDBRANCH   3  17
TORSDOF 6
ENDMDL
MODEL 2
REMARK VINA RESULT:      -7.3      1.699      2.373
REMARK  6 active torsions:
REMARK  status: ('A' for Active; 'I' for Inactive)
REMARK    1  A    between atoms: C_2  and  C_3 
REMARK    2  A    between atoms: C_2  and  C_9 
REMARK    3  A    between atoms: C_9  and  N_10 
REMARK       I    between atoms: N_10  and  C_11 
REMARK       I    between atoms: C_11  and  N_12 
REMARK    4  A    between atoms: N_12  and  C_13 
REMARK    5  A    between atoms: C_14  and  O_15 
REMARK    6  A    between atoms: O_15  and  C_16 
ROOT
HETATM    1  N   UNL     1      42.590 -16.447   0.555  1.00  0.00    -0.342 N 
HETATM    2  C   UNL     1      43.393 -17.354   1.179  1.00  0.00     0.320 C 
HETATM    3  N   UNL     1      42.745 -18.381   1.806  1.00  0.00    -0.306 N 
HETATM    4  O   UNL     1      44.611 -17.227   1.082  1.00  0.00    -0.247 OA
HETATM    5  H   UNL     1      43.129 -15.722   0.095  1.00  0.00     0.164 HD
HETATM    6  H   UNL     1      41.914 -18.675   1.320  1.00  0.00     0.171 HD
ENDROOT
BRANCH   1   7
HETATM    7  C   UNL     1      41.180 -16.162   0.778  1.00  0.00     0.138 C 
BRANCH   7   8
HETATM    8  C   UNL     1      40.855 -14.744   1.344  1.00  0.00    -0.004 C 
HETATM    9  C   UNL     1      39.399 -14.425   0.912  1.00  0.00     0.021 C 
HETATM   10  C   UNL     1      41.733 -13.669   0.664  1.00  0.00     0.021 C 
BRANCH   8  11
HETATM   11  C   UNL     1      41.035 -14.698   2.875  1.00  0.00    -0.046 A 
HETATM   12  C   UNL     1      39.953 -14.712   3.766  1.00  0.00     0.027 A 
HETATM   13  C   UNL     1      40.188 -14.652   5.135  1.00  0.00     0.116 A 
HETATM   14  N   UNL     1      41.415 -14.591   5.687  1.00  0.00    -0.273 NA
HETATM   15  C   UNL     1      42.454 -14.593   4.831  1.00  0.00     0.116 A 
HETATM   16  C   UNL     1      42.316 -14.646   3.450  1.00  0.00     0.027 A 
ENDBRANCH   8  11
ENDBRANCH   7   8
ENDBRANCH   1   7
BRANCH   3  17
HETATM   17  C   UNL     1      43.418 -19.395   2.527  1.00  0.00     0.070 A 
HETATM   18  C   UNL     1      43.878 -19.223   3.843  1.00  0.00     0.101 A 
HETATM   19  C   UNL     1      44.540 -20.272   4.489  1.00  0.00     0.039 A 
HETATM   20  C   UNL     1      44.769 -21.477   3.822  1.00  0.00     0.003 A 
HETATM   21  C   UNL     1      44.299 -21.655   2.523  1.00  0.00     0.002 A 
HETATM   22  C   UNL     1      43.608 -20.624   1.884  1.00  0.00     0.032 A 
BRANCH  18  23
HETATM   23  O   UNL     1      43.507 -18.103   4.543  1.00  0.00    -0.288 OA
BRANCH  23  24
HETATM   24  C   UNL     1      42.338 -18.323   5.321  1.00  0.00     0.505 C 
HETATM   25  F   UNL     1      42.447 -17.557   6.439  1.00  0.00    -0.184 F 
HETATM   26  F   UNL     1      41.266 -17.835   4.641  1.00  0.00    -0.184 F 
ENDBRANCH  23  24
ENDBRANCH  18  23
ENDBRANCH   3  17
TORSDOF 6
ENDMDL
MODEL 3
REMARK VINA RESULT:      -7.3      2.452      3.488
REMARK  6 active torsions:
REMARK  status: ('A' for Active; 'I' for Inactive)
REMARK    1  A    between atoms: C_2  and  C_3 
REMARK    2  A    between atoms: C_2  and  C_9 
REMARK    3  A    between atoms: C_9  and  N_10 
REMARK       I    between atoms: N_10  and  C_11 
REMARK       I    between atoms: C_11  and  N_12 
REMARK    4  A    between atoms: N_12  and  C_13 
REMARK    5  A    between atoms: C_14  and  O_15 
REMARK    6  A    between atoms: O_15  and  C_16 
ROOT
HETATM    1  N   UNL     1      42.615 -16.472   0.450  1.00  0.00    -0.342 N 
HETATM    2  C   UNL     1      43.415 -17.080   1.371  1.00  0.00     0.320 C 
HETATM    3  N   UNL     1      42.762 -17.790   2.340  1.00  0.00    -0.306 N 
HETATM    4  O   UNL     1      44.633 -17.007   1.233  1.00  0.00    -0.247 OA
HETATM    5  H   UNL     1      43.158 -15.978  -0.250  1.00  0.00     0.164 HD
HETATM    6  H   UNL     1      41.929 -18.241   2.001  1.00  0.00     0.171 HD
ENDROOT
BRANCH   1   7
HETATM    7  C   UNL     1      41.208 -16.115   0.549  1.00  0.00     0.138 C 
BRANCH   7   8
HETATM    8  C   UNL     1      40.908 -14.667   1.049  1.00  0.00    -0.004 C 
HETATM    9  C   UNL     1      39.370 -14.482   0.954  1.00  0.00     0.021 C 
HETATM   10  C   UNL     1      41.510 -13.619   0.083  1.00  0.00     0.021 C 
BRANCH   8  11
HETATM   11  C   UNL     1      41.436 -14.448   2.481  1.00  0.00    -0.046 A 
HETATM   12  C   UNL     1      40.818 -15.003   3.610  1.00  0.00     0.027 A 
HETATM   13  C   UNL     1      41.341 -14.750   4.873  1.00  0.00     0.116 A 
HETATM   14  N   UNL     1      42.436 -14.000   5.100  1.00  0.00    -0.273 NA
HETATM   15  C   UNL     1      43.038 -13.481   4.014  1.00  0.00     0.116 A 
HETATM   16  C   UNL     1      42.586 -13.675   2.715  1.00  0.00     0.027 A 
ENDBRANCH   8  11
ENDBRANCH   7   8
ENDBRANCH   1   7
BRANCH   3  17
HETATM   17  C   UNL     1      43.432 -18.460   3.390  1.00  0.00     0.070 A 
HETATM   18  C   UNL     1      44.024 -19.724   3.239  1.00  0.00     0.101 A 
HETATM   19  C   UNL     1      44.666 -20.325   4.326  1.00  0.00     0.039 A 
HETATM   20  C   UNL     1      44.696 -19.686   5.567  1.00  0.00     0.003 A 
HETATM   21  C   UNL     1      44.123 -18.425   5.715  1.00  0.00     0.002 A 
HETATM   22  C   UNL     1      43.510 -17.805   4.625  1.00  0.00     0.032 A 
BRANCH  18  23
HETATM   23  O   UNL     1      44.134 -20.268   1.984  1.00  0.00    -0.288 OA
BRANCH  23  24
HETATM   24  C   UNL     1      43.695 -21.619   1.948  1.00  0.00     0.505 C 
HETATM   25  F   UNL     1      42.381 -21.609   1.600  1.00  0.00    -0.184 F 
HETATM   26  F   UNL     1      44.341 -22.258   0.935  1.00  0.00    -0.184 F 
ENDBRANCH  23  24
ENDBRANCH  18  23
ENDBRANCH   3  17
TORSDOF 6
ENDMDL
MODEL 4
REMARK VINA RESULT:      -7.1      4.374      7.394
REMARK  6 active torsions:
REMARK  status: ('A' for Active; 'I' for Inactive)
REMARK    1  A    between atoms: C_2  and  C_3 
REMARK    2  A    between atoms: C_2  and  C_9 
REMARK    3  A    between atoms: C_9  and  N_10 
REMARK       I    between atoms: N_10  and  C_11 
REMARK       I    between atoms: C_11  and  N_12 
REMARK    4  A    between atoms: N_12  and  C_13 
REMARK    5  A    between atoms: C_14  and  O_15 
REMARK    6  A    between atoms: O_15  and  C_16 
ROOT
HETATM    1  N   UNL     1      41.133 -16.986   2.983  1.00  0.00    -0.342 N 
HETATM    2  C   UNL     1      40.472 -15.874   2.552  1.00  0.00     0.320 C 
HETATM    3  N   UNL     1      40.112 -15.878   1.233  1.00  0.00    -0.306 N 
HETATM    4  O   UNL     1      40.193 -15.001   3.370  1.00  0.00    -0.247 OA
HETATM    5  H   UNL     1      41.356 -16.930   3.971  1.00  0.00     0.164 HD
HETATM    6  H   UNL     1      39.858 -16.793   0.899  1.00  0.00     0.171 HD
ENDROOT
BRANCH   1   7
HETATM    7  C   UNL     1      41.867 -17.976   2.208  1.00  0.00     0.138 C 
BRANCH   7   8
HETATM    8  C   UNL     1      43.379 -18.134   2.567  1.00  0.00    -0.004 C 
HETATM    9  C   UNL     1      43.596 -17.356   3.892  1.00  0.00     0.021 C 
HETATM   10  C   UNL     1      44.267 -17.422   1.520  1.00  0.00     0.021 C 
BRANCH   8  11
HETATM   11  C   UNL     1      43.773 -19.620   2.689  1.00  0.00    -0.046 A 
HETATM   12  C   UNL     1      44.452 -20.134   3.802  1.00  0.00     0.027 A 
HETATM   13  C   UNL     1      44.790 -21.483   3.837  1.00  0.00     0.116 A 
HETATM   14  N   UNL     1      44.496 -22.360   2.860  1.00  0.00    -0.273 NA
HETATM   15  C   UNL     1      43.829 -21.868   1.799  1.00  0.00     0.116 A 
HETATM   16  C   UNL     1      43.454 -20.536   1.673  1.00  0.00     0.027 A 
ENDBRANCH   8  11
ENDBRANCH   7   8
ENDBRANCH   1   7
BRANCH   3  17
HETATM   17  C   UNL     1      39.445 -14.797   0.611  1.00  0.00     0.070 A 
HETATM   18  C   UNL     1      39.966 -14.111  -0.498  1.00  0.00     0.101 A 
HETATM   19  C   UNL     1      39.249 -13.048  -1.057  1.00  0.00     0.039 A 
HETATM   20  C   UNL     1      38.032 -12.650  -0.499  1.00  0.00     0.003 A 
HETATM   21  C   UNL     1      37.506 -13.341   0.590  1.00  0.00     0.002 A 
HETATM   22  C   UNL     1      38.200 -14.423   1.132  1.00  0.00     0.032 A 
BRANCH  18  23
HETATM   23  O   UNL     1      41.074 -14.609  -1.136  1.00  0.00    -0.288 OA
BRANCH  23  24
HETATM   24  C   UNL     1      40.885 -14.699  -2.542  1.00  0.00     0.505 C 
HETATM   25  F   UNL     1      41.799 -13.879  -3.126  1.00  0.00    -0.184 F 
HETATM   26  F   UNL     1      41.207 -15.958  -2.944  1.00  0.00    -0.184 F 
ENDBRANCH  23  24
ENDBRANCH  18  23
ENDBRANCH   3  17
TORSDOF 6
ENDMDL
MODEL 5
REMARK VINA RESULT:      -7.0      3.501      5.495
REMARK  6 active torsions:
REMARK  status: ('A' for Active; 'I' for Inactive)
REMARK    1  A    between atoms: C_2  and  C_3 
REMARK    2  A    between atoms: C_2  and  C_9 
REMARK    3  A    between atoms: C_9  and  N_10 
REMARK       I    between atoms: N_10  and  C_11 
REMARK       I    between atoms: C_11  and  N_12 
REMARK    4  A    between atoms: N_12  and  C_13 
REMARK    5  A    between atoms: C_14  and  O_15 
REMARK    6  A    between atoms: O_15  and  C_16 
ROOT
HETATM    1  N   UNL     1      42.570 -16.310   0.636  1.00  0.00    -0.342 N 
HETATM    2  C   UNL     1      43.403 -17.013   1.454  1.00  0.00     0.320 C 
HETATM    3  N   UNL     1      42.789 -17.719   2.452  1.00  0.00    -0.306 N 
HETATM    4  O   UNL     1      44.605 -17.020   1.205  1.00  0.00    -0.247 OA
HETATM    5  H   UNL     1      43.082 -15.824  -0.092  1.00  0.00     0.164 HD
HETATM    6  H   UNL     1      41.898 -18.095   2.175  1.00  0.00     0.171 HD
ENDROOT
BRANCH   1   7
HETATM    7  C   UNL     1      41.207 -15.860   0.880  1.00  0.00     0.138 C 
BRANCH   7   8
HETATM    8  C   UNL     1      40.895 -14.386   0.470  1.00  0.00    -0.004 C 
HETATM    9  C   UNL     1      41.850 -13.490   1.304  1.00  0.00     0.021 C 
HETATM   10  C   UNL     1      39.467 -13.987   0.908  1.00  0.00     0.021 C 
BRANCH   8  11
HETATM   11  C   UNL     1      41.073 -14.177  -1.048  1.00  0.00    -0.046 A 
HETATM   12  C   UNL     1      42.016 -13.289  -1.584  1.00  0.00     0.027 A 
HETATM   13  C   UNL     1      42.111 -13.139  -2.964  1.00  0.00     0.116 A 
HETATM   14  N   UNL     1      41.350 -13.810  -3.850  1.00  0.00    -0.273 NA
HETATM   15  C   UNL     1      40.456 -14.674  -3.333  1.00  0.00     0.116 A 
HETATM   16  C   UNL     1      40.287 -14.887  -1.971  1.00  0.00     0.027 A 
ENDBRANCH   8  11
ENDBRANCH   7   8
ENDBRANCH   1   7
BRANCH   3  17
HETATM   17  C   UNL     1      43.500 -18.481   3.408  1.00  0.00     0.070 A 
HETATM   18  C   UNL     1      43.966 -19.782   3.159  1.00  0.00     0.101 A 
HETATM   19  C   UNL     1      44.659 -20.475   4.157  1.00  0.00     0.039 A 
HETATM   20  C   UNL     1      44.864 -19.889   5.407  1.00  0.00     0.003 A 
HETATM   21  C   UNL     1      44.417 -18.592   5.651  1.00  0.00     0.002 A 
HETATM   22  C   UNL     1      43.754 -17.883   4.648  1.00  0.00     0.032 A 
BRANCH  18  23
HETATM   23  O   UNL     1      43.905 -20.284   1.883  1.00  0.00    -0.288 OA
BRANCH  23  24
HETATM   24  C   UNL     1      43.596 -21.671   1.869  1.00  0.00     0.505 C 
HETATM   25  F   UNL     1      42.280 -21.788   1.548  1.00  0.00    -0.184 F 
HETATM   26  F   UNL     1      44.279 -22.258   0.850  1.00  0.00    -0.184 F 
ENDBRANCH  23  24
ENDBRANCH  18  23
ENDBRANCH   3  17
TORSDOF 6
ENDMDL
MODEL 6
REMARK VINA RESULT:      -7.0      2.600      4.273
REMARK  6 active torsions:
REMARK  status: ('A' for Active; 'I' for Inactive)
REMARK    1  A    between atoms: C_2  and  C_3 
REMARK    2  A    between atoms: C_2  and  C_9 
REMARK    3  A    between atoms: C_9  and  N_10 
REMARK       I    between atoms: N_10  and  C_11 
REMARK       I    between atoms: C_11  and  N_12 
REMARK    4  A    between atoms: N_12  and  C_13 
REMARK    5  A    between atoms: C_14  and  O_15 
REMARK    6  A    between atoms: O_15  and  C_16 
ROOT
HETATM    1  N   UNL     1      42.725 -16.583   0.480  1.00  0.00    -0.342 N 
HETATM    2  C   UNL     1      43.509 -17.462   1.167  1.00  0.00     0.320 C 
HETATM    3  N   UNL     1      42.855 -18.535   1.706  1.00  0.00    -0.306 N 
HETATM    4  O   UNL     1      44.721 -17.272   1.196  1.00  0.00    -0.247 OA
HETATM    5  H   UNL     1      43.270 -15.821   0.091  1.00  0.00     0.164 HD
HETATM    6  H   UNL     1      42.094 -18.859   1.133  1.00  0.00     0.171 HD
ENDROOT
BRANCH   1   7
HETATM    7  C   UNL     1      41.287 -16.374   0.564  1.00  0.00     0.138 C 
BRANCH   7   8
HETATM    8  C   UNL     1      40.827 -15.154   1.422  1.00  0.00    -0.004 C 
HETATM    9  C   UNL     1      42.084 -14.267   1.629  1.00  0.00     0.021 C 
HETATM   10  C   UNL     1      40.406 -15.609   2.839  1.00  0.00     0.021 C 
BRANCH   8  11
HETATM   11  C   UNL     1      39.678 -14.388   0.737  1.00  0.00    -0.046 A 
HETATM   12  C   UNL     1      39.852 -13.665  -0.451  1.00  0.00     0.027 A 
HETATM   13  C   UNL     1      38.773 -12.985  -1.006  1.00  0.00     0.116 A 
HETATM   14  N   UNL     1      37.534 -12.976  -0.478  1.00  0.00    -0.273 NA
HETATM   15  C   UNL     1      37.365 -13.684   0.654  1.00  0.00     0.116 A 
HETATM   16  C   UNL     1      38.383 -14.391   1.283  1.00  0.00     0.027 A 
ENDBRANCH   8  11
ENDBRANCH   7   8
ENDBRANCH   1   7
BRANCH   3  17
HETATM   17  C   UNL     1      43.505 -19.529   2.473  1.00  0.00     0.070 A 
HETATM   18  C   UNL     1      43.947 -19.316   3.789  1.00  0.00     0.101 A 
HETATM   19  C   UNL     1      44.586 -20.349   4.483  1.00  0.00     0.039 A 
HETATM   20  C   UNL     1      44.810 -21.580   3.863  1.00  0.00     0.003 A 
HETATM   21  C   UNL     1      44.357 -21.798   2.564  1.00  0.00     0.002 A 
HETATM   22  C   UNL     1      43.689 -20.783   1.878  1.00  0.00     0.032 A 
BRANCH  18  23
HETATM   23  O   UNL     1      43.579 -18.168   4.443  1.00  0.00    -0.288 OA
BRANCH  23  24
HETATM   24  C   UNL     1      42.503 -18.388   5.345  1.00  0.00     0.505 C 
HETATM   25  F   UNL     1      42.584 -17.435   6.311  1.00  0.00    -0.184 F 
HETATM   26  F   UNL     1      41.334 -18.152   4.690  1.00  0.00    -0.184 F 
ENDBRANCH  23  24
ENDBRANCH  18  23
ENDBRANCH   3  17
TORSDOF 6
ENDMDL
MODEL 7
REMARK VINA RESULT:      -7.0      2.909      4.804
REMARK  6 active torsions:
REMARK  status: ('A' for Active; 'I' for Inactive)
REMARK    1  A    between atoms: C_2  and  C_3 
REMARK    2  A    between atoms: C_2  and  C_9 
REMARK    3  A    between atoms: C_9  and  N_10 
REMARK       I    between atoms: N_10  and  C_11 
REMARK       I    between atoms: C_11  and  N_12 
REMARK    4  A    between atoms: N_12  and  C_13 
REMARK    5  A    between atoms: C_14  and  O_15 
REMARK    6  A    between atoms: O_15  and  C_16 
ROOT
HETATM    1  N   UNL     1      42.738 -16.399   0.772  1.00  0.00    -0.342 N 
HETATM    2  C   UNL     1      43.516 -17.382   1.308  1.00  0.00     0.320 C 
HETATM    3  N   UNL     1      42.837 -18.417   1.889  1.00  0.00    -0.306 N 
HETATM    4  O   UNL     1      44.734 -17.307   1.177  1.00  0.00    -0.247 OA
HETATM    5  H   UNL     1      43.299 -15.671   0.342  1.00  0.00     0.164 HD
HETATM    6  H   UNL     1      41.979 -18.639   1.413  1.00  0.00     0.171 HD
ENDROOT
BRANCH   1   7
HETATM    7  C   UNL     1      41.352 -16.063   1.062  1.00  0.00     0.138 C 
BRANCH   7   8
HETATM    8  C   UNL     1      40.877 -14.659   0.573  1.00  0.00    -0.004 C 
HETATM    9  C   UNL     1      41.687 -13.616   1.389  1.00  0.00     0.021 C 
HETATM   10  C   UNL     1      39.397 -14.419   0.951  1.00  0.00     0.021 C 
BRANCH   8  11
HETATM   11  C   UNL     1      41.079 -14.497  -0.948  1.00  0.00    -0.046 A 
HETATM   12  C   UNL     1      41.709 -13.380  -1.513  1.00  0.00     0.027 A 
HETATM   13  C   UNL     1      41.843 -13.293  -2.895  1.00  0.00     0.116 A 
HETATM   14  N   UNL     1      41.410 -14.234  -3.755  1.00  0.00    -0.273 NA
HETATM   15  C   UNL     1      40.820 -15.313  -3.209  1.00  0.00     0.116 A 
HETATM   16  C   UNL     1      40.638 -15.486  -1.843  1.00  0.00     0.027 A 
ENDBRANCH   8  11
ENDBRANCH   7   8
ENDBRANCH   1   7
BRANCH   3  17
HETATM   17  C   UNL     1      43.482 -19.507   2.518  1.00  0.00     0.070 A 
HETATM   18  C   UNL     1      44.044 -19.428   3.802  1.00  0.00     0.101 A 
HETATM   19  C   UNL     1      44.670 -20.549   4.358  1.00  0.00     0.039 A 
HETATM   20  C   UNL     1      44.762 -21.736   3.629  1.00  0.00     0.003 A 
HETATM   21  C   UNL     1      44.190 -21.822   2.361  1.00  0.00     0.002 A 
HETATM   22  C   UNL     1      43.535 -20.717   1.815  1.00  0.00     0.032 A 
BRANCH  18  23
HETATM   23  O   UNL     1      43.807 -18.316   4.572  1.00  0.00    -0.288 OA
BRANCH  23  24
HETATM   24  C   UNL     1      42.845 -18.566   5.587  1.00  0.00     0.505 C 
HETATM   25  F   UNL     1      42.918 -17.538   6.474  1.00  0.00    -0.184 F 
HETATM   26  F   UNL     1      41.603 -18.491   5.037  1.00  0.00    -0.184 F 
ENDBRANCH  23  24
ENDBRANCH  18  23
ENDBRANCH   3  17
TORSDOF 6
ENDMDL
MODEL 8
REMARK VINA RESULT:      -7.0      5.130      7.589
REMARK  6 active torsions:
REMARK  status: ('A' for Active; 'I' for Inactive)
REMARK    1  A    between atoms: C_2  and  C_3 
REMARK    2  A    between atoms: C_2  and  C_9 
REMARK    3  A    between atoms: C_9  and  N_10 
REMARK       I    between atoms: N_10  and  C_11 
REMARK       I    between atoms: C_11  and  N_12 
REMARK    4  A    between atoms: N_12  and  C_13 
REMARK    5  A    between atoms: C_14  and  O_15 
REMARK    6  A    between atoms: O_15  and  C_16 
ROOT
HETATM    1  N   UNL     1      40.824 -16.535   0.936  1.00  0.00    -0.342 N 
HETATM    2  C   UNL     1      40.731 -15.374   0.228  1.00  0.00     0.320 C 
HETATM    3  N   UNL     1      41.724 -15.162  -0.688  1.00  0.00    -0.306 N 
HETATM    4  O   UNL     1      39.754 -14.651   0.408  1.00  0.00    -0.247 OA
HETATM    5  H   UNL     1      40.051 -16.642   1.584  1.00  0.00     0.164 HD
HETATM    6  H   UNL     1      42.040 -16.011  -1.127  1.00  0.00     0.171 HD
ENDROOT
BRANCH   1   7
HETATM    7  C   UNL     1      41.988 -17.377   1.172  1.00  0.00     0.138 C 
BRANCH   7   8
HETATM    8  C   UNL     1      42.550 -17.365   2.628  1.00  0.00    -0.004 C 
HETATM    9  C   UNL     1      41.328 -17.165   3.565  1.00  0.00     0.021 C 
HETATM   10  C   UNL     1      43.452 -16.130   2.857  1.00  0.00     0.021 C 
BRANCH   8  11
HETATM   11  C   UNL     1      43.321 -18.663   2.942  1.00  0.00    -0.046 A 
HETATM   12  C   UNL     1      44.005 -18.865   4.149  1.00  0.00     0.027 A 
HETATM   13  C   UNL     1      44.693 -20.055   4.358  1.00  0.00     0.116 A 
HETATM   14  N   UNL     1      44.745 -21.063   3.466  1.00  0.00    -0.273 NA
HETATM   15  C   UNL     1      44.074 -20.874   2.315  1.00  0.00     0.116 A 
HETATM   16  C   UNL     1      43.363 -19.718   2.016  1.00  0.00     0.027 A 
ENDBRANCH   8  11
ENDBRANCH   7   8
ENDBRANCH   1   7
BRANCH   3  17
HETATM   17  C   UNL     1      41.801 -14.000  -1.489  1.00  0.00     0.070 A 
HETATM   18  C   UNL     1      41.575 -14.007  -2.875  1.00  0.00     0.101 A 
HETATM   19  C   UNL     1      41.673 -12.815  -3.601  1.00  0.00     0.039 A 
HETATM   20  C   UNL     1      42.021 -11.626  -2.958  1.00  0.00     0.003 A 
HETATM   21  C   UNL     1      42.228 -11.614  -1.580  1.00  0.00     0.002 A 
HETATM   22  C   UNL     1      42.099 -12.793  -0.845  1.00  0.00     0.032 A 
BRANCH  18  23
HETATM   23  O   UNL     1      41.077 -15.139  -3.468  1.00  0.00    -0.288 OA
BRANCH  23  24
HETATM   24  C   UNL     1      39.695 -15.016  -3.778  1.00  0.00     0.505 C 
HETATM   25  F   UNL     1      39.269 -16.231  -4.214  1.00  0.00    -0.184 F 
HETATM   26  F   UNL     1      39.012 -14.775  -2.627  1.00  0.00    -0.184 F 
ENDBRANCH  23  24
ENDBRANCH  18  23
ENDBRANCH   3  17
TORSDOF 6
ENDMDL
MODEL 9
REMARK VINA RESULT:      -7.0      3.524      7.031
REMARK  6 active torsions:
REMARK  status: ('A' for Active; 'I' for Inactive)
REMARK    1  A    between atoms: C_2  and  C_3 
REMARK    2  A    between atoms: C_2  and  C_9 
REMARK    3  A    between atoms: C_9  and  N_10 
REMARK       I    between atoms: N_10  and  C_11 
REMARK       I    between atoms: C_11  and  N_12 
REMARK    4  A    between atoms: N_12  and  C_13 
REMARK    5  A    between atoms: C_14  and  O_15 
REMARK    6  A    between atoms: O_15  and  C_16 
ROOT
HETATM    1  N   UNL     1      43.528 -15.710   3.385  1.00  0.00    -0.342 N 
HETATM    2  C   UNL     1      42.704 -14.678   3.048  1.00  0.00     0.320 C 
HETATM    3  N   UNL     1      41.378 -14.870   3.320  1.00  0.00    -0.306 N 
HETATM    4  O   UNL     1      43.202 -13.650   2.597  1.00  0.00    -0.247 OA
HETATM    5  H   UNL     1      44.498 -15.500   3.175  1.00  0.00     0.164 HD
HETATM    6  H   UNL     1      41.224 -15.401   4.161  1.00  0.00     0.171 HD
ENDROOT
BRANCH   1   7
HETATM    7  C   UNL     1      43.202 -17.112   3.604  1.00  0.00     0.138 C 
BRANCH   7   8
HETATM    8  C   UNL     1      43.279 -18.032   2.345  1.00  0.00    -0.004 C 
HETATM    9  C   UNL     1      44.238 -17.327   1.349  1.00  0.00     0.021 C 
HETATM   10  C   UNL     1      41.911 -18.093   1.627  1.00  0.00     0.021 C 
BRANCH   8  11
HETATM   11  C   UNL     1      43.759 -19.450   2.716  1.00  0.00    -0.046 A 
HETATM   12  C   UNL     1      43.598 -20.551   1.863  1.00  0.00     0.027 A 
HETATM   13  C   UNL     1      44.041 -21.805   2.270  1.00  0.00     0.116 A 
HETATM   14  N   UNL     1      44.641 -22.047   3.451  1.00  0.00    -0.273 NA
HETATM   15  C   UNL     1      44.809 -20.985   4.261  1.00  0.00     0.116 A 
HETATM   16  C   UNL     1      44.396 -19.698   3.943  1.00  0.00     0.027 A 
ENDBRANCH   8  11
ENDBRANCH   7   8
ENDBRANCH   1   7
BRANCH   3  17
HETATM   17  C   UNL     1      40.380 -13.918   3.012  1.00  0.00     0.070 A 
HETATM   18  C   UNL     1      39.694 -13.895   1.786  1.00  0.00     0.101 A 
HETATM   19  C   UNL     1      38.721 -12.918   1.552  1.00  0.00     0.039 A 
HETATM   20  C   UNL     1      38.449 -11.950   2.520  1.00  0.00     0.003 A 
HETATM   21  C   UNL     1      39.117 -11.980   3.743  1.00  0.00     0.002 A 
HETATM   22  C   UNL     1      40.065 -12.973   3.996  1.00  0.00     0.032 A 
BRANCH  18  23
HETATM   23  O   UNL     1      39.848 -14.941   0.911  1.00  0.00    -0.288 OA
BRANCH  23  24
HETATM   24  C   UNL     1      40.629 -14.580  -0.220  1.00  0.00     0.505 C 
HETATM   25  F   UNL     1      41.395 -15.656  -0.542  1.00  0.00    -0.184 F 
HETATM   26  F   UNL     1      39.796 -14.389  -1.279  1.00  0.00    -0.184 F 
ENDBRANCH  23  24
ENDBRANCH  18  23
ENDBRANCH   3  17
TORSDOF 6
ENDMDL
MODEL 10
REMARK VINA RESULT:      -6.6      5.159      8.157
REMARK  6 active torsions:
REMARK  status: ('A' for Active; 'I' for Inactive)
REMARK    1  A    between atoms: C_2  and  C_3 
REMARK    2  A    between atoms: C_2  and  C_9 
REMARK    3  A    between atoms: C_9  and  N_10 
REMARK       I    between atoms: N_10  and  C_11 
REMARK       I    between atoms: C_11  and  N_12 
REMARK    4  A    between atoms: N_12  and  C_13 
REMARK    5  A    between atoms: C_14  and  O_15 
REMARK    6  A    between atoms: O_15  and  C_16 
ROOT
HETATM    1  N   UNL     1      41.189 -10.996   6.330  1.00  0.00    -0.342 N 
HETATM    2  C   UNL     1      41.780 -10.444   7.427  1.00  0.00     0.320 C 
HETATM    3  N   UNL     1      42.082 -11.318   8.434  1.00  0.00    -0.306 N 
HETATM    4  O   UNL     1      42.053  -9.247   7.409  1.00  0.00    -0.247 OA
HETATM    5  H   UNL     1      41.006 -10.302   5.613  1.00  0.00     0.164 HD
HETATM    6  H   UNL     1      42.363 -12.224   8.096  1.00  0.00     0.171 HD
ENDROOT
BRANCH   1   7
HETATM    7  C   UNL     1      40.468 -12.256   6.209  1.00  0.00     0.138 C 
BRANCH   7   8
HETATM    8  C   UNL     1      40.976 -13.225   5.096  1.00  0.00    -0.004 C 
HETATM    9  C   UNL     1      42.112 -12.474   4.350  1.00  0.00     0.021 C 
HETATM   10  C   UNL     1      39.876 -13.467   4.037  1.00  0.00     0.021 C 
BRANCH   8  11
HETATM   11  C   UNL     1      41.454 -14.564   5.694  1.00  0.00    -0.046 A 
HETATM   12  C   UNL     1      42.785 -14.794   6.067  1.00  0.00     0.027 A 
HETATM   13  C   UNL     1      43.149 -16.033   6.586  1.00  0.00     0.116 A 
HETATM   14  N   UNL     1      42.291 -17.054   6.772  1.00  0.00    -0.273 NA
HETATM   15  C   UNL     1      41.010 -16.825   6.427  1.00  0.00     0.116 A 
HETATM   16  C   UNL     1      40.555 -15.624   5.899  1.00  0.00     0.027 A 
ENDBRANCH   8  11
ENDBRANCH   7   8
ENDBRANCH   1   7
BRANCH   3  17
HETATM   17  C   UNL     1      42.671 -10.916   9.655  1.00  0.00     0.070 A 
HETATM   18  C   UNL     1      44.059 -10.906   9.870  1.00  0.00     0.101 A 
HETATM   19  C   UNL     1      44.567 -10.497  11.108  1.00  0.00     0.039 A 
HETATM   20  C   UNL     1      43.700 -10.127  12.137  1.00  0.00     0.003 A 
HETATM   21  C   UNL     1      42.324 -10.120  11.920  1.00  0.00     0.002 A 
HETATM   22  C   UNL     1      41.812 -10.494  10.677  1.00  0.00     0.032 A 
BRANCH  18  23
HETATM   23  O   UNL     1      44.904 -11.112   8.809  1.00  0.00    -0.288 OA
BRANCH  23  24
HETATM   24  C   UNL     1      45.597 -12.348   8.911  1.00  0.00     0.505 C 
HETATM   25  F   UNL     1      44.845 -13.287   8.278  1.00  0.00    -0.184 F 
HETATM   26  F   UNL     1      46.753 -12.258   8.199  1.00  0.00    -0.184 F 
ENDBRANCH  23  24
ENDBRANCH  18  23
ENDBRANCH   3  17
TORSDOF 6
ENDMDL
