MODEL 1
REMARK VINA RESULT:      -8.9      0.000      0.000
REMARK  8 active torsions:
REMARK  status: ('A' for Active; 'I' for Inactive)
REMARK    1  A    between atoms: O_2  and  C_3 
REMARK    2  A    between atoms: C_3  and  C_4 
REMARK    3  A    between atoms: C_5  and  C_6 
REMARK    4  A    between atoms: C_6  and  C_7 
REMARK    5  A    between atoms: C_7  and  N_8 
REMARK    6  A    between atoms: N_13  and  C_14 
REMARK    7  A    between atoms: C_14  and  C_15 
REMARK    8  A    between atoms: C_15  and  N_16 
ROOT
HETATM    1  N   UNL     1      41.183 -16.527   3.827  1.00  0.00    -0.174 N 
HETATM    2  C   UNL     1      40.463 -16.282   2.683  1.00  0.00     0.681 C 
HETATM    3  N   UNL     1      40.221 -17.207   1.743  1.00  0.00    -0.234 N 
HETATM    4  H   UNL     1      39.782 -16.992   0.860  1.00  0.00     0.174 HD
HETATM    5  H   UNL     1      40.756 -18.075   1.742  1.00  0.00     0.174 HD
HETATM    6  N   UNL     1      40.001 -14.961   2.601  1.00  0.00    -0.180 N 
HETATM    7  C   UNL     1      40.696 -14.291   3.659  1.00  0.00     0.079 A 
HETATM    8  C   UNL     1      41.394 -15.248   4.415  1.00  0.00     0.079 A 
HETATM    9  C   UNL     1      40.792 -12.945   3.939  1.00  0.00     0.032 A 
HETATM   10  C   UNL     1      41.608 -12.571   5.012  1.00  0.00     0.002 A 
HETATM   11  C   UNL     1      42.299 -13.533   5.774  1.00  0.00     0.002 A 
HETATM   12  C   UNL     1      42.196 -14.895   5.478  1.00  0.00     0.032 A 
ENDROOT
BRANCH   1  13
HETATM   13  C   UNL     1      41.820 -17.779   4.245  1.00  0.00     0.231 C 
BRANCH  13  14
HETATM   14  C   UNL     1      43.139 -17.912   3.519  1.00  0.00     0.179 C 
HETATM   15  O   UNL     1      43.783 -16.935   3.145  1.00  0.00    -0.290 OA
BRANCH  14  16
HETATM   16  C   UNL     1      43.628 -19.277   3.229  1.00  0.00     0.028 A 
HETATM   17  C   UNL     1      44.318 -19.999   4.212  1.00  0.00     0.053 A 
HETATM   18  C   UNL     1      44.719 -21.317   3.958  1.00  0.00     0.018 A 
HETATM   19  C   UNL     1      44.438 -21.901   2.723  1.00  0.00     0.001 A 
HETATM   20  C   UNL     1      43.764 -21.175   1.739  1.00  0.00     0.001 A 
HETATM   21  C   UNL     1      43.354 -19.864   1.988  1.00  0.00     0.016 A 
BRANCH  17  22
HETATM   22  C   UNL     1      44.712 -19.337   5.474  1.00  0.00     0.293 C 
HETATM   23  O   UNL     1      45.629 -18.526   5.531  1.00  0.00    -0.259 OA
BRANCH  22  24
HETATM   24  O   UNL     1      43.893 -19.764   6.454  1.00  0.00    -0.322 OA
HETATM   25  C   UNL     1      43.596 -18.832   7.495  1.00  0.00     0.213 C 
ENDBRANCH  22  24
ENDBRANCH  17  22
ENDBRANCH  14  16
ENDBRANCH  13  14
ENDBRANCH   1  13
BRANCH   6  26
HETATM   26  C   UNL     1      39.252 -14.333   1.504  1.00  0.00     0.175 C 
BRANCH  26  27
HETATM   27  C   UNL     1      40.102 -14.041   0.245  1.00  0.00     0.255 C 
BRANCH  27  28
HETATM   28  N   UNL     1      39.611 -14.752  -1.012  1.00  0.00    -0.070 N 
HETATM   29  H   UNL     1      39.184 -15.646  -0.735  1.00  0.00     0.279 HD
HETATM   30  C   UNL     1      38.574 -13.954  -1.786  1.00  0.00     0.235 C 
HETATM   31  C   UNL     1      38.072 -14.776  -2.965  1.00  0.00     0.028 C 
HETATM   32  C   UNL     1      39.213 -15.178  -3.891  1.00  0.00     0.003 C 
HETATM   33  C   UNL     1      40.310 -15.901  -3.119  1.00  0.00     0.028 C 
HETATM   34  C   UNL     1      40.790 -15.093  -1.923  1.00  0.00     0.235 C 
ENDBRANCH  27  28
ENDBRANCH  26  27
ENDBRANCH   6  26
TORSDOF 8
ENDMDL
MODEL 2
REMARK VINA RESULT:      -8.5      2.499      6.030
REMARK  8 active torsions:
REMARK  status: ('A' for Active; 'I' for Inactive)
REMARK    1  A    between atoms: O_2  and  C_3 
REMARK    2  A    between atoms: C_3  and  C_4 
REMARK    3  A    between atoms: C_5  and  C_6 
REMARK    4  A    between atoms: C_6  and  C_7 
REMARK    5  A    between atoms: C_7  and  N_8 
REMARK    6  A    between atoms: N_13  and  C_14 
REMARK    7  A    between atoms: C_14  and  C_15 
REMARK    8  A    between atoms: C_15  and  N_16 
ROOT
HETATM    1  N   UNL     1      40.819 -15.884   4.254  1.00  0.00    -0.174 N 
HETATM    2  C   UNL     1      40.467 -15.083   5.313  1.00  0.00     0.681 C 
HETATM    3  N   UNL     1      40.536 -15.470   6.595  1.00  0.00    -0.234 N 
HETATM    4  H   UNL     1      40.178 -14.913   7.357  1.00  0.00     0.174 HD
HETATM    5  H   UNL     1      40.646 -16.459   6.816  1.00  0.00     0.174 HD
HETATM    6  N   UNL     1      40.031 -13.812   4.914  1.00  0.00    -0.180 N 
HETATM    7  C   UNL     1      39.879 -13.934   3.495  1.00  0.00     0.079 A 
HETATM    8  C   UNL     1      40.380 -15.184   3.095  1.00  0.00     0.079 A 
HETATM    9  C   UNL     1      39.297 -13.071   2.592  1.00  0.00     0.032 A 
HETATM   10  C   UNL     1      39.230 -13.489   1.258  1.00  0.00     0.002 A 
HETATM   11  C   UNL     1      39.741 -14.739   0.859  1.00  0.00     0.002 A 
HETATM   12  C   UNL     1      40.327 -15.606   1.785  1.00  0.00     0.032 A 
ENDROOT
BRANCH   1  13
HETATM   13  C   UNL     1      41.309 -17.265   4.288  1.00  0.00     0.231 C 
BRANCH  13  14
HETATM   14  C   UNL     1      42.789 -17.257   3.981  1.00  0.00     0.179 C 
HETATM   15  O   UNL     1      43.458 -16.227   4.008  1.00  0.00    -0.290 OA
BRANCH  14  16
HETATM   16  C   UNL     1      43.417 -18.540   3.601  1.00  0.00     0.028 A 
HETATM   17  C   UNL     1      44.158 -19.265   4.544  1.00  0.00     0.053 A 
HETATM   18  C   UNL     1      44.694 -20.513   4.202  1.00  0.00     0.018 A 
HETATM   19  C   UNL     1      44.497 -21.023   2.918  1.00  0.00     0.001 A 
HETATM   20  C   UNL     1      43.772 -20.293   1.975  1.00  0.00     0.001 A 
HETATM   21  C   UNL     1      43.228 -19.052   2.312  1.00  0.00     0.016 A 
BRANCH  17  22
HETATM   22  C   UNL     1      44.460 -18.669   5.863  1.00  0.00     0.293 C 
HETATM   23  O   UNL     1      45.512 -18.085   6.094  1.00  0.00    -0.259 OA
BRANCH  22  24
HETATM   24  O   UNL     1      43.402 -18.866   6.673  1.00  0.00    -0.322 OA
HETATM   25  C   UNL     1      43.146 -17.858   7.653  1.00  0.00     0.213 C 
ENDBRANCH  22  24
ENDBRANCH  17  22
ENDBRANCH  14  16
ENDBRANCH  13  14
ENDBRANCH   1  13
BRANCH   6  26
HETATM   26  C   UNL     1      39.529 -12.722   5.762  1.00  0.00     0.175 C 
BRANCH  26  27
HETATM   27  C   UNL     1      40.594 -11.657   6.117  1.00  0.00     0.255 C 
BRANCH  27  28
HETATM   28  N   UNL     1      40.878 -11.538   7.610  1.00  0.00    -0.070 N 
HETATM   29  H   UNL     1      41.093 -12.474   7.977  1.00  0.00     0.279 HD
HETATM   30  C   UNL     1      42.054 -10.628   7.926  1.00  0.00     0.235 C 
HETATM   31  C   UNL     1      42.325 -10.644   9.424  1.00  0.00     0.028 C 
HETATM   32  C   UNL     1      41.101 -10.203  10.217  1.00  0.00     0.003 C 
HETATM   33  C   UNL     1      39.884 -11.043   9.850  1.00  0.00     0.028 C 
HETATM   34  C   UNL     1      39.632 -11.052   8.349  1.00  0.00     0.235 C 
ENDBRANCH  27  28
ENDBRANCH  26  27
ENDBRANCH   6  26
TORSDOF 8
ENDMDL
MODEL 3
REMARK VINA RESULT:      -8.4      1.427      2.199
REMARK  8 active torsions:
REMARK  status: ('A' for Active; 'I' for Inactive)
REMARK    1  A    between atoms: O_2  and  C_3 
REMARK    2  A    between atoms: C_3  and  C_4 
REMARK    3  A    between atoms: C_5  and  C_6 
REMARK    4  A    between atoms: C_6  and  C_7 
REMARK    5  A    between atoms: C_7  and  N_8 
REMARK    6  A    between atoms: N_13  and  C_14 
REMARK    7  A    between atoms: C_14  and  C_15 
REMARK    8  A    between atoms: C_15  and  N_16 
ROOT
HETATM    1  N   UNL     1      41.833 -16.620   4.616  1.00  0.00    -0.174 N 
HETATM    2  C   UNL     1      40.998 -15.801   3.895  1.00  0.00     0.681 C 
HETATM    3  N   UNL     1      40.245 -16.223   2.869  1.00  0.00    -0.234 N 
HETATM    4  H   UNL     1      39.717 -15.596   2.281  1.00  0.00     0.174 HD
HETATM    5  H   UNL     1      40.433 -17.131   2.447  1.00  0.00     0.174 HD
HETATM    6  N   UNL     1      41.013 -14.474   4.346  1.00  0.00    -0.180 N 
HETATM    7  C   UNL     1      42.119 -14.436   5.255  1.00  0.00     0.079 A 
HETATM    8  C   UNL     1      42.599 -15.744   5.435  1.00  0.00     0.079 A 
HETATM    9  C   UNL     1      42.733 -13.356   5.854  1.00  0.00     0.032 A 
HETATM   10  C   UNL     1      43.851 -13.618   6.653  1.00  0.00     0.002 A 
HETATM   11  C   UNL     1      44.324 -14.932   6.838  1.00  0.00     0.002 A 
HETATM   12  C   UNL     1      43.694 -16.017   6.224  1.00  0.00     0.032 A 
ENDROOT
BRANCH   1  13
HETATM   13  C   UNL     1      42.078 -18.053   4.428  1.00  0.00     0.231 C 
BRANCH  13  14
HETATM   14  C   UNL     1      43.243 -18.220   3.479  1.00  0.00     0.179 C 
HETATM   15  O   UNL     1      43.771 -17.265   2.916  1.00  0.00    -0.290 OA
BRANCH  14  16
HETATM   16  C   UNL     1      43.715 -19.595   3.209  1.00  0.00     0.028 A 
HETATM   17  C   UNL     1      44.373 -20.320   4.212  1.00  0.00     0.053 A 
HETATM   18  C   UNL     1      44.758 -21.646   3.976  1.00  0.00     0.018 A 
HETATM   19  C   UNL     1      44.495 -22.235   2.739  1.00  0.00     0.001 A 
HETATM   20  C   UNL     1      43.854 -21.506   1.736  1.00  0.00     0.001 A 
HETATM   21  C   UNL     1      43.459 -20.186   1.966  1.00  0.00     0.016 A 
BRANCH  17  22
HETATM   22  C   UNL     1      44.750 -19.656   5.477  1.00  0.00     0.293 C 
HETATM   23  O   UNL     1      45.581 -18.756   5.524  1.00  0.00    -0.259 OA
BRANCH  22  24
HETATM   24  O   UNL     1      44.020 -20.191   6.475  1.00  0.00    -0.322 OA
HETATM   25  C   UNL     1      43.800 -19.369   7.623  1.00  0.00     0.213 C 
ENDBRANCH  22  24
ENDBRANCH  17  22
ENDBRANCH  14  16
ENDBRANCH  13  14
ENDBRANCH   1  13
BRANCH   6  26
HETATM   26  C   UNL     1      40.295 -13.322   3.785  1.00  0.00     0.175 C 
BRANCH  26  27
HETATM   27  C   UNL     1      40.916 -12.765   2.482  1.00  0.00     0.255 C 
BRANCH  27  28
HETATM   28  N   UNL     1      39.945 -12.708   1.307  1.00  0.00    -0.070 N 
HETATM   29  H   UNL     1      39.802 -11.722   1.050  1.00  0.00     0.279 HD
HETATM   30  C   UNL     1      40.447 -13.447   0.078  1.00  0.00     0.235 C 
HETATM   31  C   UNL     1      39.465 -13.257  -1.070  1.00  0.00     0.028 C 
HETATM   32  C   UNL     1      38.073 -13.753  -0.701  1.00  0.00     0.003 C 
HETATM   33  C   UNL     1      37.584 -13.092   0.582  1.00  0.00     0.028 C 
HETATM   34  C   UNL     1      38.579 -13.255   1.721  1.00  0.00     0.235 C 
ENDBRANCH  27  28
ENDBRANCH  26  27
ENDBRANCH   6  26
TORSDOF 8
ENDMDL
MODEL 4
REMARK VINA RESULT:      -8.3      1.151      1.792
REMARK  8 active torsions:
REMARK  status: ('A' for Active; 'I' for Inactive)
REMARK    1  A    between atoms: O_2  and  C_3 
REMARK    2  A    between atoms: C_3  and  C_4 
REMARK    3  A    between atoms: C_5  and  C_6 
REMARK    4  A    between atoms: C_6  and  C_7 
REMARK    5  A    between atoms: C_7  and  N_8 
REMARK    6  A    between atoms: N_13  and  C_14 
REMARK    7  A    between atoms: C_14  and  C_15 
REMARK    8  A    between atoms: C_15  and  N_16 
ROOT
HETATM    1  N   UNL     1      40.544 -16.078   3.607  1.00  0.00    -0.174 N 
HETATM    2  C   UNL     1      40.129 -15.906   2.308  1.00  0.00     0.681 C 
HETATM    3  N   UNL     1      40.314 -16.816   1.341  1.00  0.00    -0.234 N 
HETATM    4  H   UNL     1      40.101 -16.638   0.371  1.00  0.00     0.174 HD
HETATM    5  H   UNL     1      40.969 -17.583   1.490  1.00  0.00     0.174 HD
HETATM    6  N   UNL     1      39.488 -14.678   2.098  1.00  0.00    -0.180 N 
HETATM    7  C   UNL     1      39.745 -13.949   3.304  1.00  0.00     0.079 A 
HETATM    8  C   UNL     1      40.365 -14.810   4.226  1.00  0.00     0.079 A 
HETATM    9  C   UNL     1      39.529 -12.619   3.596  1.00  0.00     0.032 A 
HETATM   10  C   UNL     1      39.947 -12.162   4.850  1.00  0.00     0.002 A 
HETATM   11  C   UNL     1      40.560 -13.030   5.776  1.00  0.00     0.002 A 
HETATM   12  C   UNL     1      40.776 -14.375   5.467  1.00  0.00     0.032 A 
ENDROOT
BRANCH   1  13
HETATM   13  C   UNL     1      41.248 -17.225   4.187  1.00  0.00     0.231 C 
BRANCH  13  14
HETATM   14  C   UNL     1      42.721 -17.093   3.873  1.00  0.00     0.179 C 
HETATM   15  O   UNL     1      43.216 -16.039   3.482  1.00  0.00    -0.290 OA
BRANCH  14  16
HETATM   16  C   UNL     1      43.563 -18.301   4.013  1.00  0.00     0.028 A 
HETATM   17  C   UNL     1      43.996 -18.710   5.281  1.00  0.00     0.053 A 
HETATM   18  C   UNL     1      44.735 -19.892   5.418  1.00  0.00     0.018 A 
HETATM   19  C   UNL     1      45.046 -20.650   4.288  1.00  0.00     0.001 A 
HETATM   20  C   UNL     1      44.628 -20.232   3.024  1.00  0.00     0.001 A 
HETATM   21  C   UNL     1      43.883 -19.059   2.881  1.00  0.00     0.016 A 
BRANCH  17  22
HETATM   22  C   UNL     1      43.762 -17.846   6.457  1.00  0.00     0.293 C 
HETATM   23  O   UNL     1      42.853 -18.053   7.253  1.00  0.00    -0.259 OA
BRANCH  22  24
HETATM   24  O   UNL     1      44.703 -16.883   6.475  1.00  0.00    -0.322 OA
HETATM   25  C   UNL     1      44.285 -15.582   6.891  1.00  0.00     0.213 C 
ENDBRANCH  22  24
ENDBRANCH  17  22
ENDBRANCH  14  16
ENDBRANCH  13  14
ENDBRANCH   1  13
BRANCH   6  26
HETATM   26  C   UNL     1      38.968 -14.135   0.836  1.00  0.00     0.175 C 
BRANCH  26  27
HETATM   27  C   UNL     1      40.037 -13.438  -0.039  1.00  0.00     0.255 C 
BRANCH  27  28
HETATM   28  N   UNL     1      40.062 -13.920  -1.486  1.00  0.00    -0.070 N 
HETATM   29  H   UNL     1      40.460 -13.173  -2.071  1.00  0.00     0.279 HD
HETATM   30  C   UNL     1      40.902 -15.172  -1.687  1.00  0.00     0.235 C 
HETATM   31  C   UNL     1      40.950 -15.523  -3.167  1.00  0.00     0.028 C 
HETATM   32  C   UNL     1      39.554 -15.740  -3.735  1.00  0.00     0.003 C 
HETATM   33  C   UNL     1      38.664 -14.532  -3.466  1.00  0.00     0.028 C 
HETATM   34  C   UNL     1      38.640 -14.162  -1.990  1.00  0.00     0.235 C 
ENDBRANCH  27  28
ENDBRANCH  26  27
ENDBRANCH   6  26
TORSDOF 8
ENDMDL
MODEL 5
REMARK VINA RESULT:      -8.3      1.357      1.497
REMARK  8 active torsions:
REMARK  status: ('A' for Active; 'I' for Inactive)
REMARK    1  A    between atoms: O_2  and  C_3 
REMARK    2  A    between atoms: C_3  and  C_4 
REMARK    3  A    between atoms: C_5  and  C_6 
REMARK    4  A    between atoms: C_6  and  C_7 
REMARK    5  A    between atoms: C_7  and  N_8 
REMARK    6  A    between atoms: N_13  and  C_14 
REMARK    7  A    between atoms: C_14  and  C_15 
REMARK    8  A    between atoms: C_15  and  N_16 
ROOT
HETATM    1  N   UNL     1      40.905 -16.607   3.609  1.00  0.00    -0.174 N 
HETATM    2  C   UNL     1      40.711 -16.323   2.279  1.00  0.00     0.681 C 
HETATM    3  N   UNL     1      41.118 -17.119   1.280  1.00  0.00    -0.234 N 
HETATM    4  H   UNL     1      41.065 -16.853   0.308  1.00  0.00     0.174 HD
HETATM    5  H   UNL     1      41.786 -17.865   1.472  1.00  0.00     0.174 HD
HETATM    6  N   UNL     1      40.037 -15.111   2.072  1.00  0.00    -0.180 N 
HETATM    7  C   UNL     1      40.034 -14.499   3.366  1.00  0.00     0.079 A 
HETATM    8  C   UNL     1      40.540 -15.418   4.301  1.00  0.00     0.079 A 
HETATM    9  C   UNL     1      39.684 -13.217   3.736  1.00  0.00     0.032 A 
HETATM   10  C   UNL     1      39.849 -12.872   5.082  1.00  0.00     0.002 A 
HETATM   11  C   UNL     1      40.348 -13.799   6.018  1.00  0.00     0.002 A 
HETATM   12  C   UNL     1      40.701 -15.094   5.629  1.00  0.00     0.032 A 
ENDROOT
BRANCH   1  13
HETATM   13  C   UNL     1      41.571 -17.772   4.197  1.00  0.00     0.231 C 
BRANCH  13  14
HETATM   14  C   UNL     1      42.990 -17.827   3.678  1.00  0.00     0.179 C 
HETATM   15  O   UNL     1      43.648 -16.812   3.460  1.00  0.00    -0.290 OA
BRANCH  14  16
HETATM   16  C   UNL     1      43.566 -19.159   3.395  1.00  0.00     0.028 A 
HETATM   17  C   UNL     1      44.291 -19.835   4.386  1.00  0.00     0.053 A 
HETATM   18  C   UNL     1      44.775 -21.125   4.139  1.00  0.00     0.018 A 
HETATM   19  C   UNL     1      44.545 -21.727   2.901  1.00  0.00     0.001 A 
HETATM   20  C   UNL     1      43.837 -21.046   1.910  1.00  0.00     0.001 A 
HETATM   21  C   UNL     1      43.342 -19.763   2.152  1.00  0.00     0.016 A 
BRANCH  17  22
HETATM   22  C   UNL     1      44.629 -19.149   5.651  1.00  0.00     0.293 C 
HETATM   23  O   UNL     1      45.603 -18.411   5.758  1.00  0.00    -0.259 OA
BRANCH  22  24
HETATM   24  O   UNL     1      43.696 -19.461   6.571  1.00  0.00    -0.322 OA
HETATM   25  C   UNL     1      43.396 -18.463   7.547  1.00  0.00     0.213 C 
ENDBRANCH  22  24
ENDBRANCH  17  22
ENDBRANCH  14  16
ENDBRANCH  13  14
ENDBRANCH   1  13
BRANCH   6  26
HETATM   26  C   UNL     1      39.709 -14.468   0.793  1.00  0.00     0.175 C 
BRANCH  26  27
HETATM   27  C   UNL     1      40.715 -13.375   0.359  1.00  0.00     0.255 C 
BRANCH  27  28
HETATM   28  N   UNL     1      41.147 -13.474  -1.100  1.00  0.00    -0.070 N 
HETATM   29  H   UNL     1      41.564 -14.402  -1.254  1.00  0.00     0.279 HD
HETATM   30  C   UNL     1      39.995 -13.309  -2.079  1.00  0.00     0.235 C 
HETATM   31  C   UNL     1      40.498 -13.518  -3.500  1.00  0.00     0.028 C 
HETATM   32  C   UNL     1      41.615 -12.542  -3.846  1.00  0.00     0.003 C 
HETATM   33  C   UNL     1      42.744 -12.625  -2.825  1.00  0.00     0.028 C 
HETATM   34  C   UNL     1      42.237 -12.447  -1.402  1.00  0.00     0.235 C 
ENDBRANCH  27  28
ENDBRANCH  26  27
ENDBRANCH   6  26
TORSDOF 8
ENDMDL
MODEL 6
REMARK VINA RESULT:      -8.0      2.251      4.986
REMARK  8 active torsions:
REMARK  status: ('A' for Active; 'I' for Inactive)
REMARK    1  A    between atoms: O_2  and  C_3 
REMARK    2  A    between atoms: C_3  and  C_4 
REMARK    3  A    between atoms: C_5  and  C_6 
REMARK    4  A    between atoms: C_6  and  C_7 
REMARK    5  A    between atoms: C_7  and  N_8 
REMARK    6  A    between atoms: N_13  and  C_14 
REMARK    7  A    between atoms: C_14  and  C_15 
REMARK    8  A    between atoms: C_15  and  N_16 
ROOT
HETATM    1  N   UNL     1      41.097 -16.869   3.498  1.00  0.00    -0.174 N 
HETATM    2  C   UNL     1      40.616 -16.469   2.275  1.00  0.00     0.681 C 
HETATM    3  N   UNL     1      39.415 -15.901   2.097  1.00  0.00    -0.234 N 
HETATM    4  H   UNL     1      39.029 -15.707   1.185  1.00  0.00     0.174 HD
HETATM    5  H   UNL     1      38.722 -15.946   2.843  1.00  0.00     0.174 HD
HETATM    6  N   UNL     1      41.515 -16.714   1.228  1.00  0.00    -0.180 N 
HETATM    7  C   UNL     1      42.518 -17.542   1.828  1.00  0.00     0.079 A 
HETATM    8  C   UNL     1      42.274 -17.615   3.210  1.00  0.00     0.079 A 
HETATM    9  C   UNL     1      43.546 -18.250   1.242  1.00  0.00     0.032 A 
HETATM   10  C   UNL     1      44.340 -19.039   2.081  1.00  0.00     0.002 A 
HETATM   11  C   UNL     1      44.098 -19.103   3.467  1.00  0.00     0.002 A 
HETATM   12  C   UNL     1      43.052 -18.382   4.049  1.00  0.00     0.032 A 
ENDROOT
BRANCH   1  13
HETATM   13  C   UNL     1      40.438 -16.778   4.804  1.00  0.00     0.231 C 
BRANCH  13  14
HETATM   14  C   UNL     1      40.792 -15.448   5.429  1.00  0.00     0.179 C 
HETATM   15  O   UNL     1      39.989 -14.520   5.496  1.00  0.00    -0.290 OA
BRANCH  14  16
HETATM   16  C   UNL     1      42.171 -15.273   5.934  1.00  0.00     0.028 A 
HETATM   17  C   UNL     1      42.929 -14.164   5.533  1.00  0.00     0.053 A 
HETATM   18  C   UNL     1      44.209 -13.965   6.066  1.00  0.00     0.018 A 
HETATM   19  C   UNL     1      44.727 -14.878   6.985  1.00  0.00     0.001 A 
HETATM   20  C   UNL     1      43.977 -15.990   7.370  1.00  0.00     0.001 A 
HETATM   21  C   UNL     1      42.697 -16.191   6.850  1.00  0.00     0.016 A 
BRANCH  17  22
HETATM   22  C   UNL     1      42.421 -13.265   4.477  1.00  0.00     0.293 C 
HETATM   23  O   UNL     1      41.884 -12.192   4.730  1.00  0.00    -0.259 OA
BRANCH  22  24
HETATM   24  O   UNL     1      42.683 -13.822   3.278  1.00  0.00    -0.322 OA
HETATM   25  C   UNL     1      42.293 -13.076   2.124  1.00  0.00     0.213 C 
ENDBRANCH  22  24
ENDBRANCH  17  22
ENDBRANCH  14  16
ENDBRANCH  13  14
ENDBRANCH   1  13
BRANCH   6  26
HETATM   26  C   UNL     1      41.319 -16.470  -0.207  1.00  0.00     0.175 C 
BRANCH  26  27
HETATM   27  C   UNL     1      41.320 -14.973  -0.598  1.00  0.00     0.255 C 
BRANCH  27  28
HETATM   28  N   UNL     1      40.447 -14.648  -1.805  1.00  0.00    -0.070 N 
HETATM   29  H   UNL     1      40.893 -13.886  -2.334  1.00  0.00     0.279 HD
HETATM   30  C   UNL     1      40.261 -15.827  -2.746  1.00  0.00     0.235 C 
HETATM   31  C   UNL     1      39.462 -15.388  -3.965  1.00  0.00     0.028 C 
HETATM   32  C   UNL     1      38.104 -14.823  -3.568  1.00  0.00     0.003 C 
HETATM   33  C   UNL     1      38.260 -13.696  -2.554  1.00  0.00     0.028 C 
HETATM   34  C   UNL     1      39.084 -14.126  -1.350  1.00  0.00     0.235 C 
ENDBRANCH  27  28
ENDBRANCH  26  27
ENDBRANCH   6  26
TORSDOF 8
ENDMDL
MODEL 7
REMARK VINA RESULT:      -8.0      2.255      3.044
REMARK  8 active torsions:
REMARK  status: ('A' for Active; 'I' for Inactive)
REMARK    1  A    between atoms: O_2  and  C_3 
REMARK    2  A    between atoms: C_3  and  C_4 
REMARK    3  A    between atoms: C_5  and  C_6 
REMARK    4  A    between atoms: C_6  and  C_7 
REMARK    5  A    between atoms: C_7  and  N_8 
REMARK    6  A    between atoms: N_13  and  C_14 
REMARK    7  A    between atoms: C_14  and  C_15 
REMARK    8  A    between atoms: C_15  and  N_16 
ROOT
HETATM    1  N   UNL     1      40.611 -16.044   2.556  1.00  0.00    -0.174 N 
HETATM    2  C   UNL     1      40.659 -15.922   1.189  1.00  0.00     0.681 C 
HETATM    3  N   UNL     1      41.212 -16.836   0.378  1.00  0.00    -0.234 N 
HETATM    4  H   UNL     1      41.335 -16.689  -0.612  1.00  0.00     0.174 HD
HETATM    5  H   UNL     1      41.816 -17.557   0.772  1.00  0.00     0.174 HD
HETATM    6  N   UNL     1      40.065 -14.740   0.725  1.00  0.00    -0.180 N 
HETATM    7  C   UNL     1      39.853 -13.975   1.917  1.00  0.00     0.079 A 
HETATM    8  C   UNL     1      40.164 -14.778   3.027  1.00  0.00     0.079 A 
HETATM    9  C   UNL     1      39.480 -12.656   2.065  1.00  0.00     0.032 A 
HETATM   10  C   UNL     1      39.418 -12.151   3.368  1.00  0.00     0.002 A 
HETATM   11  C   UNL     1      39.721 -12.961   4.481  1.00  0.00     0.002 A 
HETATM   12  C   UNL     1      40.100 -14.296   4.316  1.00  0.00     0.032 A 
ENDROOT
BRANCH   1  13
HETATM   13  C   UNL     1      41.133 -17.133   3.386  1.00  0.00     0.231 C 
BRANCH  13  14
HETATM   14  C   UNL     1      42.629 -16.959   3.521  1.00  0.00     0.179 C 
HETATM   15  O   UNL     1      43.171 -15.860   3.437  1.00  0.00    -0.290 OA
BRANCH  14  16
HETATM   16  C   UNL     1      43.445 -18.176   3.722  1.00  0.00     0.028 A 
HETATM   17  C   UNL     1      43.798 -18.578   5.017  1.00  0.00     0.053 A 
HETATM   18  C   UNL     1      44.511 -19.767   5.209  1.00  0.00     0.018 A 
HETATM   19  C   UNL     1      44.878 -20.541   4.107  1.00  0.00     0.001 A 
HETATM   20  C   UNL     1      44.540 -20.131   2.816  1.00  0.00     0.001 A 
HETATM   21  C   UNL     1      43.820 -18.951   2.618  1.00  0.00     0.016 A 
BRANCH  17  22
HETATM   22  C   UNL     1      43.507 -17.698   6.169  1.00  0.00     0.293 C 
HETATM   23  O   UNL     1      42.448 -17.751   6.785  1.00  0.00    -0.259 OA
BRANCH  22  24
HETATM   24  O   UNL     1      44.580 -16.914   6.390  1.00  0.00    -0.322 OA
HETATM   25  C   UNL     1      44.323 -15.591   6.863  1.00  0.00     0.213 C 
ENDBRANCH  22  24
ENDBRANCH  17  22
ENDBRANCH  14  16
ENDBRANCH  13  14
ENDBRANCH   1  13
BRANCH   6  26
HETATM   26  C   UNL     1      39.981 -14.254  -0.659  1.00  0.00     0.175 C 
BRANCH  26  27
HETATM   27  C   UNL     1      41.352 -13.920  -1.294  1.00  0.00     0.255 C 
BRANCH  27  28
HETATM   28  N   UNL     1      41.661 -12.428  -1.351  1.00  0.00    -0.070 N 
HETATM   29  H   UNL     1      40.781 -11.919  -1.507  1.00  0.00     0.279 HD
HETATM   30  C   UNL     1      42.293 -11.897  -0.074  1.00  0.00     0.235 C 
HETATM   31  C   UNL     1      42.477 -10.390  -0.182  1.00  0.00     0.028 C 
HETATM   32  C   UNL     1      43.341 -10.019  -1.380  1.00  0.00     0.003 C 
HETATM   33  C   UNL     1      42.777 -10.616  -2.663  1.00  0.00     0.028 C 
HETATM   34  C   UNL     1      42.564 -12.118  -2.545  1.00  0.00     0.235 C 
ENDBRANCH  27  28
ENDBRANCH  26  27
ENDBRANCH   6  26
TORSDOF 8
ENDMDL
MODEL 8
REMARK VINA RESULT:      -7.8      3.305      5.051
REMARK  8 active torsions:
REMARK  status: ('A' for Active; 'I' for Inactive)
REMARK    1  A    between atoms: O_2  and  C_3 
REMARK    2  A    between atoms: C_3  and  C_4 
REMARK    3  A    between atoms: C_5  and  C_6 
REMARK    4  A    between atoms: C_6  and  C_7 
REMARK    5  A    between atoms: C_7  and  N_8 
REMARK    6  A    between atoms: N_13  and  C_14 
REMARK    7  A    between atoms: C_14  and  C_15 
REMARK    8  A    between atoms: C_15  and  N_16 
ROOT
HETATM    1  N   UNL     1      41.793 -13.906   0.859  1.00  0.00    -0.174 N 
HETATM    2  C   UNL     1      42.041 -12.564   0.705  1.00  0.00     0.681 C 
HETATM    3  N   UNL     1      42.074 -11.691   1.722  1.00  0.00    -0.234 N 
HETATM    4  H   UNL     1      42.153 -10.694   1.587  1.00  0.00     0.174 HD
HETATM    5  H   UNL     1      41.697 -11.961   2.629  1.00  0.00     0.174 HD
HETATM    6  N   UNL     1      42.259 -12.199  -0.631  1.00  0.00    -0.180 N 
HETATM    7  C   UNL     1      41.879 -13.367  -1.369  1.00  0.00     0.079 A 
HETATM    8  C   UNL     1      41.619 -14.408  -0.461  1.00  0.00     0.079 A 
HETATM    9  C   UNL     1      41.699 -13.534  -2.725  1.00  0.00     0.032 A 
HETATM   10  C   UNL     1      41.252 -14.786  -3.162  1.00  0.00     0.002 A 
HETATM   11  C   UNL     1      41.001 -15.831  -2.250  1.00  0.00     0.002 A 
HETATM   12  C   UNL     1      41.186 -15.647  -0.877  1.00  0.00     0.032 A 
ENDROOT
BRANCH   1  13
HETATM   13  C   UNL     1      41.516 -14.638   2.098  1.00  0.00     0.231 C 
BRANCH  13  14
HETATM   14  C   UNL     1      42.833 -15.043   2.722  1.00  0.00     0.179 C 
HETATM   15  O   UNL     1      43.619 -14.221   3.184  1.00  0.00    -0.290 OA
BRANCH  14  16
HETATM   16  C   UNL     1      43.176 -16.481   2.726  1.00  0.00     0.028 A 
HETATM   17  C   UNL     1      42.970 -17.248   3.880  1.00  0.00     0.053 A 
HETATM   18  C   UNL     1      43.231 -18.624   3.860  1.00  0.00     0.018 A 
HETATM   19  C   UNL     1      43.707 -19.222   2.693  1.00  0.00     0.001 A 
HETATM   20  C   UNL     1      43.927 -18.454   1.549  1.00  0.00     0.001 A 
HETATM   21  C   UNL     1      43.660 -17.084   1.558  1.00  0.00     0.016 A 
BRANCH  17  22
HETATM   22  C   UNL     1      42.575 -16.590   5.143  1.00  0.00     0.293 C 
HETATM   23  O   UNL     1      43.397 -16.129   5.928  1.00  0.00    -0.259 OA
BRANCH  22  24
HETATM   24  O   UNL     1      41.231 -16.583   5.221  1.00  0.00    -0.322 OA
HETATM   25  C   UNL     1      40.623 -15.408   5.759  1.00  0.00     0.213 C 
ENDBRANCH  22  24
ENDBRANCH  17  22
ENDBRANCH  14  16
ENDBRANCH  13  14
ENDBRANCH   1  13
BRANCH   6  26
HETATM   26  C   UNL     1      42.497 -10.855  -1.173  1.00  0.00     0.175 C 
BRANCH  26  27
HETATM   27  C   UNL     1      41.211 -10.115  -1.613  1.00  0.00     0.255 C 
BRANCH  27  28
HETATM   28  N   UNL     1      41.192  -9.732  -3.089  1.00  0.00    -0.070 N 
HETATM   29  H   UNL     1      41.000  -8.724  -3.161  1.00  0.00     0.279 HD
HETATM   30  C   UNL     1      42.507 -10.012  -3.799  1.00  0.00     0.235 C 
HETATM   31  C   UNL     1      42.430  -9.511  -5.234  1.00  0.00     0.028 C 
HETATM   32  C   UNL     1      41.283 -10.166  -5.993  1.00  0.00     0.003 C 
HETATM   33  C   UNL     1      39.964  -9.977  -5.253  1.00  0.00     0.028 C 
HETATM   34  C   UNL     1      40.050 -10.449  -3.809  1.00  0.00     0.235 C 
ENDBRANCH  27  28
ENDBRANCH  26  27
ENDBRANCH   6  26
TORSDOF 8
ENDMDL
MODEL 9
REMARK VINA RESULT:      -7.8      1.896      5.228
REMARK  8 active torsions:
REMARK  status: ('A' for Active; 'I' for Inactive)
REMARK    1  A    between atoms: O_2  and  C_3 
REMARK    2  A    between atoms: C_3  and  C_4 
REMARK    3  A    between atoms: C_5  and  C_6 
REMARK    4  A    between atoms: C_6  and  C_7 
REMARK    5  A    between atoms: C_7  and  N_8 
REMARK    6  A    between atoms: N_13  and  C_14 
REMARK    7  A    between atoms: C_14  and  C_15 
REMARK    8  A    between atoms: C_15  and  N_16 
ROOT
HETATM    1  N   UNL     1      40.765 -15.793   1.058  1.00  0.00    -0.174 N 
HETATM    2  C   UNL     1      40.000 -14.997   1.876  1.00  0.00     0.681 C 
HETATM    3  N   UNL     1      39.666 -15.324   3.132  1.00  0.00    -0.234 N 
HETATM    4  H   UNL     1      39.019 -14.784   3.687  1.00  0.00     0.174 HD
HETATM    5  H   UNL     1      39.789 -16.285   3.452  1.00  0.00     0.174 HD
HETATM    6  N   UNL     1      39.605 -13.802   1.260  1.00  0.00    -0.180 N 
HETATM    7  C   UNL     1      39.957 -13.995  -0.115  1.00  0.00     0.079 A 
HETATM    8  C   UNL     1      40.682 -15.194  -0.230  1.00  0.00     0.079 A 
HETATM    9  C   UNL     1      39.636 -13.241  -1.223  1.00  0.00     0.032 A 
HETATM   10  C   UNL     1      40.066 -13.715  -2.467  1.00  0.00     0.002 A 
HETATM   11  C   UNL     1      40.800 -14.913  -2.578  1.00  0.00     0.002 A 
HETATM   12  C   UNL     1      41.117 -15.669  -1.447  1.00  0.00     0.032 A 
ENDROOT
BRANCH   1  13
HETATM   13  C   UNL     1      41.345 -17.106   1.358  1.00  0.00     0.231 C 
BRANCH  13  14
HETATM   14  C   UNL     1      42.746 -16.903   1.888  1.00  0.00     0.179 C 
HETATM   15  O   UNL     1      43.393 -15.884   1.656  1.00  0.00    -0.290 OA
BRANCH  14  16
HETATM   16  C   UNL     1      43.347 -18.000   2.675  1.00  0.00     0.028 A 
HETATM   17  C   UNL     1      43.214 -18.017   4.070  1.00  0.00     0.053 A 
HETATM   18  C   UNL     1      43.724 -19.093   4.807  1.00  0.00     0.018 A 
HETATM   19  C   UNL     1      44.373 -20.138   4.149  1.00  0.00     0.001 A 
HETATM   20  C   UNL     1      44.519 -20.112   2.761  1.00  0.00     0.001 A 
HETATM   21  C   UNL     1      44.005 -19.047   2.019  1.00  0.00     0.016 A 
BRANCH  17  22
HETATM   22  C   UNL     1      42.628 -16.855   4.770  1.00  0.00     0.293 C 
HETATM   23  O   UNL     1      43.282 -15.855   5.044  1.00  0.00    -0.259 OA
BRANCH  22  24
HETATM   24  O   UNL     1      41.323 -17.103   4.994  1.00  0.00    -0.322 OA
HETATM   25  C   UNL     1      40.817 -16.767   6.287  1.00  0.00     0.213 C 
ENDBRANCH  22  24
ENDBRANCH  17  22
ENDBRANCH  14  16
ENDBRANCH  13  14
ENDBRANCH   1  13
BRANCH   6  26
HETATM   26  C   UNL     1      38.744 -12.746   1.808  1.00  0.00     0.175 C 
BRANCH  26  27
HETATM   27  C   UNL     1      39.518 -11.565   2.441  1.00  0.00     0.255 C 
BRANCH  27  28
HETATM   28  N   UNL     1      40.026 -11.843   3.852  1.00  0.00    -0.070 N 
HETATM   29  H   UNL     1      40.573 -12.714   3.835  1.00  0.00     0.279 HD
HETATM   30  C   UNL     1      40.917 -10.738   4.397  1.00  0.00     0.235 C 
HETATM   31  C   UNL     1      41.454 -11.141   5.763  1.00  0.00     0.028 C 
HETATM   32  C   UNL     1      40.325 -11.427   6.744  1.00  0.00     0.003 C 
HETATM   33  C   UNL     1      39.365 -12.468   6.180  1.00  0.00     0.028 C 
HETATM   34  C   UNL     1      38.852 -12.080   4.801  1.00  0.00     0.235 C 
ENDBRANCH  27  28
ENDBRANCH  26  27
ENDBRANCH   6  26
TORSDOF 8
ENDMDL
MODEL 10
REMARK VINA RESULT:      -7.7      4.890      8.882
REMARK  8 active torsions:
REMARK  status: ('A' for Active; 'I' for Inactive)
REMARK    1  A    between atoms: O_2  and  C_3 
REMARK    2  A    between atoms: C_3  and  C_4 
REMARK    3  A    between atoms: C_5  and  C_6 
REMARK    4  A    between atoms: C_6  and  C_7 
REMARK    5  A    between atoms: C_7  and  N_8 
REMARK    6  A    between atoms: N_13  and  C_14 
REMARK    7  A    between atoms: C_14  and  C_15 
REMARK    8  A    between atoms: C_15  and  N_16 
ROOT
HETATM    1  N   UNL     1      42.930 -12.697   6.785  1.00  0.00    -0.174 N 
HETATM    2  C   UNL     1      41.950 -11.787   7.103  1.00  0.00     0.681 C 
HETATM    3  N   UNL     1      40.874 -11.554   6.338  1.00  0.00    -0.234 N 
HETATM    4  H   UNL     1      40.217 -10.812   6.527  1.00  0.00     0.174 HD
HETATM    5  H   UNL     1      40.858 -11.891   5.376  1.00  0.00     0.174 HD
HETATM    6  N   UNL     1      42.192 -11.128   8.316  1.00  0.00    -0.180 N 
HETATM    7  C   UNL     1      43.539 -11.492   8.639  1.00  0.00     0.079 A 
HETATM    8  C   UNL     1      43.975 -12.462   7.721  1.00  0.00     0.079 A 
HETATM    9  C   UNL     1      44.379 -10.994   9.613  1.00  0.00     0.032 A 
HETATM   10  C   UNL     1      45.683 -11.499   9.652  1.00  0.00     0.002 A 
HETATM   11  C   UNL     1      46.114 -12.478   8.736  1.00  0.00     0.002 A 
HETATM   12  C   UNL     1      45.253 -12.973   7.753  1.00  0.00     0.032 A 
ENDROOT
BRANCH   1  13
HETATM   13  C   UNL     1      43.015 -13.557   5.601  1.00  0.00     0.231 C 
BRANCH  13  14
HETATM   14  C   UNL     1      42.225 -14.819   5.867  1.00  0.00     0.179 C 
HETATM   15  O   UNL     1      40.998 -14.825   5.917  1.00  0.00    -0.290 OA
BRANCH  14  16
HETATM   16  C   UNL     1      42.984 -16.065   6.108  1.00  0.00     0.028 A 
HETATM   17  C   UNL     1      43.402 -16.852   5.027  1.00  0.00     0.053 A 
HETATM   18  C   UNL     1      44.180 -17.994   5.255  1.00  0.00     0.018 A 
HETATM   19  C   UNL     1      44.525 -18.349   6.560  1.00  0.00     0.001 A 
HETATM   20  C   UNL     1      44.094 -17.573   7.636  1.00  0.00     0.001 A 
HETATM   21  C   UNL     1      43.326 -16.428   7.416  1.00  0.00     0.016 A 
BRANCH  17  22
HETATM   22  C   UNL     1      42.939 -16.535   3.660  1.00  0.00     0.293 C 
HETATM   23  O   UNL     1      43.547 -15.769   2.922  1.00  0.00    -0.259 OA
BRANCH  22  24
HETATM   24  O   UNL     1      41.816 -17.238   3.415  1.00  0.00    -0.322 OA
HETATM   25  C   UNL     1      40.733 -16.529   2.810  1.00  0.00     0.213 C 
ENDBRANCH  22  24
ENDBRANCH  17  22
ENDBRANCH  14  16
ENDBRANCH  13  14
ENDBRANCH   1  13
BRANCH   6  26
HETATM   26  C   UNL     1      41.395 -10.062   8.938  1.00  0.00     0.175 C 
BRANCH  26  27
HETATM   27  C   UNL     1      40.578 -10.522  10.170  1.00  0.00     0.255 C 
BRANCH  27  28
HETATM   28  N   UNL     1      41.174 -10.089  11.505  1.00  0.00    -0.070 N 
HETATM   29  H   UNL     1      40.406  -9.807  12.128  1.00  0.00     0.279 HD
HETATM   30  C   UNL     1      41.960 -11.192  12.197  1.00  0.00     0.235 C 
HETATM   31  C   UNL     1      42.434 -10.705  13.559  1.00  0.00     0.028 C 
HETATM   32  C   UNL     1      43.295  -9.455  13.435  1.00  0.00     0.003 C 
HETATM   33  C   UNL     1      42.561  -8.363  12.665  1.00  0.00     0.028 C 
HETATM   34  C   UNL     1      42.061  -8.859  11.316  1.00  0.00     0.235 C 
ENDBRANCH  27  28
ENDBRANCH  26  27
ENDBRANCH   6  26
TORSDOF 8
ENDMDL
