MODEL 1
REMARK VINA RESULT:      -8.7      0.000      0.000
REMARK  2 active torsions:
REMARK  status: ('A' for Active; 'I' for Inactive)
REMARK    1  A    between atoms: C_9  and  C_10 
REMARK       I    between atoms: C_10  and  N_11 
REMARK    2  A    between atoms: N_11  and  C_12 
ROOT
HETATM    1  C   UNL     1      43.172 -16.486   3.156  1.00  0.00     0.277 C 
HETATM    2  N   UNL     1      41.911 -16.765   2.660  1.00  0.00    -0.322 N 
HETATM    3  O   UNL     1      43.851 -15.498   2.900  1.00  0.00    -0.266 OA
HETATM    4  H   UNL     1      41.539 -17.650   2.999  1.00  0.00     0.169 HD
ENDROOT
BRANCH   1   5
HETATM    5  C   UNL     1      43.643 -17.549   4.063  1.00  0.00     0.157 A 
HETATM    6  C   UNL     1      43.930 -18.909   3.736  1.00  0.00     0.029 A 
HETATM    7  C   UNL     1      43.883 -19.705   2.575  1.00  0.00     0.023 A 
HETATM    8  C   UNL     1      44.338 -19.490   4.930  1.00  0.00     0.063 A 
HETATM    9  C   UNL     1      44.243 -21.061   2.649  1.00  0.00    -0.061 A 
HETATM   10  C   UNL     1      44.191 -21.930   1.427  1.00  0.00     0.048 C 
HETATM   11  C   UNL     1      44.655 -21.605   3.872  1.00  0.00     0.009 A 
HETATM   12  C   UNL     1      44.712 -20.832   5.038  1.00  0.00     0.032 A 
HETATM   13  N   UNL     1      44.274 -18.489   5.860  1.00  0.00    -0.277 N 
HETATM   14  H   UNL     1      44.504 -18.555   6.844  1.00  0.00     0.189 HD
HETATM   15  N   UNL     1      43.847 -17.307   5.380  1.00  0.00    -0.168 NA
ENDBRANCH   1   5
BRANCH   2  16
HETATM   16  C   UNL     1      41.128 -16.011   1.771  1.00  0.00     0.037 A 
HETATM   17  C   UNL     1      41.432 -15.834   0.420  1.00  0.00     0.069 A 
HETATM   18  C   UNL     1      40.607 -15.048  -0.392  1.00  0.00     0.104 A 
HETATM   19  C   UNL     1      39.455 -14.461   0.135  1.00  0.00     0.102 A 
HETATM   20  O   UNL     1      40.937 -14.978  -1.719  1.00  0.00    -0.348 OA
HETATM   21  O   UNL     1      38.551 -13.770  -0.624  1.00  0.00    -0.348 OA
HETATM   22  C   UNL     1      39.129 -14.660   1.473  1.00  0.00     0.042 A 
HETATM   23  C   UNL     1      39.117 -12.592  -1.197  1.00  0.00     0.178 C 
HETATM   24  C   UNL     1      39.910 -12.890  -2.459  1.00  0.00     0.053 C 
HETATM   25  C   UNL     1      41.195 -13.637  -2.137  1.00  0.00     0.178 C 
HETATM   26  C   UNL     1      39.971 -15.417   2.292  1.00  0.00     0.032 A 
ENDBRANCH   2  16
TORSDOF 2
ENDMDL
MODEL 2
REMARK VINA RESULT:      -8.7      1.627      2.466
REMARK  2 active torsions:
REMARK  status: ('A' for Active; 'I' for Inactive)
REMARK    1  A    between atoms: C_9  and  C_10 
REMARK       I    between atoms: C_10  and  N_11 
REMARK    2  A    between atoms: N_11  and  C_12 
ROOT
HETATM    1  C   UNL     1      41.187 -16.788   1.985  1.00  0.00     0.277 C 
HETATM    2  N   UNL     1      41.727 -15.939   1.036  1.00  0.00    -0.322 N 
HETATM    3  O   UNL     1      40.018 -17.151   2.055  1.00  0.00    -0.266 OA
HETATM    4  H   UNL     1      42.720 -15.765   1.180  1.00  0.00     0.169 HD
ENDROOT
BRANCH   1   5
HETATM    5  C   UNL     1      42.205 -17.230   2.957  1.00  0.00     0.157 A 
HETATM    6  C   UNL     1      42.964 -18.439   2.933  1.00  0.00     0.029 A 
HETATM    7  C   UNL     1      43.047 -19.569   2.096  1.00  0.00     0.023 A 
HETATM    8  C   UNL     1      43.777 -18.378   4.057  1.00  0.00     0.063 A 
HETATM    9  C   UNL     1      43.940 -20.605   2.417  1.00  0.00    -0.061 A 
HETATM   10  C   UNL     1      44.037 -21.823   1.545  1.00  0.00     0.048 C 
HETATM   11  C   UNL     1      44.747 -20.500   3.557  1.00  0.00     0.009 A 
HETATM   12  C   UNL     1      44.684 -19.384   4.400  1.00  0.00     0.032 A 
HETATM   13  N   UNL     1      43.471 -17.190   4.661  1.00  0.00    -0.277 N 
HETATM   14  H   UNL     1      43.877 -16.814   5.510  1.00  0.00     0.189 HD
HETATM   15  N   UNL     1      42.519 -16.474   4.036  1.00  0.00    -0.168 NA
ENDBRANCH   1   5
BRANCH   2  16
HETATM   16  C   UNL     1      41.091 -15.307  -0.043  1.00  0.00     0.037 A 
HETATM   17  C   UNL     1      40.347 -14.131   0.069  1.00  0.00     0.069 A 
HETATM   18  C   UNL     1      39.726 -13.578  -1.056  1.00  0.00     0.104 A 
HETATM   19  C   UNL     1      39.874 -14.179  -2.308  1.00  0.00     0.102 A 
HETATM   20  O   UNL     1      39.071 -12.389  -0.875  1.00  0.00    -0.348 OA
HETATM   21  O   UNL     1      39.385 -13.635  -3.463  1.00  0.00    -0.348 OA
HETATM   22  C   UNL     1      40.641 -15.333  -2.433  1.00  0.00     0.042 A 
HETATM   23  C   UNL     1      37.960 -13.555  -3.460  1.00  0.00     0.178 C 
HETATM   24  C   UNL     1      37.454 -12.337  -2.703  1.00  0.00     0.053 C 
HETATM   25  C   UNL     1      37.686 -12.485  -1.208  1.00  0.00     0.178 C 
HETATM   26  C   UNL     1      41.232 -15.904  -1.303  1.00  0.00     0.032 A 
ENDBRANCH   2  16
TORSDOF 2
ENDMDL
MODEL 3
REMARK VINA RESULT:      -8.6      1.499      1.599
REMARK  2 active torsions:
REMARK  status: ('A' for Active; 'I' for Inactive)
REMARK    1  A    between atoms: C_9  and  C_10 
REMARK       I    between atoms: C_10  and  N_11 
REMARK    2  A    between atoms: N_11  and  C_12 
ROOT
HETATM    1  C   UNL     1      41.926 -16.667   3.044  1.00  0.00     0.277 C 
HETATM    2  N   UNL     1      42.572 -15.890   2.100  1.00  0.00    -0.322 N 
HETATM    3  O   UNL     1      40.716 -16.728   3.231  1.00  0.00    -0.266 OA
HETATM    4  H   UNL     1      43.585 -15.988   2.131  1.00  0.00     0.169 HD
ENDROOT
BRANCH   1   5
HETATM    5  C   UNL     1      42.885 -17.450   3.847  1.00  0.00     0.157 A 
HETATM    6  C   UNL     1      43.450 -18.722   3.533  1.00  0.00     0.029 A 
HETATM    7  C   UNL     1      43.341 -19.647   2.476  1.00  0.00     0.023 A 
HETATM    8  C   UNL     1      44.286 -19.021   4.600  1.00  0.00     0.063 A 
HETATM    9  C   UNL     1      44.072 -20.847   2.527  1.00  0.00    -0.061 A 
HETATM   10  C   UNL     1      43.963 -21.851   1.417  1.00  0.00     0.048 C 
HETATM   11  C   UNL     1      44.909 -21.105   3.619  1.00  0.00     0.009 A 
HETATM   12  C   UNL     1      45.035 -20.198   4.678  1.00  0.00     0.032 A 
HETATM   13  N   UNL     1      44.178 -17.957   5.453  1.00  0.00    -0.277 N 
HETATM   14  H   UNL     1      44.654 -17.834   6.339  1.00  0.00     0.189 HD
HETATM   15  N   UNL     1      43.333 -16.995   5.041  1.00  0.00    -0.168 NA
ENDBRANCH   1   5
BRANCH   2  16
HETATM   16  C   UNL     1      42.019 -15.010   1.156  1.00  0.00     0.037 A 
HETATM   17  C   UNL     1      41.468 -15.416  -0.061  1.00  0.00     0.069 A 
HETATM   18  C   UNL     1      40.957 -14.469  -0.955  1.00  0.00     0.104 A 
HETATM   19  C   UNL     1      40.961 -13.113  -0.622  1.00  0.00     0.102 A 
HETATM   20  O   UNL     1      40.375 -14.952  -2.096  1.00  0.00    -0.348 OA
HETATM   21  O   UNL     1      40.383 -12.148  -1.400  1.00  0.00    -0.348 OA
HETATM   22  C   UNL     1      41.478 -12.704   0.603  1.00  0.00     0.042 A 
HETATM   23  C   UNL     1      41.016 -12.031  -2.674  1.00  0.00     0.178 C 
HETATM   24  C   UNL     1      40.527 -13.081  -3.658  1.00  0.00     0.053 C 
HETATM   25  C   UNL     1      41.021 -14.467  -3.273  1.00  0.00     0.178 C 
HETATM   26  C   UNL     1      42.021 -13.647   1.481  1.00  0.00     0.032 A 
ENDBRANCH   2  16
TORSDOF 2
ENDMDL
MODEL 4
REMARK VINA RESULT:      -8.5      1.725      2.146
REMARK  2 active torsions:
REMARK  status: ('A' for Active; 'I' for Inactive)
REMARK    1  A    between atoms: C_9  and  C_10 
REMARK       I    between atoms: C_10  and  N_11 
REMARK    2  A    between atoms: N_11  and  C_12 
ROOT
HETATM    1  C   UNL     1      43.064 -16.568   3.470  1.00  0.00     0.277 C 
HETATM    2  N   UNL     1      41.853 -16.172   4.008  1.00  0.00    -0.322 N 
HETATM    3  O   UNL     1      43.599 -16.109   2.467  1.00  0.00    -0.266 OA
HETATM    4  H   UNL     1      41.596 -16.700   4.839  1.00  0.00     0.169 HD
ENDROOT
BRANCH   1   5
HETATM    5  C   UNL     1      43.675 -17.655   4.258  1.00  0.00     0.157 A 
HETATM    6  C   UNL     1      43.956 -18.988   3.831  1.00  0.00     0.029 A 
HETATM    7  C   UNL     1      43.785 -19.731   2.646  1.00  0.00     0.023 A 
HETATM    8  C   UNL     1      44.526 -19.609   4.933  1.00  0.00     0.063 A 
HETATM    9  C   UNL     1      44.189 -21.077   2.607  1.00  0.00    -0.061 A 
HETATM   10  C   UNL     1      44.007 -21.890   1.359  1.00  0.00     0.048 C 
HETATM   11  C   UNL     1      44.767 -21.662   3.741  1.00  0.00     0.009 A 
HETATM   12  C   UNL     1      44.949 -20.941   4.927  1.00  0.00     0.032 A 
HETATM   13  N   UNL     1      44.553 -18.655   5.912  1.00  0.00    -0.277 N 
HETATM   14  H   UNL     1      44.907 -18.757   6.856  1.00  0.00     0.189 HD
HETATM   15  N   UNL     1      44.037 -17.467   5.549  1.00  0.00    -0.168 NA
ENDBRANCH   1   5
BRANCH   2  16
HETATM   16  C   UNL     1      40.970 -15.180   3.552  1.00  0.00     0.037 A 
HETATM   17  C   UNL     1      39.974 -15.399   2.598  1.00  0.00     0.069 A 
HETATM   18  C   UNL     1      39.150 -14.348   2.183  1.00  0.00     0.104 A 
HETATM   19  C   UNL     1      39.293 -13.078   2.746  1.00  0.00     0.102 A 
HETATM   20  O   UNL     1      38.156 -14.659   1.294  1.00  0.00    -0.348 OA
HETATM   21  O   UNL     1      38.454 -12.035   2.466  1.00  0.00    -0.348 OA
HETATM   22  C   UNL     1      40.261 -12.860   3.721  1.00  0.00     0.042 A 
HETATM   23  C   UNL     1      38.522 -11.642   1.095  1.00  0.00     0.178 C 
HETATM   24  C   UNL     1      37.673 -12.531   0.200  1.00  0.00     0.053 C 
HETATM   25  C   UNL     1      38.276 -13.922   0.078  1.00  0.00     0.178 C 
HETATM   26  C   UNL     1      41.108 -13.902   4.109  1.00  0.00     0.032 A 
ENDBRANCH   2  16
TORSDOF 2
ENDMDL
MODEL 5
REMARK VINA RESULT:      -8.4      5.965      8.942
REMARK  2 active torsions:
REMARK  status: ('A' for Active; 'I' for Inactive)
REMARK    1  A    between atoms: C_9  and  C_10 
REMARK       I    between atoms: C_10  and  N_11 
REMARK    2  A    between atoms: N_11  and  C_12 
ROOT
HETATM    1  C   UNL     1      45.020 -13.359   7.668  1.00  0.00     0.277 C 
HETATM    2  N   UNL     1      43.988 -14.274   7.571  1.00  0.00    -0.322 N 
HETATM    3  O   UNL     1      45.942 -13.216   6.872  1.00  0.00    -0.266 OA
HETATM    4  H   UNL     1      43.339 -14.224   8.354  1.00  0.00     0.169 HD
ENDROOT
BRANCH   1   5
HETATM    5  C   UNL     1      44.900 -12.535   8.886  1.00  0.00     0.157 A 
HETATM    6  C   UNL     1      43.903 -11.557   9.180  1.00  0.00     0.029 A 
HETATM    7  C   UNL     1      42.775 -11.028   8.523  1.00  0.00     0.023 A 
HETATM    8  C   UNL     1      44.231 -11.073  10.440  1.00  0.00     0.063 A 
HETATM    9  C   UNL     1      42.014 -10.026   9.149  1.00  0.00    -0.061 A 
HETATM   10  C   UNL     1      40.814  -9.442   8.463  1.00  0.00     0.048 C 
HETATM   11  C   UNL     1      42.376  -9.572  10.424  1.00  0.00     0.009 A 
HETATM   12  C   UNL     1      43.491 -10.086  11.096  1.00  0.00     0.032 A 
HETATM   13  N   UNL     1      45.355 -11.760  10.810  1.00  0.00    -0.277 N 
HETATM   14  H   UNL     1      45.871 -11.665  11.676  1.00  0.00     0.189 HD
HETATM   15  N   UNL     1      45.797 -12.641   9.894  1.00  0.00    -0.168 NA
ENDBRANCH   1   5
BRANCH   2  16
HETATM   16  C   UNL     1      43.751 -15.231   6.572  1.00  0.00     0.037 A 
HETATM   17  C   UNL     1      43.944 -16.603   6.744  1.00  0.00     0.069 A 
HETATM   18  C   UNL     1      43.705 -17.488   5.687  1.00  0.00     0.104 A 
HETATM   19  C   UNL     1      43.237 -17.010   4.462  1.00  0.00     0.102 A 
HETATM   20  O   UNL     1      43.854 -18.822   5.955  1.00  0.00    -0.348 OA
HETATM   21  O   UNL     1      42.881 -17.826   3.423  1.00  0.00    -0.348 OA
HETATM   22  C   UNL     1      43.011 -15.647   4.293  1.00  0.00     0.042 A 
HETATM   23  C   UNL     1      43.989 -18.574   2.923  1.00  0.00     0.178 C 
HETATM   24  C   UNL     1      44.276 -19.809   3.762  1.00  0.00     0.053 C 
HETATM   25  C   UNL     1      44.841 -19.429   5.122  1.00  0.00     0.178 C 
HETATM   26  C   UNL     1      43.284 -14.760   5.338  1.00  0.00     0.032 A 
ENDBRANCH   2  16
TORSDOF 2
ENDMDL
MODEL 6
REMARK VINA RESULT:      -8.3      1.805      2.547
REMARK  2 active torsions:
REMARK  status: ('A' for Active; 'I' for Inactive)
REMARK    1  A    between atoms: C_9  and  C_10 
REMARK       I    between atoms: C_10  and  N_11 
REMARK    2  A    between atoms: N_11  and  C_12 
ROOT
HETATM    1  C   UNL     1      43.616 -18.282   1.839  1.00  0.00     0.277 C 
HETATM    2  N   UNL     1      42.244 -18.108   1.807  1.00  0.00    -0.322 N 
HETATM    3  O   UNL     1      44.460 -17.474   1.468  1.00  0.00    -0.266 OA
HETATM    4  H   UNL     1      41.734 -18.917   2.154  1.00  0.00     0.169 HD
ENDROOT
BRANCH   1   5
HETATM    5  C   UNL     1      43.981 -19.604   2.382  1.00  0.00     0.157 A 
HETATM    6  C   UNL     1      44.063 -19.989   3.754  1.00  0.00     0.029 A 
HETATM    7  C   UNL     1      43.868 -19.357   4.999  1.00  0.00     0.023 A 
HETATM    8  C   UNL     1      44.440 -21.325   3.734  1.00  0.00     0.063 A 
HETATM    9  C   UNL     1      44.063 -20.086   6.184  1.00  0.00    -0.061 A 
HETATM   10  C   UNL     1      43.871 -19.431   7.520  1.00  0.00     0.048 C 
HETATM   11  C   UNL     1      44.437 -21.435   6.118  1.00  0.00     0.009 A 
HETATM   12  C   UNL     1      44.632 -22.083   4.892  1.00  0.00     0.032 A 
HETATM   13  N   UNL     1      44.556 -21.648   2.410  1.00  0.00    -0.277 N 
HETATM   14  H   UNL     1      44.814 -22.547   2.021  1.00  0.00     0.189 HD
HETATM   15  N   UNL     1      44.300 -20.634   1.563  1.00  0.00    -0.168 NA
ENDBRANCH   1   5
BRANCH   2  16
HETATM   16  C   UNL     1      41.508 -17.000   1.359  1.00  0.00     0.037 A 
HETATM   17  C   UNL     1      41.705 -16.379   0.124  1.00  0.00     0.069 A 
HETATM   18  C   UNL     1      40.940 -15.264  -0.235  1.00  0.00     0.104 A 
HETATM   19  C   UNL     1      39.949 -14.784   0.623  1.00  0.00     0.102 A 
HETATM   20  O   UNL     1      41.148 -14.754  -1.489  1.00  0.00    -0.348 OA
HETATM   21  O   UNL     1      39.096 -13.768   0.291  1.00  0.00    -0.348 OA
HETATM   22  C   UNL     1      39.725 -15.418   1.842  1.00  0.00     0.042 A 
HETATM   23  C   UNL     1      39.783 -12.533   0.086  1.00  0.00     0.178 C 
HETATM   24  C   UNL     1      40.395 -12.439  -1.302  1.00  0.00     0.053 C 
HETATM   25  C   UNL     1      41.572 -13.391  -1.449  1.00  0.00     0.178 C 
HETATM   26  C   UNL     1      40.513 -16.510   2.216  1.00  0.00     0.032 A 
ENDBRANCH   2  16
TORSDOF 2
ENDMDL
MODEL 7
REMARK VINA RESULT:      -8.2      2.738      3.697
REMARK  2 active torsions:
REMARK  status: ('A' for Active; 'I' for Inactive)
REMARK    1  A    between atoms: C_9  and  C_10 
REMARK       I    between atoms: C_10  and  N_11 
REMARK    2  A    between atoms: N_11  and  C_12 
ROOT
HETATM    1  C   UNL     1      43.281 -16.844   3.943  1.00  0.00     0.277 C 
HETATM    2  N   UNL     1      42.278 -16.213   4.657  1.00  0.00    -0.322 N 
HETATM    3  O   UNL     1      43.725 -16.499   2.854  1.00  0.00    -0.266 OA
HETATM    4  H   UNL     1      42.060 -16.682   5.534  1.00  0.00     0.169 HD
ENDROOT
BRANCH   1   5
HETATM    5  C   UNL     1      43.783 -18.035   4.655  1.00  0.00     0.157 A 
HETATM    6  C   UNL     1      44.029 -19.333   4.114  1.00  0.00     0.029 A 
HETATM    7  C   UNL     1      43.907 -19.946   2.851  1.00  0.00     0.023 A 
HETATM    8  C   UNL     1      44.491 -20.089   5.183  1.00  0.00     0.063 A 
HETATM    9  C   UNL     1      44.248 -21.301   2.702  1.00  0.00    -0.061 A 
HETATM   10  C   UNL     1      44.116 -21.977   1.369  1.00  0.00     0.048 C 
HETATM   11  C   UNL     1      44.717 -22.025   3.806  1.00  0.00     0.009 A 
HETATM   12  C   UNL     1      44.849 -21.435   5.068  1.00  0.00     0.032 A 
HETATM   13  N   UNL     1      44.494 -19.238   6.253  1.00  0.00    -0.277 N 
HETATM   14  H   UNL     1      44.777 -19.452   7.202  1.00  0.00     0.189 HD
HETATM   15  N   UNL     1      44.062 -17.994   5.979  1.00  0.00    -0.168 NA
ENDBRANCH   1   5
BRANCH   2  16
HETATM   16  C   UNL     1      41.548 -15.062   4.321  1.00  0.00     0.037 A 
HETATM   17  C   UNL     1      41.786 -13.799   4.866  1.00  0.00     0.069 A 
HETATM   18  C   UNL     1      40.996 -12.708   4.491  1.00  0.00     0.104 A 
HETATM   19  C   UNL     1      39.985 -12.865   3.541  1.00  0.00     0.102 A 
HETATM   20  O   UNL     1      41.335 -11.492   5.020  1.00  0.00    -0.348 OA
HETATM   21  O   UNL     1      39.248 -11.822   3.050  1.00  0.00    -0.348 OA
HETATM   22  C   UNL     1      39.763 -14.114   2.968  1.00  0.00     0.042 A 
HETATM   23  C   UNL     1      38.459 -11.197   4.062  1.00  0.00     0.178 C 
HETATM   24  C   UNL     1      39.264 -10.206   4.888  1.00  0.00     0.053 C 
HETATM   25  C   UNL     1      40.269 -10.921   5.778  1.00  0.00     0.178 C 
HETATM   26  C   UNL     1      40.529 -15.211   3.370  1.00  0.00     0.032 A 
ENDBRANCH   2  16
TORSDOF 2
ENDMDL
MODEL 8
REMARK VINA RESULT:      -8.2      2.386      7.965
REMARK  2 active torsions:
REMARK  status: ('A' for Active; 'I' for Inactive)
REMARK    1  A    between atoms: C_9  and  C_10 
REMARK       I    between atoms: C_10  and  N_11 
REMARK    2  A    between atoms: N_11  and  C_12 
ROOT
HETATM    1  C   UNL     1      41.938 -16.042   2.087  1.00  0.00     0.277 C 
HETATM    2  N   UNL     1      43.242 -16.473   2.257  1.00  0.00    -0.322 N 
HETATM    3  O   UNL     1      40.929 -16.596   2.506  1.00  0.00    -0.266 OA
HETATM    4  H   UNL     1      43.923 -15.861   1.812  1.00  0.00     0.169 HD
ENDROOT
BRANCH   1   5
HETATM    5  C   UNL     1      41.881 -14.791   1.306  1.00  0.00     0.157 A 
HETATM    6  C   UNL     1      41.452 -14.627  -0.045  1.00  0.00     0.029 A 
HETATM    7  C   UNL     1      40.976 -15.471  -1.068  1.00  0.00     0.023 A 
HETATM    8  C   UNL     1      41.585 -13.270  -0.305  1.00  0.00     0.063 A 
HETATM    9  C   UNL     1      40.654 -14.925  -2.323  1.00  0.00    -0.061 A 
HETATM   10  C   UNL     1      40.156 -15.807  -3.431  1.00  0.00     0.048 C 
HETATM   11  C   UNL     1      40.797 -13.549  -2.540  1.00  0.00     0.009 A 
HETATM   12  C   UNL     1      41.264 -12.692  -1.536  1.00  0.00     0.032 A 
HETATM   13  N   UNL     1      42.064 -12.725   0.854  1.00  0.00    -0.277 N 
HETATM   14  H   UNL     1      42.279 -11.750   1.028  1.00  0.00     0.189 HD
HETATM   15  N   UNL     1      42.268 -13.611   1.845  1.00  0.00    -0.168 NA
ENDBRANCH   1   5
BRANCH   2  16
HETATM   16  C   UNL     1      43.711 -17.612   2.929  1.00  0.00     0.037 A 
HETATM   17  C   UNL     1      44.118 -18.784   2.289  1.00  0.00     0.069 A 
HETATM   18  C   UNL     1      44.552 -19.884   3.038  1.00  0.00     0.104 A 
HETATM   19  C   UNL     1      44.616 -19.805   4.431  1.00  0.00     0.102 A 
HETATM   20  O   UNL     1      44.996 -20.971   2.334  1.00  0.00    -0.348 OA
HETATM   21  O   UNL     1      45.130 -20.800   5.216  1.00  0.00    -0.348 OA
HETATM   22  C   UNL     1      44.243 -18.628   5.073  1.00  0.00     0.042 A 
HETATM   23  C   UNL     1      44.366 -22.003   5.130  1.00  0.00     0.178 C 
HETATM   24  C   UNL     1      44.722 -22.823   3.900  1.00  0.00     0.053 C 
HETATM   25  C   UNL     1      44.239 -22.145   2.628  1.00  0.00     0.178 C 
HETATM   26  C   UNL     1      43.776 -17.543   4.327  1.00  0.00     0.032 A 
ENDBRANCH   2  16
TORSDOF 2
ENDMDL
MODEL 9
REMARK VINA RESULT:      -8.1      1.851      3.118
REMARK  2 active torsions:
REMARK  status: ('A' for Active; 'I' for Inactive)
REMARK    1  A    between atoms: C_9  and  C_10 
REMARK       I    between atoms: C_10  and  N_11 
REMARK    2  A    between atoms: N_11  and  C_12 
ROOT
HETATM    1  C   UNL     1      43.602 -17.718   2.004  1.00  0.00     0.277 C 
HETATM    2  N   UNL     1      42.239 -17.491   1.948  1.00  0.00    -0.322 N 
HETATM    3  O   UNL     1      44.467 -17.106   1.388  1.00  0.00    -0.266 OA
HETATM    4  H   UNL     1      41.706 -18.129   2.535  1.00  0.00     0.169 HD
ENDROOT
BRANCH   1   5
HETATM    5  C   UNL     1      43.927 -18.829   2.920  1.00  0.00     0.157 A 
HETATM    6  C   UNL     1      43.798 -18.852   4.341  1.00  0.00     0.029 A 
HETATM    7  C   UNL     1      43.374 -17.949   5.336  1.00  0.00     0.023 A 
HETATM    8  C   UNL     1      44.228 -20.116   4.723  1.00  0.00     0.063 A 
HETATM    9  C   UNL     1      43.402 -18.342   6.685  1.00  0.00    -0.061 A 
HETATM   10  C   UNL     1      42.965 -17.393   7.763  1.00  0.00     0.048 C 
HETATM   11  C   UNL     1      43.837 -19.629   7.026  1.00  0.00     0.009 A 
HETATM   12  C   UNL     1      44.258 -20.543   6.053  1.00  0.00     0.032 A 
HETATM   13  N   UNL     1      44.575 -20.747   3.560  1.00  0.00    -0.277 N 
HETATM   14  H   UNL     1      44.931 -21.690   3.460  1.00  0.00     0.189 HD
HETATM   15  N   UNL     1      44.420 -20.000   2.452  1.00  0.00    -0.168 NA
ENDBRANCH   1   5
BRANCH   2  16
HETATM   16  C   UNL     1      41.536 -16.536   1.197  1.00  0.00     0.037 A 
HETATM   17  C   UNL     1      40.650 -15.608   1.746  1.00  0.00     0.069 A 
HETATM   18  C   UNL     1      39.973 -14.703   0.921  1.00  0.00     0.104 A 
HETATM   19  C   UNL     1      40.205 -14.697  -0.456  1.00  0.00     0.102 A 
HETATM   20  O   UNL     1      39.172 -13.783   1.543  1.00  0.00    -0.348 OA
HETATM   21  O   UNL     1      39.661 -13.774  -1.305  1.00  0.00    -0.348 OA
HETATM   22  C   UNL     1      41.112 -15.598  -1.007  1.00  0.00     0.042 A 
HETATM   23  C   UNL     1      38.236 -13.861  -1.354  1.00  0.00     0.178 C 
HETATM   24  C   UNL     1      37.576 -13.142  -0.189  1.00  0.00     0.053 C 
HETATM   25  C   UNL     1      37.813 -13.882   1.119  1.00  0.00     0.178 C 
HETATM   26  C   UNL     1      41.761 -16.525  -0.187  1.00  0.00     0.032 A 
ENDBRANCH   2  16
TORSDOF 2
ENDMDL
MODEL 10
REMARK VINA RESULT:      -7.9      1.653      2.606
REMARK  2 active torsions:
REMARK  status: ('A' for Active; 'I' for Inactive)
REMARK    1  A    between atoms: C_9  and  C_10 
REMARK       I    between atoms: C_10  and  N_11 
REMARK    2  A    between atoms: N_11  and  C_12 
ROOT
HETATM    1  C   UNL     1      43.346 -17.026   2.278  1.00  0.00     0.277 C 
HETATM    2  N   UNL     1      42.103 -17.162   1.688  1.00  0.00    -0.322 N 
HETATM    3  O   UNL     1      44.090 -16.056   2.193  1.00  0.00    -0.266 OA
HETATM    4  H   UNL     1      41.666 -18.060   1.884  1.00  0.00     0.169 HD
ENDROOT
BRANCH   1   5
HETATM    5  C   UNL     1      43.710 -18.228   3.053  1.00  0.00     0.157 A 
HETATM    6  C   UNL     1      43.692 -18.388   4.471  1.00  0.00     0.029 A 
HETATM    7  C   UNL     1      43.374 -17.578   5.580  1.00  0.00     0.023 A 
HETATM    8  C   UNL     1      44.115 -19.691   4.694  1.00  0.00     0.063 A 
HETATM    9  C   UNL     1      43.496 -18.102   6.878  1.00  0.00    -0.061 A 
HETATM   10  C   UNL     1      43.172 -17.254   8.074  1.00  0.00     0.048 C 
HETATM   11  C   UNL     1      43.919 -19.425   7.058  1.00  0.00     0.009 A 
HETATM   12  C   UNL     1      44.237 -20.247   5.971  1.00  0.00     0.032 A 
HETATM   13  N   UNL     1      44.350 -20.213   3.452  1.00  0.00    -0.277 N 
HETATM   14  H   UNL     1      44.670 -21.149   3.234  1.00  0.00     0.189 HD
HETATM   15  N   UNL     1      44.131 -19.358   2.437  1.00  0.00    -0.168 NA
ENDBRANCH   1   5
BRANCH   2  16
HETATM   16  C   UNL     1      41.411 -16.251   0.874  1.00  0.00     0.037 A 
HETATM   17  C   UNL     1      41.544 -16.186  -0.514  1.00  0.00     0.069 A 
HETATM   18  C   UNL     1      40.833 -15.231  -1.248  1.00  0.00     0.104 A 
HETATM   19  C   UNL     1      39.957 -14.357  -0.602  1.00  0.00     0.102 A 
HETATM   20  O   UNL     1      40.967 -15.276  -2.610  1.00  0.00    -0.348 OA
HETATM   21  O   UNL     1      39.152 -13.473  -1.267  1.00  0.00    -0.348 OA
HETATM   22  C   UNL     1      39.794 -14.437   0.778  1.00  0.00     0.042 A 
HETATM   23  C   UNL     1      39.905 -12.492  -1.981  1.00  0.00     0.178 C 
HETATM   24  C   UNL     1      40.400 -13.011  -3.322  1.00  0.00     0.053 C 
HETATM   25  C   UNL     1      41.489 -14.057  -3.137  1.00  0.00     0.178 C 
HETATM   26  C   UNL     1      40.532 -15.367   1.514  1.00  0.00     0.032 A 
ENDBRANCH   2  16
TORSDOF 2
ENDMDL
