MODEL 1
REMARK VINA RESULT:      -9.6      0.000      0.000
REMARK  3 active torsions:
REMARK  status: ('A' for Active; 'I' for Inactive)
REMARK    1  A    between atoms: C_2  and  N_3 
REMARK    2  A    between atoms: C_8  and  C_9 
REMARK       I    between atoms: C_9  and  N_10 
REMARK    3  A    between atoms: N_10  and  C_11 
ROOT
HETATM    1  C   UNL     1      43.876 -15.050   6.578  1.00  0.00     0.036 A 
HETATM    2  C   UNL     1      43.500 -14.792   5.260  1.00  0.00     0.049 A 
HETATM    3  C   UNL     1      43.486 -15.810   4.288  1.00  0.00     0.061 A 
HETATM    4  C   UNL     1      43.828 -17.119   4.647  1.00  0.00     0.050 A 
HETATM    5  N   UNL     1      43.741 -18.253   3.821  1.00  0.00    -0.324 N 
HETATM    6  C   UNL     1      42.867 -18.489   2.793  1.00  0.00     0.245 C 
HETATM    7  O   UNL     1      42.823 -19.627   2.320  1.00  0.00    -0.271 OA
HETATM    8  C   UNL     1      41.860 -17.398   2.426  1.00  0.00     0.180 C 
HETATM    9  N   UNL     1      42.554 -16.180   2.042  1.00  0.00    -0.334 N 
HETATM   10  C   UNL     1      43.247 -15.357   2.894  1.00  0.00     0.256 C 
HETATM   11  O   UNL     1      43.675 -14.260   2.543  1.00  0.00    -0.267 OA
HETATM   12  C   UNL     1      41.014 -17.755   1.198  1.00  0.00     0.037 C 
HETATM   13  C   UNL     1      40.823 -16.419   0.493  1.00  0.00     0.022 C 
HETATM   14  C   UNL     1      42.159 -15.732   0.719  1.00  0.00     0.127 C 
HETATM   15  C   UNL     1      44.297 -17.354   5.950  1.00  0.00     0.033 A 
HETATM   16  C   UNL     1      44.322 -16.330   6.905  1.00  0.00     0.032 A 
HETATM   17  H   UNL     1      44.212 -19.101   4.116  1.00  0.00     0.169 HD
ENDROOT
BRANCH   1  18
HETATM   18  N   UNL     1      43.854 -14.075   7.599  1.00  0.00    -0.323 N 
HETATM   19  C   UNL     1      44.881 -13.193   7.895  1.00  0.00     0.256 C 
HETATM   20  O   UNL     1      45.931 -13.086   7.270  1.00  0.00    -0.267 OA
HETATM   21  H   UNL     1      42.993 -13.999   8.121  1.00  0.00     0.169 HD
BRANCH  19  22
HETATM   22  C   UNL     1      44.680 -12.295   9.072  1.00  0.00     0.034 A 
HETATM   23  C   UNL     1      45.583 -12.204  10.134  1.00  0.00     0.018 A 
HETATM   24  C   UNL     1      45.332 -11.338  11.210  1.00  0.00     0.015 A 
HETATM   25  C   UNL     1      44.156 -10.562  11.227  1.00  0.00    -0.008 A 
HETATM   26  C   UNL     1      43.251 -10.680  10.171  1.00  0.00     0.045 A 
HETATM   27  C   UNL     1      43.621  -9.610  12.133  1.00  0.00     0.031 A 
HETATM   28  N   UNL     1      42.191  -9.830  10.439  1.00  0.00    -0.352 N 
HETATM   29  C   UNL     1      43.496 -11.538   9.087  1.00  0.00     0.047 A 
HETATM   30  C   UNL     1      42.424  -9.166  11.618  1.00  0.00     0.092 A 
BRANCH  28  31
HETATM   31  C   UNL     1      41.033  -9.630   9.564  1.00  0.00     0.081 C 
HETATM   32  C   UNL     1      40.522  -8.195   9.669  1.00  0.00     0.032 C 
HETATM   33  C   UNL     1      39.908 -10.640   9.806  1.00  0.00     0.032 C 
ENDBRANCH  28  31
ENDBRANCH  19  22
ENDBRANCH   1  18
TORSDOF 3
ENDMDL
MODEL 2
REMARK VINA RESULT:      -9.5      6.397      9.256
REMARK  3 active torsions:
REMARK  status: ('A' for Active; 'I' for Inactive)
REMARK    1  A    between atoms: C_2  and  N_3 
REMARK    2  A    between atoms: C_8  and  C_9 
REMARK       I    between atoms: C_9  and  N_10 
REMARK    3  A    between atoms: N_10  and  C_11 
ROOT
HETATM    1  C   UNL     1      41.064 -16.467   1.196  1.00  0.00     0.036 A 
HETATM    2  C   UNL     1      41.369 -15.985  -0.076  1.00  0.00     0.049 A 
HETATM    3  C   UNL     1      40.705 -14.868  -0.617  1.00  0.00     0.061 A 
HETATM    4  C   UNL     1      39.733 -14.203   0.140  1.00  0.00     0.050 A 
HETATM    5  N   UNL     1      39.080 -13.011  -0.216  1.00  0.00    -0.324 N 
HETATM    6  C   UNL     1      39.552 -11.982  -0.989  1.00  0.00     0.245 C 
HETATM    7  O   UNL     1      38.901 -10.935  -1.020  1.00  0.00    -0.271 OA
HETATM    8  C   UNL     1      40.948 -12.111  -1.601  1.00  0.00     0.180 C 
HETATM    9  N   UNL     1      41.014 -13.276  -2.466  1.00  0.00    -0.334 N 
HETATM   10  C   UNL     1      40.997 -14.582  -2.044  1.00  0.00     0.256 C 
HETATM   11  O   UNL     1      41.218 -15.520  -2.807  1.00  0.00    -0.267 OA
HETATM   12  C   UNL     1      41.307 -10.935  -2.519  1.00  0.00     0.037 C 
HETATM   13  C   UNL     1      42.130 -11.583  -3.624  1.00  0.00     0.022 C 
HETATM   14  C   UNL     1      41.440 -12.924  -3.808  1.00  0.00     0.127 C 
HETATM   15  C   UNL     1      39.362 -14.749   1.379  1.00  0.00     0.033 A 
HETATM   16  C   UNL     1      40.020 -15.870   1.902  1.00  0.00     0.032 A 
HETATM   17  H   UNL     1      38.252 -12.741   0.304  1.00  0.00     0.169 HD
ENDROOT
BRANCH   1  18
HETATM   18  N   UNL     1      41.740 -17.548   1.802  1.00  0.00    -0.323 N 
HETATM   19  C   UNL     1      43.025 -17.969   1.498  1.00  0.00     0.256 C 
HETATM   20  O   UNL     1      43.785 -17.421   0.707  1.00  0.00    -0.267 OA
HETATM   21  H   UNL     1      41.247 -18.017   2.547  1.00  0.00     0.169 HD
BRANCH  19  22
HETATM   22  C   UNL     1      43.520 -19.189   2.205  1.00  0.00     0.034 A 
HETATM   23  C   UNL     1      43.854 -20.376   1.549  1.00  0.00     0.018 A 
HETATM   24  C   UNL     1      44.314 -21.485   2.276  1.00  0.00     0.015 A 
HETATM   25  C   UNL     1      44.429 -21.408   3.678  1.00  0.00    -0.008 A 
HETATM   26  C   UNL     1      44.070 -20.223   4.323  1.00  0.00     0.045 A 
HETATM   27  C   UNL     1      44.857 -22.317   4.680  1.00  0.00     0.031 A 
HETATM   28  N   UNL     1      44.264 -20.417   5.680  1.00  0.00    -0.352 N 
HETATM   29  C   UNL     1      43.616 -19.105   3.605  1.00  0.00     0.047 A 
HETATM   30  C   UNL     1      44.761 -21.679   5.896  1.00  0.00     0.092 A 
BRANCH  28  31
HETATM   31  C   UNL     1      44.032 -19.405   6.714  1.00  0.00     0.081 C 
HETATM   32  C   UNL     1      45.130 -18.344   6.683  1.00  0.00     0.032 C 
HETATM   33  C   UNL     1      43.871 -19.997   8.117  1.00  0.00     0.032 C 
ENDBRANCH  28  31
ENDBRANCH  19  22
ENDBRANCH   1  18
TORSDOF 3
ENDMDL
MODEL 3
REMARK VINA RESULT:      -9.2      5.209      9.193
REMARK  3 active torsions:
REMARK  status: ('A' for Active; 'I' for Inactive)
REMARK    1  A    between atoms: C_2  and  N_3 
REMARK    2  A    between atoms: C_8  and  C_9 
REMARK       I    between atoms: C_9  and  N_10 
REMARK    3  A    between atoms: N_10  and  C_11 
ROOT
HETATM    1  C   UNL     1      42.815 -16.680   1.259  1.00  0.00     0.036 A 
HETATM    2  C   UNL     1      42.446 -16.497   2.591  1.00  0.00     0.049 A 
HETATM    3  C   UNL     1      42.675 -17.491   3.560  1.00  0.00     0.061 A 
HETATM    4  C   UNL     1      43.311 -18.684   3.195  1.00  0.00     0.050 A 
HETATM    5  N   UNL     1      43.714 -19.708   4.069  1.00  0.00    -0.324 N 
HETATM    6  C   UNL     1      44.100 -19.602   5.380  1.00  0.00     0.245 C 
HETATM    7  O   UNL     1      44.607 -20.591   5.916  1.00  0.00    -0.271 OA
HETATM    8  C   UNL     1      44.071 -18.223   6.040  1.00  0.00     0.180 C 
HETATM    9  N   UNL     1      42.723 -17.679   6.012  1.00  0.00    -0.334 N 
HETATM   10  C   UNL     1      42.067 -17.239   4.890  1.00  0.00     0.256 C 
HETATM   11  O   UNL     1      40.994 -16.641   4.950  1.00  0.00    -0.267 OA
HETATM   12  C   UNL     1      44.431 -18.267   7.530  1.00  0.00     0.037 C 
HETATM   13  C   UNL     1      43.539 -17.197   8.146  1.00  0.00     0.022 C 
HETATM   14  C   UNL     1      42.257 -17.332   7.342  1.00  0.00     0.127 C 
HETATM   15  C   UNL     1      43.593 -18.903   1.837  1.00  0.00     0.033 A 
HETATM   16  C   UNL     1      43.347 -17.912   0.879  1.00  0.00     0.032 A 
HETATM   17  H   UNL     1      43.968 -20.607   3.674  1.00  0.00     0.169 HD
ENDROOT
BRANCH   1  18
HETATM   18  N   UNL     1      42.656 -15.692   0.264  1.00  0.00    -0.323 N 
HETATM   19  C   UNL     1      41.448 -15.159  -0.159  1.00  0.00     0.256 C 
HETATM   20  O   UNL     1      40.349 -15.422   0.317  1.00  0.00    -0.267 OA
HETATM   21  H   UNL     1      43.507 -15.321  -0.133  1.00  0.00     0.169 HD
BRANCH  19  22
HETATM   22  C   UNL     1      41.501 -14.179  -1.286  1.00  0.00     0.034 A 
HETATM   23  C   UNL     1      41.047 -14.463  -2.576  1.00  0.00     0.018 A 
HETATM   24  C   UNL     1      41.126 -13.493  -3.588  1.00  0.00     0.015 A 
HETATM   25  C   UNL     1      41.678 -12.228  -3.306  1.00  0.00    -0.008 A 
HETATM   26  C   UNL     1      42.148 -11.965  -2.018  1.00  0.00     0.045 A 
HETATM   27  C   UNL     1      41.890 -11.055  -4.077  1.00  0.00     0.031 A 
HETATM   28  N   UNL     1      42.644 -10.671  -2.016  1.00  0.00    -0.352 N 
HETATM   29  C   UNL     1      42.068 -12.925  -0.997  1.00  0.00     0.047 A 
HETATM   30  C   UNL     1      42.468 -10.112  -3.258  1.00  0.00     0.092 A 
BRANCH  28  31
HETATM   31  C   UNL     1      43.208  -9.991  -0.848  1.00  0.00     0.081 C 
HETATM   32  C   UNL     1      42.100  -9.365  -0.004  1.00  0.00     0.032 C 
HETATM   33  C   UNL     1      44.283  -8.961  -1.206  1.00  0.00     0.032 C 
ENDBRANCH  28  31
ENDBRANCH  19  22
ENDBRANCH   1  18
TORSDOF 3
ENDMDL
MODEL 4
REMARK VINA RESULT:      -9.2      3.089      9.486
REMARK  3 active torsions:
REMARK  status: ('A' for Active; 'I' for Inactive)
REMARK    1  A    between atoms: C_2  and  N_3 
REMARK    2  A    between atoms: C_8  and  C_9 
REMARK       I    between atoms: C_9  and  N_10 
REMARK    3  A    between atoms: N_10  and  C_11 
ROOT
HETATM    1  C   UNL     1      41.408 -13.186   4.804  1.00  0.00     0.036 A 
HETATM    2  C   UNL     1      41.694 -12.598   6.035  1.00  0.00     0.049 A 
HETATM    3  C   UNL     1      41.076 -11.399   6.437  1.00  0.00     0.061 A 
HETATM    4  C   UNL     1      40.132 -10.790   5.603  1.00  0.00     0.050 A 
HETATM    5  N   UNL     1      39.348  -9.667   5.921  1.00  0.00    -0.324 N 
HETATM    6  C   UNL     1      38.899  -9.267   7.153  1.00  0.00     0.245 C 
HETATM    7  O   UNL     1      38.060  -8.365   7.198  1.00  0.00    -0.271 OA
HETATM    8  C   UNL     1      39.304 -10.087   8.378  1.00  0.00     0.180 C 
HETATM    9  N   UNL     1      40.751 -10.116   8.510  1.00  0.00    -0.334 N 
HETATM   10  C   UNL     1      41.611 -10.792   7.682  1.00  0.00     0.256 C 
HETATM   11  O   UNL     1      42.808 -10.913   7.937  1.00  0.00    -0.267 OA
HETATM   12  C   UNL     1      38.816  -9.471   9.696  1.00  0.00     0.037 C 
HETATM   13  C   UNL     1      39.941  -9.780  10.675  1.00  0.00     0.022 C 
HETATM   14  C   UNL     1      41.181  -9.633   9.809  1.00  0.00     0.127 C 
HETATM   15  C   UNL     1      39.918 -11.333   4.326  1.00  0.00     0.033 A 
HETATM   16  C   UNL     1      40.550 -12.519   3.930  1.00  0.00     0.032 A 
HETATM   17  H   UNL     1      38.860  -9.191   5.171  1.00  0.00     0.169 HD
ENDROOT
BRANCH   1  18
HETATM   18  N   UNL     1      41.960 -14.414   4.380  1.00  0.00    -0.323 N 
HETATM   19  C   UNL     1      42.974 -14.564   3.446  1.00  0.00     0.256 C 
HETATM   20  O   UNL     1      43.583 -13.649   2.903  1.00  0.00    -0.267 OA
HETATM   21  H   UNL     1      41.606 -15.241   4.837  1.00  0.00     0.169 HD
BRANCH  19  22
HETATM   22  C   UNL     1      43.355 -15.963   3.083  1.00  0.00     0.034 A 
HETATM   23  C   UNL     1      43.571 -16.385   1.769  1.00  0.00     0.018 A 
HETATM   24  C   UNL     1      43.928 -17.716   1.499  1.00  0.00     0.015 A 
HETATM   25  C   UNL     1      44.057 -18.637   2.557  1.00  0.00    -0.008 A 
HETATM   26  C   UNL     1      43.815 -18.207   3.863  1.00  0.00     0.045 A 
HETATM   27  C   UNL     1      44.401 -20.012   2.626  1.00  0.00     0.031 A 
HETATM   28  N   UNL     1      43.996 -19.298   4.697  1.00  0.00    -0.352 N 
HETATM   29  C   UNL     1      43.464 -16.877   4.145  1.00  0.00     0.047 A 
HETATM   30  C   UNL     1      44.372 -20.387   3.950  1.00  0.00     0.092 A 
BRANCH  28  31
HETATM   31  C   UNL     1      43.866 -19.270   6.156  1.00  0.00     0.081 C 
HETATM   32  C   UNL     1      44.976 -18.425   6.777  1.00  0.00     0.032 C 
HETATM   33  C   UNL     1      43.810 -20.664   6.787  1.00  0.00     0.032 C 
ENDBRANCH  28  31
ENDBRANCH  19  22
ENDBRANCH   1  18
TORSDOF 3
ENDMDL
MODEL 5
REMARK VINA RESULT:      -9.1      5.076      9.020
REMARK  3 active torsions:
REMARK  status: ('A' for Active; 'I' for Inactive)
REMARK    1  A    between atoms: C_2  and  N_3 
REMARK    2  A    between atoms: C_8  and  C_9 
REMARK       I    between atoms: C_9  and  N_10 
REMARK    3  A    between atoms: N_10  and  C_11 
ROOT
HETATM    1  C   UNL     1      41.301 -15.581  -0.725  1.00  0.00     0.036 A 
HETATM    2  C   UNL     1      40.825 -14.320  -0.371  1.00  0.00     0.049 A 
HETATM    3  C   UNL     1      40.074 -13.539  -1.270  1.00  0.00     0.061 A 
HETATM    4  C   UNL     1      39.771 -14.042  -2.541  1.00  0.00     0.050 A 
HETATM    5  N   UNL     1      38.933 -13.434  -3.493  1.00  0.00    -0.324 N 
HETATM    6  C   UNL     1      37.856 -12.615  -3.276  1.00  0.00     0.245 C 
HETATM    7  O   UNL     1      37.132 -12.345  -4.237  1.00  0.00    -0.271 OA
HETATM    8  C   UNL     1      37.495 -12.250  -1.836  1.00  0.00     0.180 C 
HETATM    9  N   UNL     1      38.606 -11.567  -1.195  1.00  0.00    -0.334 N 
HETATM   10  C   UNL     1      39.793 -12.150  -0.829  1.00  0.00     0.256 C 
HETATM   11  O   UNL     1      40.630 -11.562  -0.147  1.00  0.00    -0.267 OA
HETATM   12  C   UNL     1      36.334 -11.252  -1.746  1.00  0.00     0.037 C 
HETATM   13  C   UNL     1      36.699 -10.383  -0.550  1.00  0.00     0.022 C 
HETATM   14  C   UNL     1      38.210 -10.273  -0.671  1.00  0.00     0.127 C 
HETATM   15  C   UNL     1      40.333 -15.269  -2.926  1.00  0.00     0.033 A 
HETATM   16  C   UNL     1      41.091 -16.031  -2.028  1.00  0.00     0.032 A 
HETATM   17  H   UNL     1      38.958 -13.779  -4.446  1.00  0.00     0.169 HD
ENDROOT
BRANCH   1  18
HETATM   18  N   UNL     1      42.010 -16.422   0.159  1.00  0.00    -0.323 N 
HETATM   19  C   UNL     1      41.471 -17.080   1.255  1.00  0.00     0.256 C 
HETATM   20  O   UNL     1      40.287 -17.080   1.573  1.00  0.00    -0.267 OA
HETATM   21  H   UNL     1      42.981 -16.581  -0.063  1.00  0.00     0.169 HD
BRANCH  19  22
HETATM   22  C   UNL     1      42.419 -17.858   2.108  1.00  0.00     0.034 A 
HETATM   23  C   UNL     1      43.148 -18.956   1.644  1.00  0.00     0.018 A 
HETATM   24  C   UNL     1      44.023 -19.642   2.501  1.00  0.00     0.015 A 
HETATM   25  C   UNL     1      44.159 -19.231   3.842  1.00  0.00    -0.008 A 
HETATM   26  C   UNL     1      43.408 -18.147   4.298  1.00  0.00     0.045 A 
HETATM   27  C   UNL     1      44.941 -19.689   4.935  1.00  0.00     0.031 A 
HETATM   28  N   UNL     1      43.718 -17.963   5.635  1.00  0.00    -0.352 N 
HETATM   29  C   UNL     1      42.535 -17.449   3.448  1.00  0.00     0.047 A 
HETATM   30  C   UNL     1      44.663 -18.884   6.016  1.00  0.00     0.092 A 
BRANCH  28  31
HETATM   31  C   UNL     1      43.165 -16.908   6.488  1.00  0.00     0.081 C 
HETATM   32  C   UNL     1      43.919 -15.597   6.275  1.00  0.00     0.032 C 
HETATM   33  C   UNL     1      43.118 -17.287   7.970  1.00  0.00     0.032 C 
ENDBRANCH  28  31
ENDBRANCH  19  22
ENDBRANCH   1  18
TORSDOF 3
ENDMDL
MODEL 6
REMARK VINA RESULT:      -9.0      4.816      9.184
REMARK  3 active torsions:
REMARK  status: ('A' for Active; 'I' for Inactive)
REMARK    1  A    between atoms: C_2  and  N_3 
REMARK    2  A    between atoms: C_8  and  C_9 
REMARK       I    between atoms: C_9  and  N_10 
REMARK    3  A    between atoms: N_10  and  C_11 
ROOT
HETATM    1  C   UNL     1      41.742 -15.553   3.987  1.00  0.00     0.036 A 
HETATM    2  C   UNL     1      42.440 -16.740   3.772  1.00  0.00     0.049 A 
HETATM    3  C   UNL     1      43.206 -17.337   4.791  1.00  0.00     0.061 A 
HETATM    4  C   UNL     1      43.254 -16.747   6.060  1.00  0.00     0.050 A 
HETATM    5  N   UNL     1      43.872 -17.289   7.201  1.00  0.00    -0.324 N 
HETATM    6  C   UNL     1      44.050 -18.609   7.524  1.00  0.00     0.245 C 
HETATM    7  O   UNL     1      44.437 -18.879   8.663  1.00  0.00    -0.271 OA
HETATM    8  C   UNL     1      43.571 -19.673   6.535  1.00  0.00     0.180 C 
HETATM    9  N   UNL     1      44.247 -19.516   5.259  1.00  0.00    -0.334 N 
HETATM   10  C   UNL     1      44.040 -18.491   4.370  1.00  0.00     0.256 C 
HETATM   11  O   UNL     1      44.520 -18.497   3.238  1.00  0.00    -0.267 OA
HETATM   12  C   UNL     1      43.922 -21.099   6.978  1.00  0.00     0.037 C 
HETATM   13  C   UNL     1      44.229 -21.815   5.669  1.00  0.00     0.022 C 
HETATM   14  C   UNL     1      44.924 -20.735   4.856  1.00  0.00     0.127 C 
HETATM   15  C   UNL     1      42.630 -15.503   6.243  1.00  0.00     0.033 A 
HETATM   16  C   UNL     1      41.882 -14.911   5.218  1.00  0.00     0.032 A 
HETATM   17  H   UNL     1      44.026 -16.683   7.999  1.00  0.00     0.169 HD
ENDROOT
BRANCH   1  18
HETATM   18  N   UNL     1      40.918 -14.947   3.015  1.00  0.00    -0.323 N 
HETATM   19  C   UNL     1      40.078 -15.616   2.138  1.00  0.00     0.256 C 
HETATM   20  O   UNL     1      39.880 -16.826   2.126  1.00  0.00    -0.267 OA
HETATM   21  H   UNL     1      40.920 -13.938   2.998  1.00  0.00     0.169 HD
BRANCH  19  22
HETATM   22  C   UNL     1      39.352 -14.784   1.131  1.00  0.00     0.034 A 
HETATM   23  C   UNL     1      38.025 -14.376   1.283  1.00  0.00     0.018 A 
HETATM   24  C   UNL     1      37.404 -13.593   0.297  1.00  0.00     0.015 A 
HETATM   25  C   UNL     1      38.117 -13.226  -0.861  1.00  0.00    -0.008 A 
HETATM   26  C   UNL     1      39.436 -13.659  -1.010  1.00  0.00     0.045 A 
HETATM   27  C   UNL     1      37.796 -12.457  -2.009  1.00  0.00     0.031 A 
HETATM   28  N   UNL     1      39.894 -13.175  -2.224  1.00  0.00    -0.352 N 
HETATM   29  C   UNL     1      40.069 -14.436  -0.027  1.00  0.00     0.047 A 
HETATM   30  C   UNL     1      38.907 -12.429  -2.821  1.00  0.00     0.092 A 
BRANCH  28  31
HETATM   31  C   UNL     1      41.244 -13.380  -2.754  1.00  0.00     0.081 C 
HETATM   32  C   UNL     1      41.605 -12.278  -3.747  1.00  0.00     0.032 C 
HETATM   33  C   UNL     1      41.452 -14.769  -3.366  1.00  0.00     0.032 C 
ENDBRANCH  28  31
ENDBRANCH  19  22
ENDBRANCH   1  18
TORSDOF 3
ENDMDL
MODEL 7
REMARK VINA RESULT:      -8.9      2.310      9.786
REMARK  3 active torsions:
REMARK  status: ('A' for Active; 'I' for Inactive)
REMARK    1  A    between atoms: C_2  and  N_3 
REMARK    2  A    between atoms: C_8  and  C_9 
REMARK       I    between atoms: C_9  and  N_10 
REMARK    3  A    between atoms: N_10  and  C_11 
ROOT
HETATM    1  C   UNL     1      42.543 -13.352   5.743  1.00  0.00     0.036 A 
HETATM    2  C   UNL     1      43.261 -13.083   6.907  1.00  0.00     0.049 A 
HETATM    3  C   UNL     1      43.016 -11.927   7.671  1.00  0.00     0.061 A 
HETATM    4  C   UNL     1      42.012 -11.034   7.277  1.00  0.00     0.050 A 
HETATM    5  N   UNL     1      41.573  -9.911   8.000  1.00  0.00    -0.324 N 
HETATM    6  C   UNL     1      41.562  -9.727   9.358  1.00  0.00     0.245 C 
HETATM    7  O   UNL     1      40.954  -8.752   9.805  1.00  0.00    -0.271 OA
HETATM    8  C   UNL     1      42.124 -10.835  10.249  1.00  0.00     0.180 C 
HETATM    9  N   UNL     1      43.519 -11.084   9.926  1.00  0.00    -0.334 N 
HETATM   10  C   UNL     1      43.975 -11.676   8.775  1.00  0.00     0.256 C 
HETATM   11  O   UNL     1      45.150 -12.006   8.629  1.00  0.00    -0.267 OA
HETATM   12  C   UNL     1      42.140 -10.456  11.735  1.00  0.00     0.037 C 
HETATM   13  C   UNL     1      43.411 -11.113  12.259  1.00  0.00     0.022 C 
HETATM   14  C   UNL     1      44.372 -10.951  11.093  1.00  0.00     0.127 C 
HETATM   15  C   UNL     1      41.359 -11.259   6.055  1.00  0.00     0.033 A 
HETATM   16  C   UNL     1      41.622 -12.405   5.295  1.00  0.00     0.032 A 
HETATM   17  H   UNL     1      40.998  -9.226   7.523  1.00  0.00     0.169 HD
ENDROOT
BRANCH   1  18
HETATM   18  N   UNL     1      42.715 -14.523   4.975  1.00  0.00    -0.323 N 
HETATM   19  C   UNL     1      43.443 -14.618   3.799  1.00  0.00     0.256 C 
HETATM   20  O   UNL     1      44.098 -13.713   3.292  1.00  0.00    -0.267 OA
HETATM   21  H   UNL     1      42.303 -15.365   5.350  1.00  0.00     0.169 HD
BRANCH  19  22
HETATM   22  C   UNL     1      43.430 -15.939   3.101  1.00  0.00     0.034 A 
HETATM   23  C   UNL     1      43.082 -16.097   1.757  1.00  0.00     0.018 A 
HETATM   24  C   UNL     1      43.091 -17.369   1.164  1.00  0.00     0.015 A 
HETATM   25  C   UNL     1      43.440 -18.499   1.931  1.00  0.00    -0.008 A 
HETATM   26  C   UNL     1      43.763 -18.330   3.279  1.00  0.00     0.045 A 
HETATM   27  C   UNL     1      43.554 -19.884   1.643  1.00  0.00     0.031 A 
HETATM   28  N   UNL     1      44.050 -19.583   3.794  1.00  0.00    -0.352 N 
HETATM   29  C   UNL     1      43.764 -17.061   3.880  1.00  0.00     0.047 A 
HETATM   30  C   UNL     1      43.944 -20.523   2.798  1.00  0.00     0.092 A 
BRANCH  28  31
HETATM   31  C   UNL     1      44.464 -19.848   5.174  1.00  0.00     0.081 C 
HETATM   32  C   UNL     1      44.792 -21.327   5.361  1.00  0.00     0.032 C 
HETATM   33  C   UNL     1      43.448 -19.368   6.215  1.00  0.00     0.032 C 
ENDBRANCH  28  31
ENDBRANCH  19  22
ENDBRANCH   1  18
TORSDOF 3
ENDMDL
MODEL 8
REMARK VINA RESULT:      -8.9      5.035      8.826
REMARK  3 active torsions:
REMARK  status: ('A' for Active; 'I' for Inactive)
REMARK    1  A    between atoms: C_2  and  N_3 
REMARK    2  A    between atoms: C_8  and  C_9 
REMARK       I    between atoms: C_9  and  N_10 
REMARK    3  A    between atoms: N_10  and  C_11 
ROOT
HETATM    1  C   UNL     1      40.254 -15.175   1.091  1.00  0.00     0.036 A 
HETATM    2  C   UNL     1      40.463 -14.596  -0.160  1.00  0.00     0.049 A 
HETATM    3  C   UNL     1      39.507 -13.744  -0.744  1.00  0.00     0.061 A 
HETATM    4  C   UNL     1      38.329 -13.442  -0.050  1.00  0.00     0.050 A 
HETATM    5  N   UNL     1      37.348 -12.518  -0.449  1.00  0.00    -0.324 N 
HETATM    6  C   UNL     1      37.508 -11.377  -1.191  1.00  0.00     0.245 C 
HETATM    7  O   UNL     1      36.556 -10.596  -1.266  1.00  0.00    -0.271 OA
HETATM    8  C   UNL     1      38.904 -11.037  -1.714  1.00  0.00     0.180 C 
HETATM    9  N   UNL     1      39.395 -12.102  -2.572  1.00  0.00    -0.334 N 
HETATM   10  C   UNL     1      39.776 -13.351  -2.150  1.00  0.00     0.256 C 
HETATM   11  O   UNL     1      40.334 -14.153  -2.895  1.00  0.00    -0.267 OA
HETATM   12  C   UNL     1      38.919  -9.791  -2.609  1.00  0.00     0.037 C 
HETATM   13  C   UNL     1      39.972 -10.118  -3.660  1.00  0.00     0.022 C 
HETATM   14  C   UNL     1      39.765 -11.606  -3.885  1.00  0.00     0.127 C 
HETATM   15  C   UNL     1      38.080 -14.102   1.164  1.00  0.00     0.033 A 
HETATM   16  C   UNL     1      39.032 -14.960   1.729  1.00  0.00     0.032 A 
HETATM   17  H   UNL     1      36.448 -12.539   0.018  1.00  0.00     0.169 HD
ENDROOT
BRANCH   1  18
HETATM   18  N   UNL     1      41.205 -15.991   1.740  1.00  0.00    -0.323 N 
HETATM   19  C   UNL     1      41.330 -17.364   1.587  1.00  0.00     0.256 C 
HETATM   20  O   UNL     1      40.676 -18.056   0.814  1.00  0.00    -0.267 OA
HETATM   21  H   UNL     1      41.870 -15.514   2.330  1.00  0.00     0.169 HD
BRANCH  19  22
HETATM   22  C   UNL     1      42.356 -18.046   2.433  1.00  0.00     0.034 A 
HETATM   23  C   UNL     1      43.108 -19.140   1.998  1.00  0.00     0.018 A 
HETATM   24  C   UNL     1      44.057 -19.733   2.845  1.00  0.00     0.015 A 
HETATM   25  C   UNL     1      44.244 -19.232   4.149  1.00  0.00    -0.008 A 
HETATM   26  C   UNL     1      43.469 -18.153   4.579  1.00  0.00     0.045 A 
HETATM   27  C   UNL     1      45.102 -19.587   5.223  1.00  0.00     0.031 A 
HETATM   28  N   UNL     1      43.840 -17.873   5.883  1.00  0.00    -0.352 N 
HETATM   29  C   UNL     1      42.523 -17.548   3.737  1.00  0.00     0.047 A 
HETATM   30  C   UNL     1      44.845 -18.728   6.267  1.00  0.00     0.092 A 
BRANCH  28  31
HETATM   31  C   UNL     1      43.286 -16.789   6.698  1.00  0.00     0.081 C 
HETATM   32  C   UNL     1      44.026 -15.481   6.427  1.00  0.00     0.032 C 
HETATM   33  C   UNL     1      43.257 -17.110   8.196  1.00  0.00     0.032 C 
ENDBRANCH  28  31
ENDBRANCH  19  22
ENDBRANCH   1  18
TORSDOF 3
ENDMDL
MODEL 9
REMARK VINA RESULT:      -8.8      5.914      9.117
REMARK  3 active torsions:
REMARK  status: ('A' for Active; 'I' for Inactive)
REMARK    1  A    between atoms: C_2  and  N_3 
REMARK    2  A    between atoms: C_8  and  C_9 
REMARK       I    between atoms: C_9  and  N_10 
REMARK    3  A    between atoms: N_10  and  C_11 
ROOT
HETATM    1  C   UNL     1      41.824 -16.224   0.538  1.00  0.00     0.036 A 
HETATM    2  C   UNL     1      41.831 -14.923   1.036  1.00  0.00     0.049 A 
HETATM    3  C   UNL     1      41.314 -13.848   0.288  1.00  0.00     0.061 A 
HETATM    4  C   UNL     1      40.755 -14.084  -0.974  1.00  0.00     0.050 A 
HETATM    5  N   UNL     1      40.095 -13.137  -1.777  1.00  0.00    -0.324 N 
HETATM    6  C   UNL     1      39.377 -12.040  -1.378  1.00  0.00     0.245 C 
HETATM    7  O   UNL     1      38.709 -11.446  -2.228  1.00  0.00    -0.271 OA
HETATM    8  C   UNL     1      39.281 -11.734   0.116  1.00  0.00     0.180 C 
HETATM    9  N   UNL     1      40.606 -11.524   0.675  1.00  0.00    -0.334 N 
HETATM   10  C   UNL     1      41.554 -12.499   0.859  1.00  0.00     0.256 C 
HETATM   11  O   UNL     1      42.593 -12.293   1.483  1.00  0.00    -0.267 OA
HETATM   12  C   UNL     1      38.534 -10.426   0.411  1.00  0.00     0.037 C 
HETATM   13  C   UNL     1      39.269  -9.859   1.619  1.00  0.00     0.022 C 
HETATM   14  C   UNL     1      40.713 -10.236   1.334  1.00  0.00     0.127 C 
HETATM   15  C   UNL     1      40.837 -15.379  -1.510  1.00  0.00     0.033 A 
HETATM   16  C   UNL     1      41.367 -16.438  -0.763  1.00  0.00     0.032 A 
HETATM   17  H   UNL     1      39.922 -13.367  -2.749  1.00  0.00     0.169 HD
ENDROOT
BRANCH   1  18
HETATM   18  N   UNL     1      42.280 -17.341   1.271  1.00  0.00    -0.323 N 
HETATM   19  C   UNL     1      43.607 -17.676   1.490  1.00  0.00     0.256 C 
HETATM   20  O   UNL     1      44.577 -17.013   1.136  1.00  0.00    -0.267 OA
HETATM   21  H   UNL     1      41.567 -17.910   1.702  1.00  0.00     0.169 HD
BRANCH  19  22
HETATM   22  C   UNL     1      43.869 -18.948   2.229  1.00  0.00     0.034 A 
HETATM   23  C   UNL     1      43.978 -20.192   1.603  1.00  0.00     0.018 A 
HETATM   24  C   UNL     1      44.226 -21.349   2.358  1.00  0.00     0.015 A 
HETATM   25  C   UNL     1      44.353 -21.260   3.759  1.00  0.00    -0.008 A 
HETATM   26  C   UNL     1      44.219 -20.014   4.373  1.00  0.00     0.045 A 
HETATM   27  C   UNL     1      44.606 -22.208   4.785  1.00  0.00     0.031 A 
HETATM   28  N   UNL     1      44.373 -20.207   5.736  1.00  0.00    -0.352 N 
HETATM   29  C   UNL     1      43.978 -18.849   3.627  1.00  0.00     0.047 A 
HETATM   30  C   UNL     1      44.629 -21.533   5.984  1.00  0.00     0.092 A 
BRANCH  28  31
HETATM   31  C   UNL     1      44.331 -19.145   6.744  1.00  0.00     0.081 C 
HETATM   32  C   UNL     1      42.938 -18.522   6.810  1.00  0.00     0.032 C 
HETATM   33  C   UNL     1      45.408 -18.075   6.544  1.00  0.00     0.032 C 
ENDBRANCH  28  31
ENDBRANCH  19  22
ENDBRANCH   1  18
TORSDOF 3
ENDMDL
MODEL 10
REMARK VINA RESULT:      -8.8      5.755      8.966
REMARK  3 active torsions:
REMARK  status: ('A' for Active; 'I' for Inactive)
REMARK    1  A    between atoms: C_2  and  N_3 
REMARK    2  A    between atoms: C_8  and  C_9 
REMARK       I    between atoms: C_9  and  N_10 
REMARK    3  A    between atoms: N_10  and  C_11 
ROOT
HETATM    1  C   UNL     1      40.137 -15.484   1.557  1.00  0.00     0.036 A 
HETATM    2  C   UNL     1      40.697 -15.108   0.337  1.00  0.00     0.049 A 
HETATM    3  C   UNL     1      40.023 -14.244  -0.546  1.00  0.00     0.061 A 
HETATM    4  C   UNL     1      38.772 -13.725  -0.190  1.00  0.00     0.050 A 
HETATM    5  N   UNL     1      38.041 -12.763  -0.909  1.00  0.00    -0.324 N 
HETATM    6  C   UNL     1      38.518 -11.758  -1.710  1.00  0.00     0.245 C 
HETATM    7  O   UNL     1      37.723 -10.897  -2.092  1.00  0.00    -0.271 OA
HETATM    8  C   UNL     1      40.028 -11.646  -1.917  1.00  0.00     0.180 C 
HETATM    9  N   UNL     1      40.548 -12.865  -2.513  1.00  0.00    -0.334 N 
HETATM   10  C   UNL     1      40.650 -14.078  -1.881  1.00  0.00     0.256 C 
HETATM   11  O   UNL     1      41.246 -15.030  -2.381  1.00  0.00    -0.267 OA
HETATM   12  C   UNL     1      40.414 -10.543  -2.912  1.00  0.00     0.037 C 
HETATM   13  C   UNL     1      41.620 -11.122  -3.638  1.00  0.00     0.022 C 
HETATM   14  C   UNL     1      41.266 -12.596  -3.745  1.00  0.00     0.127 C 
HETATM   15  C   UNL     1      38.170 -14.182   0.993  1.00  0.00     0.033 A 
HETATM   16  C   UNL     1      38.845 -15.054   1.857  1.00  0.00     0.032 A 
HETATM   17  H   UNL     1      37.065 -12.623  -0.671  1.00  0.00     0.169 HD
ENDROOT
BRANCH   1  18
HETATM   18  N   UNL     1      40.798 -16.303   2.498  1.00  0.00    -0.323 N 
HETATM   19  C   UNL     1      41.357 -15.872   3.691  1.00  0.00     0.256 C 
HETATM   20  O   UNL     1      41.299 -14.729   4.133  1.00  0.00    -0.267 OA
HETATM   21  H   UNL     1      40.819 -17.290   2.290  1.00  0.00     0.169 HD
BRANCH  19  22
HETATM   22  C   UNL     1      42.083 -16.894   4.504  1.00  0.00     0.034 A 
HETATM   23  C   UNL     1      42.156 -16.857   5.899  1.00  0.00     0.018 A 
HETATM   24  C   UNL     1      42.855 -17.852   6.601  1.00  0.00     0.015 A 
HETATM   25  C   UNL     1      43.499 -18.888   5.896  1.00  0.00    -0.008 A 
HETATM   26  C   UNL     1      43.437 -18.899   4.501  1.00  0.00     0.045 A 
HETATM   27  C   UNL     1      44.260 -20.019   6.291  1.00  0.00     0.031 A 
HETATM   28  N   UNL     1      44.154 -20.001   4.065  1.00  0.00    -0.352 N 
HETATM   29  C   UNL     1      42.735 -17.914   3.789  1.00  0.00     0.047 A 
HETATM   30  C   UNL     1      44.635 -20.693   5.150  1.00  0.00     0.092 A 
BRANCH  28  31
HETATM   31  C   UNL     1      44.315 -20.397   2.664  1.00  0.00     0.081 C 
HETATM   32  C   UNL     1      43.082 -20.009   1.851  1.00  0.00     0.032 C 
HETATM   33  C   UNL     1      44.653 -21.880   2.487  1.00  0.00     0.032 C 
ENDBRANCH  28  31
ENDBRANCH  19  22
ENDBRANCH   1  18
TORSDOF 3
ENDMDL
