MODEL 1
REMARK VINA RESULT:      -9.2      0.000      0.000
REMARK  6 active torsions:
REMARK  status: ('A' for Active; 'I' for Inactive)
REMARK    1  A    between atoms: C_2  and  N_3 
REMARK    2  A    between atoms: C_2  and  C_12 
REMARK       I    between atoms: N_3  and  C_4 
REMARK    3  A    between atoms: C_4  and  C_5 
REMARK    4  A    between atoms: C_12  and  C_13 
REMARK       I    between atoms: C_13  and  N_14 
REMARK    5  A    between atoms: N_14  and  C_15 
REMARK    6  A    between atoms: C_17  and  C_18 
ROOT
HETATM    1  C   UNL     1      43.551 -14.363   4.422  1.00  0.00     0.224 C 
HETATM    2  N   UNL     1      43.026 -15.635   4.335  1.00  0.00    -0.327 N 
HETATM    3  O   UNL     1      44.327 -13.832   3.633  1.00  0.00    -0.273 OA
HETATM    4  H   UNL     1      42.334 -15.876   5.051  1.00  0.00     0.169 HD
ENDROOT
BRANCH   1   5
HETATM    5  C   UNL     1      43.039 -13.600   5.634  1.00  0.00     0.128 C 
BRANCH   5   6
HETATM    6  C   UNL     1      44.090 -13.619   6.757  1.00  0.00     0.089 C 
HETATM    7  C   UNL     1      44.224 -15.039   7.317  1.00  0.00     0.032 C 
BRANCH   6   8
HETATM    8  N   UNL     1      43.812 -12.700   7.870  1.00  0.00    -0.352 N 
HETATM    9  C   UNL     1      44.756 -12.327   8.805  1.00  0.00     0.252 C 
HETATM   10  O   UNL     1      45.966 -12.429   8.633  1.00  0.00    -0.268 OA
HETATM   11  H   UNL     1      42.839 -12.558   8.108  1.00  0.00     0.163 HD
BRANCH   9  12
HETATM   12  C   UNL     1      44.245 -11.767  10.084  1.00  0.00     0.032 A 
HETATM   13  C   UNL     1      44.008 -12.580  11.199  1.00  0.00     0.017 A 
HETATM   14  C   UNL     1      43.589 -12.006  12.402  1.00  0.00     0.001 A 
HETATM   15  C   UNL     1      43.412 -10.625  12.494  1.00  0.00     0.000 A 
HETATM   16  C   UNL     1      43.660  -9.812  11.387  1.00  0.00     0.001 A 
HETATM   17  C   UNL     1      44.082 -10.381  10.185  1.00  0.00     0.017 A 
ENDBRANCH   9  12
ENDBRANCH   6   8
ENDBRANCH   5   6
ENDBRANCH   1   5
BRANCH   2  18
HETATM   18  C   UNL     1      43.254 -16.624   3.361  1.00  0.00     0.035 A 
HETATM   19  C   UNL     1      43.568 -17.956   3.648  1.00  0.00     0.042 A 
HETATM   20  C   UNL     1      43.791 -18.882   2.613  1.00  0.00    -0.021 A 
HETATM   21  C   UNL     1      43.679 -18.452   1.283  1.00  0.00     0.012 A 
HETATM   22  C   UNL     1      43.365 -17.127   0.989  1.00  0.00     0.003 A 
HETATM   23  C   UNL     1      43.161 -16.218   2.025  1.00  0.00     0.029 A 
BRANCH  20  24
HETATM   24  C   UNL     1      44.148 -20.265   2.897  1.00  0.00     0.010 A 
HETATM   25  C   UNL     1      44.088 -21.423   2.082  1.00  0.00     0.152 A 
HETATM   26  N   UNL     1      44.502 -22.526   2.712  1.00  0.00    -0.187 NA
HETATM   27  N   UNL     1      44.835 -22.079   3.934  1.00  0.00    -0.289 N 
HETATM   28  H   UNL     1      45.188 -22.747   4.610  1.00  0.00     0.188 HD
HETATM   29  C   UNL     1      44.639 -20.739   4.095  1.00  0.00     0.123 A 
ENDBRANCH  20  24
ENDBRANCH   2  18
TORSDOF 6
ENDMDL
MODEL 2
REMARK VINA RESULT:      -9.1      4.304      8.297
REMARK  6 active torsions:
REMARK  status: ('A' for Active; 'I' for Inactive)
REMARK    1  A    between atoms: C_2  and  N_3 
REMARK    2  A    between atoms: C_2  and  C_12 
REMARK       I    between atoms: N_3  and  C_4 
REMARK    3  A    between atoms: C_4  and  C_5 
REMARK    4  A    between atoms: C_12  and  C_13 
REMARK       I    between atoms: C_13  and  N_14 
REMARK    5  A    between atoms: N_14  and  C_15 
REMARK    6  A    between atoms: C_17  and  C_18 
ROOT
HETATM    1  C   UNL     1      42.986 -14.349   3.810  1.00  0.00     0.224 C 
HETATM    2  N   UNL     1      41.697 -14.713   3.484  1.00  0.00    -0.327 N 
HETATM    3  O   UNL     1      43.745 -13.652   3.144  1.00  0.00    -0.273 OA
HETATM    4  H   UNL     1      41.192 -15.240   4.203  1.00  0.00     0.169 HD
ENDROOT
BRANCH   1   5
HETATM    5  C   UNL     1      43.420 -14.886   5.166  1.00  0.00     0.128 C 
BRANCH   5   6
HETATM    6  C   UNL     1      42.827 -16.287   5.397  1.00  0.00     0.089 C 
HETATM    7  C   UNL     1      42.851 -16.619   6.893  1.00  0.00     0.032 C 
BRANCH   6   8
HETATM    8  N   UNL     1      43.507 -17.366   4.666  1.00  0.00    -0.352 N 
HETATM    9  C   UNL     1      42.921 -18.076   3.637  1.00  0.00     0.252 C 
HETATM   10  O   UNL     1      41.946 -17.684   3.004  1.00  0.00    -0.268 OA
HETATM   11  H   UNL     1      44.318 -17.775   5.110  1.00  0.00     0.163 HD
BRANCH   9  12
HETATM   12  C   UNL     1      43.533 -19.386   3.295  1.00  0.00     0.032 A 
HETATM   13  C   UNL     1      44.367 -20.064   4.194  1.00  0.00     0.017 A 
HETATM   14  C   UNL     1      44.872 -21.323   3.860  1.00  0.00     0.001 A 
HETATM   15  C   UNL     1      44.542 -21.907   2.637  1.00  0.00     0.000 A 
HETATM   16  C   UNL     1      43.702 -21.239   1.745  1.00  0.00     0.001 A 
HETATM   17  C   UNL     1      43.193 -19.983   2.076  1.00  0.00     0.017 A 
ENDBRANCH   9  12
ENDBRANCH   6   8
ENDBRANCH   5   6
ENDBRANCH   1   5
BRANCH   2  18
HETATM   18  C   UNL     1      40.953 -14.404   2.330  1.00  0.00     0.035 A 
HETATM   19  C   UNL     1      41.404 -14.605   1.023  1.00  0.00     0.042 A 
HETATM   20  C   UNL     1      40.599 -14.260  -0.078  1.00  0.00    -0.021 A 
HETATM   21  C   UNL     1      39.326 -13.720   0.156  1.00  0.00     0.012 A 
HETATM   22  C   UNL     1      38.870 -13.517   1.456  1.00  0.00     0.003 A 
HETATM   23  C   UNL     1      39.684 -13.852   2.536  1.00  0.00     0.029 A 
BRANCH  20  24
HETATM   24  C   UNL     1      41.068 -14.436  -1.445  1.00  0.00     0.010 A 
HETATM   25  C   UNL     1      40.792 -15.451  -2.395  1.00  0.00     0.152 A 
HETATM   26  N   UNL     1      41.427 -15.266  -3.556  1.00  0.00    -0.187 NA
HETATM   27  N   UNL     1      42.111 -14.127  -3.357  1.00  0.00    -0.289 N 
HETATM   28  H   UNL     1      42.682 -13.771  -4.115  1.00  0.00     0.188 HD
HETATM   29  C   UNL     1      41.933 -13.596  -2.114  1.00  0.00     0.123 A 
ENDBRANCH  20  24
ENDBRANCH   2  18
TORSDOF 6
ENDMDL
MODEL 3
REMARK VINA RESULT:      -8.7      2.106      2.988
REMARK  6 active torsions:
REMARK  status: ('A' for Active; 'I' for Inactive)
REMARK    1  A    between atoms: C_2  and  N_3 
REMARK    2  A    between atoms: C_2  and  C_12 
REMARK       I    between atoms: N_3  and  C_4 
REMARK    3  A    between atoms: C_4  and  C_5 
REMARK    4  A    between atoms: C_12  and  C_13 
REMARK       I    between atoms: C_13  and  N_14 
REMARK    5  A    between atoms: N_14  and  C_15 
REMARK    6  A    between atoms: C_17  and  C_18 
ROOT
HETATM    1  C   UNL     1      44.212 -14.067   7.041  1.00  0.00     0.224 C 
HETATM    2  N   UNL     1      44.266 -15.442   6.956  1.00  0.00    -0.327 N 
HETATM    3  O   UNL     1      43.392 -13.328   6.504  1.00  0.00    -0.273 OA
HETATM    4  H   UNL     1      44.980 -15.891   7.536  1.00  0.00     0.169 HD
ENDROOT
BRANCH   1   5
HETATM    5  C   UNL     1      45.298 -13.493   7.937  1.00  0.00     0.128 C 
BRANCH   5   6
HETATM    6  C   UNL     1      44.908 -12.081   8.407  1.00  0.00     0.089 C 
HETATM    7  C   UNL     1      46.153 -11.338   8.905  1.00  0.00     0.032 C 
BRANCH   6   8
HETATM    8  N   UNL     1      43.888 -12.049   9.464  1.00  0.00    -0.352 N 
HETATM    9  C   UNL     1      43.007 -11.002   9.642  1.00  0.00     0.252 C 
HETATM   10  O   UNL     1      42.744 -10.175   8.776  1.00  0.00    -0.268 OA
HETATM   11  H   UNL     1      44.019 -12.684  10.240  1.00  0.00     0.163 HD
BRANCH   9  12
HETATM   12  C   UNL     1      42.349 -10.901  10.971  1.00  0.00     0.032 A 
HETATM   13  C   UNL     1      40.962 -11.032  11.116  1.00  0.00     0.017 A 
HETATM   14  C   UNL     1      40.389 -10.994  12.389  1.00  0.00     0.001 A 
HETATM   15  C   UNL     1      41.196 -10.831  13.515  1.00  0.00     0.000 A 
HETATM   16  C   UNL     1      42.579 -10.712  13.374  1.00  0.00     0.001 A 
HETATM   17  C   UNL     1      43.156 -10.753  12.105  1.00  0.00     0.017 A 
ENDBRANCH   9  12
ENDBRANCH   6   8
ENDBRANCH   5   6
ENDBRANCH   1   5
BRANCH   2  18
HETATM   18  C   UNL     1      43.433 -16.320   6.239  1.00  0.00     0.035 A 
HETATM   19  C   UNL     1      43.891 -17.273   5.326  1.00  0.00     0.042 A 
HETATM   20  C   UNL     1      42.990 -18.109   4.642  1.00  0.00    -0.021 A 
HETATM   21  C   UNL     1      41.617 -17.979   4.900  1.00  0.00     0.012 A 
HETATM   22  C   UNL     1      41.153 -17.032   5.809  1.00  0.00     0.003 A 
HETATM   23  C   UNL     1      42.057 -16.203   6.469  1.00  0.00     0.029 A 
BRANCH  20  24
HETATM   24  C   UNL     1      43.451 -19.086   3.666  1.00  0.00     0.010 A 
HETATM   25  C   UNL     1      43.035 -19.331   2.334  1.00  0.00     0.152 A 
HETATM   26  N   UNL     1      43.704 -20.334   1.755  1.00  0.00    -0.187 NA
HETATM   27  N   UNL     1      44.555 -20.732   2.714  1.00  0.00    -0.289 N 
HETATM   28  H   UNL     1      45.186 -21.499   2.507  1.00  0.00     0.188 HD
HETATM   29  C   UNL     1      44.442 -20.022   3.873  1.00  0.00     0.123 A 
ENDBRANCH  20  24
ENDBRANCH   2  18
TORSDOF 6
ENDMDL
MODEL 4
REMARK VINA RESULT:      -8.7      4.675      7.830
REMARK  6 active torsions:
REMARK  status: ('A' for Active; 'I' for Inactive)
REMARK    1  A    between atoms: C_2  and  N_3 
REMARK    2  A    between atoms: C_2  and  C_12 
REMARK       I    between atoms: N_3  and  C_4 
REMARK    3  A    between atoms: C_4  and  C_5 
REMARK    4  A    between atoms: C_12  and  C_13 
REMARK       I    between atoms: C_13  and  N_14 
REMARK    5  A    between atoms: N_14  and  C_15 
REMARK    6  A    between atoms: C_17  and  C_18 
ROOT
HETATM    1  C   UNL     1      41.081 -15.891   4.847  1.00  0.00     0.224 C 
HETATM    2  N   UNL     1      42.222 -16.348   4.223  1.00  0.00    -0.327 N 
HETATM    3  O   UNL     1      40.656 -16.233   5.947  1.00  0.00    -0.273 OA
HETATM    4  H   UNL     1      42.453 -15.889   3.337  1.00  0.00     0.169 HD
ENDROOT
BRANCH   1   5
HETATM    5  C   UNL     1      40.349 -14.837   4.031  1.00  0.00     0.128 C 
BRANCH   5   6
HETATM    6  C   UNL     1      41.333 -14.112   3.096  1.00  0.00     0.089 C 
HETATM    7  C   UNL     1      41.428 -12.634   3.488  1.00  0.00     0.032 C 
BRANCH   6   8
HETATM    8  N   UNL     1      40.995 -14.198   1.668  1.00  0.00    -0.352 N 
HETATM    9  C   UNL     1      41.647 -15.028   0.779  1.00  0.00     0.252 C 
HETATM   10  O   UNL     1      42.315 -16.000   1.115  1.00  0.00    -0.268 OA
HETATM   11  H   UNL     1      40.457 -13.433   1.283  1.00  0.00     0.163 HD
BRANCH   9  12
HETATM   12  C   UNL     1      41.508 -14.702  -0.664  1.00  0.00     0.032 A 
HETATM   13  C   UNL     1      41.925 -13.469  -1.183  1.00  0.00     0.017 A 
HETATM   14  C   UNL     1      41.836 -13.226  -2.555  1.00  0.00     0.001 A 
HETATM   15  C   UNL     1      41.339 -14.210  -3.409  1.00  0.00     0.000 A 
HETATM   16  C   UNL     1      40.934 -15.443  -2.897  1.00  0.00     0.001 A 
HETATM   17  C   UNL     1      41.025 -15.692  -1.527  1.00  0.00     0.017 A 
ENDBRANCH   9  12
ENDBRANCH   6   8
ENDBRANCH   5   6
ENDBRANCH   1   5
BRANCH   2  18
HETATM   18  C   UNL     1      43.152 -17.306   4.666  1.00  0.00     0.035 A 
HETATM   19  C   UNL     1      43.335 -18.560   4.076  1.00  0.00     0.042 A 
HETATM   20  C   UNL     1      44.282 -19.466   4.587  1.00  0.00    -0.021 A 
HETATM   21  C   UNL     1      45.055 -19.086   5.694  1.00  0.00     0.012 A 
HETATM   22  C   UNL     1      44.879 -17.837   6.286  1.00  0.00     0.003 A 
HETATM   23  C   UNL     1      43.928 -16.956   5.777  1.00  0.00     0.029 A 
BRANCH  20  24
HETATM   24  C   UNL     1      44.461 -20.787   4.001  1.00  0.00     0.010 A 
HETATM   25  C   UNL     1      44.361 -21.225   2.657  1.00  0.00     0.152 A 
HETATM   26  N   UNL     1      44.591 -22.534   2.517  1.00  0.00    -0.187 NA
HETATM   27  N   UNL     1      44.845 -22.940   3.771  1.00  0.00    -0.289 N 
HETATM   28  H   UNL     1      45.056 -23.920   3.925  1.00  0.00     0.188 HD
HETATM   29  C   UNL     1      44.776 -21.937   4.693  1.00  0.00     0.123 A 
ENDBRANCH  20  24
ENDBRANCH   2  18
TORSDOF 6
ENDMDL
MODEL 5
REMARK VINA RESULT:      -8.6      3.725      8.320
REMARK  6 active torsions:
REMARK  status: ('A' for Active; 'I' for Inactive)
REMARK    1  A    between atoms: C_2  and  N_3 
REMARK    2  A    between atoms: C_2  and  C_12 
REMARK       I    between atoms: N_3  and  C_4 
REMARK    3  A    between atoms: C_4  and  C_5 
REMARK    4  A    between atoms: C_12  and  C_13 
REMARK       I    between atoms: C_13  and  N_14 
REMARK    5  A    between atoms: N_14  and  C_15 
REMARK    6  A    between atoms: C_17  and  C_18 
ROOT
HETATM    1  C   UNL     1      43.254 -14.246   5.829  1.00  0.00     0.224 C 
HETATM    2  N   UNL     1      41.877 -14.259   5.885  1.00  0.00    -0.327 N 
HETATM    3  O   UNL     1      43.953 -13.602   5.051  1.00  0.00    -0.273 OA
HETATM    4  H   UNL     1      41.473 -14.802   6.653  1.00  0.00     0.169 HD
ENDROOT
BRANCH   1   5
HETATM    5  C   UNL     1      43.892 -15.123   6.896  1.00  0.00     0.128 C 
BRANCH   5   6
HETATM    6  C   UNL     1      43.278 -16.533   6.861  1.00  0.00     0.089 C 
HETATM    7  C   UNL     1      43.561 -17.253   8.183  1.00  0.00     0.032 C 
BRANCH   6   8
HETATM    8  N   UNL     1      43.751 -17.378   5.755  1.00  0.00    -0.352 N 
HETATM    9  C   UNL     1      42.947 -17.787   4.711  1.00  0.00     0.252 C 
HETATM   10  O   UNL     1      41.893 -17.239   4.404  1.00  0.00    -0.268 OA
HETATM   11  H   UNL     1      44.608 -17.892   5.912  1.00  0.00     0.163 HD
BRANCH   9  12
HETATM   12  C   UNL     1      43.415 -18.959   3.926  1.00  0.00     0.032 A 
HETATM   13  C   UNL     1      43.067 -19.128   2.580  1.00  0.00     0.017 A 
HETATM   14  C   UNL     1      43.580 -20.210   1.859  1.00  0.00     0.001 A 
HETATM   15  C   UNL     1      44.440 -21.117   2.477  1.00  0.00     0.000 A 
HETATM   16  C   UNL     1      44.798 -20.944   3.815  1.00  0.00     0.001 A 
HETATM   17  C   UNL     1      44.291 -19.863   4.537  1.00  0.00     0.017 A 
ENDBRANCH   9  12
ENDBRANCH   6   8
ENDBRANCH   5   6
ENDBRANCH   1   5
BRANCH   2  18
HETATM   18  C   UNL     1      40.950 -13.576   5.077  1.00  0.00     0.035 A 
HETATM   19  C   UNL     1      40.630 -13.935   3.765  1.00  0.00     0.042 A 
HETATM   20  C   UNL     1      39.696 -13.192   3.021  1.00  0.00    -0.021 A 
HETATM   21  C   UNL     1      39.077 -12.087   3.622  1.00  0.00     0.012 A 
HETATM   22  C   UNL     1      39.389 -11.723   4.930  1.00  0.00     0.003 A 
HETATM   23  C   UNL     1      40.326 -12.461   5.649  1.00  0.00     0.029 A 
BRANCH  20  24
HETATM   24  C   UNL     1      39.376 -13.537   1.643  1.00  0.00     0.010 A 
HETATM   25  C   UNL     1      40.145 -13.425   0.458  1.00  0.00     0.152 A 
HETATM   26  N   UNL     1      39.492 -13.845  -0.629  1.00  0.00    -0.187 NA
HETATM   27  N   UNL     1      38.302 -14.234  -0.145  1.00  0.00    -0.289 N 
HETATM   28  H   UNL     1      37.616 -14.603  -0.794  1.00  0.00     0.188 HD
HETATM   29  C   UNL     1      38.181 -14.067   1.203  1.00  0.00     0.123 A 
ENDBRANCH  20  24
ENDBRANCH   2  18
TORSDOF 6
ENDMDL
MODEL 6
REMARK VINA RESULT:      -8.6      5.466      8.542
REMARK  6 active torsions:
REMARK  status: ('A' for Active; 'I' for Inactive)
REMARK    1  A    between atoms: C_2  and  N_3 
REMARK    2  A    between atoms: C_2  and  C_12 
REMARK       I    between atoms: N_3  and  C_4 
REMARK    3  A    between atoms: C_4  and  C_5 
REMARK    4  A    between atoms: C_12  and  C_13 
REMARK       I    between atoms: C_13  and  N_14 
REMARK    5  A    between atoms: N_14  and  C_15 
REMARK    6  A    between atoms: C_17  and  C_18 
ROOT
HETATM    1  C   UNL     1      41.444 -16.619   0.865  1.00  0.00     0.224 C 
HETATM    2  N   UNL     1      42.746 -16.857   1.252  1.00  0.00    -0.327 N 
HETATM    3  O   UNL     1      40.427 -16.935   1.475  1.00  0.00    -0.273 OA
HETATM    4  H   UNL     1      43.466 -16.451   0.647  1.00  0.00     0.169 HD
ENDROOT
BRANCH   1   5
HETATM    5  C   UNL     1      41.353 -15.856  -0.447  1.00  0.00     0.128 C 
BRANCH   5   6
HETATM    6  C   UNL     1      41.359 -14.341  -0.182  1.00  0.00     0.089 C 
HETATM    7  C   UNL     1      39.936 -13.864   0.127  1.00  0.00     0.032 C 
BRANCH   6   8
HETATM    8  N   UNL     1      41.896 -13.530  -1.284  1.00  0.00    -0.352 N 
HETATM    9  C   UNL     1      42.375 -12.246  -1.122  1.00  0.00     0.252 C 
HETATM   10  O   UNL     1      42.721 -11.775  -0.044  1.00  0.00    -0.268 OA
HETATM   11  H   UNL     1      41.655 -13.822  -2.222  1.00  0.00     0.163 HD
BRANCH   9  12
HETATM   12  C   UNL     1      42.472 -11.409  -2.347  1.00  0.00     0.032 A 
HETATM   13  C   UNL     1      42.305 -11.957  -3.626  1.00  0.00     0.017 A 
HETATM   14  C   UNL     1      42.341 -11.125  -4.748  1.00  0.00     0.001 A 
HETATM   15  C   UNL     1      42.536  -9.753  -4.596  1.00  0.00     0.000 A 
HETATM   16  C   UNL     1      42.691  -9.204  -3.323  1.00  0.00     0.001 A 
HETATM   17  C   UNL     1      42.652 -10.029  -2.199  1.00  0.00     0.017 A 
ENDBRANCH   9  12
ENDBRANCH   6   8
ENDBRANCH   5   6
ENDBRANCH   1   5
BRANCH   2  18
HETATM   18  C   UNL     1      43.225 -17.518   2.398  1.00  0.00     0.035 A 
HETATM   19  C   UNL     1      43.590 -18.867   2.436  1.00  0.00     0.042 A 
HETATM   20  C   UNL     1      44.052 -19.455   3.627  1.00  0.00    -0.021 A 
HETATM   21  C   UNL     1      44.154 -18.663   4.779  1.00  0.00     0.012 A 
HETATM   22  C   UNL     1      43.792 -17.318   4.749  1.00  0.00     0.003 A 
HETATM   23  C   UNL     1      43.325 -16.753   3.565  1.00  0.00     0.029 A 
BRANCH  20  24
HETATM   24  C   UNL     1      44.407 -20.866   3.688  1.00  0.00     0.010 A 
HETATM   25  C   UNL     1      44.357 -21.877   2.696  1.00  0.00     0.152 A 
HETATM   26  N   UNL     1      44.765 -23.068   3.145  1.00  0.00    -0.187 NA
HETATM   27  N   UNL     1      45.083 -22.824   4.426  1.00  0.00    -0.289 N 
HETATM   28  H   UNL     1      45.429 -23.593   4.990  1.00  0.00     0.188 HD
HETATM   29  C   UNL     1      44.884 -21.528   4.799  1.00  0.00     0.123 A 
ENDBRANCH  20  24
ENDBRANCH   2  18
TORSDOF 6
ENDMDL
MODEL 7
REMARK VINA RESULT:      -8.5      4.690      6.518
REMARK  6 active torsions:
REMARK  status: ('A' for Active; 'I' for Inactive)
REMARK    1  A    between atoms: C_2  and  N_3 
REMARK    2  A    between atoms: C_2  and  C_12 
REMARK       I    between atoms: N_3  and  C_4 
REMARK    3  A    between atoms: C_4  and  C_5 
REMARK    4  A    between atoms: C_12  and  C_13 
REMARK       I    between atoms: C_13  and  N_14 
REMARK    5  A    between atoms: N_14  and  C_15 
REMARK    6  A    between atoms: C_17  and  C_18 
ROOT
HETATM    1  C   UNL     1      41.843 -17.184   1.019  1.00  0.00     0.224 C 
HETATM    2  N   UNL     1      43.081 -17.266   1.618  1.00  0.00    -0.327 N 
HETATM    3  O   UNL     1      40.820 -17.771   1.360  1.00  0.00    -0.273 OA
HETATM    4  H   UNL     1      43.798 -16.643   1.235  1.00  0.00     0.169 HD
ENDROOT
BRANCH   1   5
HETATM    5  C   UNL     1      41.825 -16.222  -0.160  1.00  0.00     0.128 C 
BRANCH   5   6
HETATM    6  C   UNL     1      40.946 -15.001   0.164  1.00  0.00     0.089 C 
HETATM    7  C   UNL     1      41.448 -13.781  -0.615  1.00  0.00     0.032 C 
BRANCH   6   8
HETATM    8  N   UNL     1      40.885 -14.654   1.591  1.00  0.00    -0.352 N 
HETATM    9  C   UNL     1      39.712 -14.619   2.317  1.00  0.00     0.252 C 
HETATM   10  O   UNL     1      38.678 -15.182   1.974  1.00  0.00    -0.268 OA
HETATM   11  H   UNL     1      41.685 -14.168   1.974  1.00  0.00     0.163 HD
BRANCH   9  12
HETATM   12  C   UNL     1      39.736 -13.849   3.589  1.00  0.00     0.032 A 
HETATM   13  C   UNL     1      39.349 -12.504   3.640  1.00  0.00     0.017 A 
HETATM   14  C   UNL     1      39.325 -11.834   4.866  1.00  0.00     0.001 A 
HETATM   15  C   UNL     1      39.680 -12.504   6.037  1.00  0.00     0.000 A 
HETATM   16  C   UNL     1      40.054 -13.847   5.989  1.00  0.00     0.001 A 
HETATM   17  C   UNL     1      40.076 -14.522   4.768  1.00  0.00     0.017 A 
ENDBRANCH   9  12
ENDBRANCH   6   8
ENDBRANCH   5   6
ENDBRANCH   1   5
BRANCH   2  18
HETATM   18  C   UNL     1      43.482 -18.035   2.726  1.00  0.00     0.035 A 
HETATM   19  C   UNL     1      43.375 -17.617   4.056  1.00  0.00     0.042 A 
HETATM   20  C   UNL     1      43.807 -18.444   5.108  1.00  0.00    -0.021 A 
HETATM   21  C   UNL     1      44.338 -19.706   4.804  1.00  0.00     0.012 A 
HETATM   22  C   UNL     1      44.446 -20.130   3.481  1.00  0.00     0.003 A 
HETATM   23  C   UNL     1      44.025 -19.294   2.449  1.00  0.00     0.029 A 
BRANCH  20  24
HETATM   24  C   UNL     1      43.730 -18.010   6.496  1.00  0.00     0.010 A 
HETATM   25  C   UNL     1      43.489 -16.729   7.052  1.00  0.00     0.152 A 
HETATM   26  N   UNL     1      43.503 -16.731   8.389  1.00  0.00    -0.187 NA
HETATM   27  N   UNL     1      43.749 -18.015   8.695  1.00  0.00    -0.289 N 
HETATM   28  H   UNL     1      43.805 -18.273   9.674  1.00  0.00     0.188 HD
HETATM   29  C   UNL     1      43.896 -18.816   7.602  1.00  0.00     0.123 A 
ENDBRANCH  20  24
ENDBRANCH   2  18
TORSDOF 6
ENDMDL
MODEL 8
REMARK VINA RESULT:      -8.4      5.062      8.900
REMARK  6 active torsions:
REMARK  status: ('A' for Active; 'I' for Inactive)
REMARK    1  A    between atoms: C_2  and  N_3 
REMARK    2  A    between atoms: C_2  and  C_12 
REMARK       I    between atoms: N_3  and  C_4 
REMARK    3  A    between atoms: C_4  and  C_5 
REMARK    4  A    between atoms: C_12  and  C_13 
REMARK       I    between atoms: C_13  and  N_14 
REMARK    5  A    between atoms: N_14  and  C_15 
REMARK    6  A    between atoms: C_17  and  C_18 
ROOT
HETATM    1  C   UNL     1      42.468 -13.948   2.531  1.00  0.00     0.224 C 
HETATM    2  N   UNL     1      42.236 -14.576   1.326  1.00  0.00    -0.327 N 
HETATM    3  O   UNL     1      42.213 -12.780   2.813  1.00  0.00    -0.273 OA
HETATM    4  H   UNL     1      42.448 -15.577   1.304  1.00  0.00     0.169 HD
ENDROOT
BRANCH   1   5
HETATM    5  C   UNL     1      43.075 -14.878   3.569  1.00  0.00     0.128 C 
BRANCH   5   6
HETATM    6  C   UNL     1      42.232 -16.159   3.693  1.00  0.00     0.089 C 
HETATM    7  C   UNL     1      41.409 -16.115   4.984  1.00  0.00     0.032 C 
BRANCH   6   8
HETATM    8  N   UNL     1      43.010 -17.406   3.674  1.00  0.00    -0.352 N 
HETATM    9  C   UNL     1      43.257 -18.134   2.527  1.00  0.00     0.252 C 
HETATM   10  O   UNL     1      43.166 -17.675   1.394  1.00  0.00    -0.268 OA
HETATM   11  H   UNL     1      43.130 -17.879   4.560  1.00  0.00     0.163 HD
BRANCH   9  12
HETATM   12  C   UNL     1      43.660 -19.552   2.710  1.00  0.00     0.032 A 
HETATM   13  C   UNL     1      43.399 -20.522   1.733  1.00  0.00     0.017 A 
HETATM   14  C   UNL     1      43.851 -21.831   1.914  1.00  0.00     0.001 A 
HETATM   15  C   UNL     1      44.565 -22.172   3.062  1.00  0.00     0.000 A 
HETATM   16  C   UNL     1      44.837 -21.206   4.031  1.00  0.00     0.001 A 
HETATM   17  C   UNL     1      44.392 -19.895   3.852  1.00  0.00     0.017 A 
ENDBRANCH   9  12
ENDBRANCH   6   8
ENDBRANCH   5   6
ENDBRANCH   1   5
BRANCH   2  18
HETATM   18  C   UNL     1      41.684 -14.050   0.143  1.00  0.00     0.035 A 
HETATM   19  C   UNL     1      40.908 -14.783  -0.758  1.00  0.00     0.042 A 
HETATM   20  C   UNL     1      40.400 -14.183  -1.925  1.00  0.00    -0.021 A 
HETATM   21  C   UNL     1      40.674 -12.829  -2.165  1.00  0.00     0.012 A 
HETATM   22  C   UNL     1      41.446 -12.092  -1.271  1.00  0.00     0.003 A 
HETATM   23  C   UNL     1      41.953 -12.703  -0.126  1.00  0.00     0.029 A 
BRANCH  20  24
HETATM   24  C   UNL     1      39.615 -14.942  -2.888  1.00  0.00     0.010 A 
HETATM   25  C   UNL     1      38.338 -14.688  -3.447  1.00  0.00     0.152 A 
HETATM   26  N   UNL     1      37.945 -15.637  -4.303  1.00  0.00    -0.187 NA
HETATM   27  N   UNL     1      38.972 -16.502  -4.299  1.00  0.00    -0.289 N 
HETATM   28  H   UNL     1      38.908 -17.325  -4.888  1.00  0.00     0.188 HD
HETATM   29  C   UNL     1      39.990 -16.135  -3.470  1.00  0.00     0.123 A 
ENDBRANCH  20  24
ENDBRANCH   2  18
TORSDOF 6
ENDMDL
MODEL 9
REMARK VINA RESULT:      -8.4      3.944      8.329
REMARK  6 active torsions:
REMARK  status: ('A' for Active; 'I' for Inactive)
REMARK    1  A    between atoms: C_2  and  N_3 
REMARK    2  A    between atoms: C_2  and  C_12 
REMARK       I    between atoms: N_3  and  C_4 
REMARK    3  A    between atoms: C_4  and  C_5 
REMARK    4  A    between atoms: C_12  and  C_13 
REMARK       I    between atoms: C_13  and  N_14 
REMARK    5  A    between atoms: N_14  and  C_15 
REMARK    6  A    between atoms: C_17  and  C_18 
ROOT
HETATM    1  C   UNL     1      42.928 -14.169   3.672  1.00  0.00     0.224 C 
HETATM    2  N   UNL     1      41.816 -14.474   2.917  1.00  0.00    -0.327 N 
HETATM    3  O   UNL     1      44.053 -13.911   3.254  1.00  0.00    -0.273 OA
HETATM    4  H   UNL     1      40.944 -14.587   3.443  1.00  0.00     0.169 HD
ENDROOT
BRANCH   1   5
HETATM    5  C   UNL     1      42.634 -14.143   5.164  1.00  0.00     0.128 C 
BRANCH   5   6
HETATM    6  C   UNL     1      43.001 -15.494   5.802  1.00  0.00     0.089 C 
HETATM    7  C   UNL     1      44.122 -15.295   6.827  1.00  0.00     0.032 C 
BRANCH   6   8
HETATM    8  N   UNL     1      43.417 -16.528   4.844  1.00  0.00    -0.352 N 
HETATM    9  C   UNL     1      42.566 -17.493   4.346  1.00  0.00     0.252 C 
HETATM   10  O   UNL     1      41.343 -17.400   4.363  1.00  0.00    -0.268 OA
HETATM   11  H   UNL     1      44.411 -16.699   4.765  1.00  0.00     0.163 HD
BRANCH   9  12
HETATM   12  C   UNL     1      43.197 -18.701   3.754  1.00  0.00     0.032 A 
HETATM   13  C   UNL     1      42.944 -19.089   2.432  1.00  0.00     0.017 A 
HETATM   14  C   UNL     1      43.606 -20.195   1.893  1.00  0.00     0.001 A 
HETATM   15  C   UNL     1      44.522 -20.907   2.667  1.00  0.00     0.000 A 
HETATM   16  C   UNL     1      44.785 -20.515   3.980  1.00  0.00     0.001 A 
HETATM   17  C   UNL     1      44.129 -19.409   4.521  1.00  0.00     0.017 A 
ENDBRANCH   9  12
ENDBRANCH   6   8
ENDBRANCH   5   6
ENDBRANCH   1   5
BRANCH   2  18
HETATM   18  C   UNL     1      41.695 -14.583   1.520  1.00  0.00     0.035 A 
HETATM   19  C   UNL     1      41.984 -13.553   0.620  1.00  0.00     0.042 A 
HETATM   20  C   UNL     1      41.828 -13.741  -0.765  1.00  0.00    -0.021 A 
HETATM   21  C   UNL     1      41.388 -14.988  -1.235  1.00  0.00     0.012 A 
HETATM   22  C   UNL     1      41.099 -16.019  -0.344  1.00  0.00     0.003 A 
HETATM   23  C   UNL     1      41.246 -15.813   1.026  1.00  0.00     0.029 A 
BRANCH  20  24
HETATM   24  C   UNL     1      42.097 -12.668  -1.712  1.00  0.00     0.010 A 
HETATM   25  C   UNL     1      41.868 -12.586  -3.108  1.00  0.00     0.152 A 
HETATM   26  N   UNL     1      42.263 -11.422  -3.634  1.00  0.00    -0.187 NA
HETATM   27  N   UNL     1      42.742 -10.751  -2.574  1.00  0.00    -0.289 N 
HETATM   28  H   UNL     1      43.107  -9.816  -2.723  1.00  0.00     0.188 HD
HETATM   29  C   UNL     1      42.669 -11.451  -1.407  1.00  0.00     0.123 A 
ENDBRANCH  20  24
ENDBRANCH   2  18
TORSDOF 6
ENDMDL
MODEL 10
REMARK VINA RESULT:      -8.4      4.081      6.648
REMARK  6 active torsions:
REMARK  status: ('A' for Active; 'I' for Inactive)
REMARK    1  A    between atoms: C_2  and  N_3 
REMARK    2  A    between atoms: C_2  and  C_12 
REMARK       I    between atoms: N_3  and  C_4 
REMARK    3  A    between atoms: C_4  and  C_5 
REMARK    4  A    between atoms: C_12  and  C_13 
REMARK       I    between atoms: C_13  and  N_14 
REMARK    5  A    between atoms: N_14  and  C_15 
REMARK    6  A    between atoms: C_17  and  C_18 
ROOT
HETATM    1  C   UNL     1      41.548 -16.112   5.056  1.00  0.00     0.224 C 
HETATM    2  N   UNL     1      42.780 -16.191   4.443  1.00  0.00    -0.327 N 
HETATM    3  O   UNL     1      40.620 -16.908   4.948  1.00  0.00    -0.273 OA
HETATM    4  H   UNL     1      43.455 -15.470   4.714  1.00  0.00     0.169 HD
ENDROOT
BRANCH   1   5
HETATM    5  C   UNL     1      41.423 -14.898   5.963  1.00  0.00     0.128 C 
BRANCH   5   6
HETATM    6  C   UNL     1      40.846 -13.706   5.180  1.00  0.00     0.089 C 
HETATM    7  C   UNL     1      39.812 -12.972   6.040  1.00  0.00     0.032 C 
BRANCH   6   8
HETATM    8  N   UNL     1      40.221 -14.062   3.898  1.00  0.00    -0.352 N 
HETATM    9  C   UNL     1      40.798 -13.803   2.671  1.00  0.00     0.252 C 
HETATM   10  O   UNL     1      41.993 -13.576   2.511  1.00  0.00    -0.268 OA
HETATM   11  H   UNL     1      39.228 -14.253   3.915  1.00  0.00     0.163 HD
BRANCH   9  12
HETATM   12  C   UNL     1      39.893 -13.812   1.492  1.00  0.00     0.032 A 
HETATM   13  C   UNL     1      40.392 -13.771   0.183  1.00  0.00     0.017 A 
HETATM   14  C   UNL     1      39.511 -13.845  -0.899  1.00  0.00     0.001 A 
HETATM   15  C   UNL     1      38.140 -13.966  -0.677  1.00  0.00     0.000 A 
HETATM   16  C   UNL     1      37.642 -14.019   0.625  1.00  0.00     0.001 A 
HETATM   17  C   UNL     1      38.518 -13.949   1.709  1.00  0.00     0.017 A 
ENDBRANCH   9  12
ENDBRANCH   6   8
ENDBRANCH   5   6
ENDBRANCH   1   5
BRANCH   2  18
HETATM   18  C   UNL     1      43.266 -17.165   3.551  1.00  0.00     0.035 A 
HETATM   19  C   UNL     1      43.554 -18.486   3.904  1.00  0.00     0.042 A 
HETATM   20  C   UNL     1      44.046 -19.396   2.951  1.00  0.00    -0.021 A 
HETATM   21  C   UNL     1      44.233 -18.961   1.631  1.00  0.00     0.012 A 
HETATM   22  C   UNL     1      43.947 -17.645   1.271  1.00  0.00     0.003 A 
HETATM   23  C   UNL     1      43.473 -16.752   2.229  1.00  0.00     0.029 A 
BRANCH  20  24
HETATM   24  C   UNL     1      44.378 -20.767   3.313  1.00  0.00     0.010 A 
HETATM   25  C   UNL     1      44.370 -21.955   2.541  1.00  0.00     0.152 A 
HETATM   26  N   UNL     1      44.736 -23.034   3.241  1.00  0.00    -0.187 NA
HETATM   27  N   UNL     1      44.986 -22.539   4.464  1.00  0.00    -0.289 N 
HETATM   28  H   UNL     1      45.290 -23.181   5.188  1.00  0.00     0.188 HD
HETATM   29  C   UNL     1      44.784 -21.194   4.559  1.00  0.00     0.123 A 
ENDBRANCH  20  24
ENDBRANCH   2  18
TORSDOF 6
ENDMDL
