MODEL 1
REMARK VINA RESULT:      -9.6      0.000      0.000
REMARK  8 active torsions:
REMARK  status: ('A' for Active; 'I' for Inactive)
REMARK    1  A    between atoms: C_4  and  O_5 
REMARK    2  A    between atoms: O_5  and  C_6 
REMARK    3  A    between atoms: C_8  and  C_9 
REMARK    4  A    between atoms: C_9  and  N_10 
REMARK    5  A    between atoms: C_9  and  C_14 
REMARK       I    between atoms: N_10  and  C_11 
REMARK       I    between atoms: C_11  and  N_12 
REMARK    6  A    between atoms: C_14  and  C_15 
REMARK       I    between atoms: C_15  and  N_16 
REMARK    7  A    between atoms: N_16  and  N_17 
REMARK       I    between atoms: N_17  and  C_18 
REMARK    8  A    between atoms: C_18  and  C_19 
ROOT
HETATM    1  C   UNL     1      42.992 -15.276   5.890  1.00  0.00     0.127 C 
ENDROOT
BRANCH   1   2
HETATM    2  C   UNL     1      43.363 -16.706   6.271  1.00  0.00    -0.032 A 
HETATM    3  C   UNL     1      44.145 -17.507   5.417  1.00  0.00     0.046 A 
HETATM    4  C   UNL     1      44.543 -18.794   5.790  1.00  0.00     0.076 A 
HETATM    5  C   UNL     1      44.210 -19.296   7.045  1.00  0.00     0.037 A 
HETATM    6  C   UNL     1      43.454 -18.515   7.914  1.00  0.00     0.003 A 
HETATM    7  C   UNL     1      43.044 -17.231   7.535  1.00  0.00     0.009 A 
BRANCH   4   8
HETATM    8  O   UNL     1      45.347 -19.471   4.900  1.00  0.00    -0.311 OA
BRANCH   8   9
HETATM    9  C   UNL     1      44.740 -20.193   3.898  1.00  0.00     0.076 A 
HETATM   10  C   UNL     1      44.029 -19.602   2.851  1.00  0.00     0.037 A 
HETATM   11  C   UNL     1      43.478 -20.402   1.849  1.00  0.00     0.003 A 
HETATM   12  C   UNL     1      43.656 -21.786   1.881  1.00  0.00     0.000 A 
HETATM   13  C   UNL     1      44.390 -22.372   2.912  1.00  0.00     0.003 A 
HETATM   14  C   UNL     1      44.938 -21.575   3.917  1.00  0.00     0.037 A 
ENDBRANCH   8   9
ENDBRANCH   4   8
ENDBRANCH   1   2
BRANCH   1  15
HETATM   15  N   UNL     1      41.588 -14.909   6.123  1.00  0.00    -0.339 N 
HETATM   16  C   UNL     1      40.598 -15.034   5.208  1.00  0.00     0.292 C 
HETATM   17  N   UNL     1      39.398 -14.613   5.668  1.00  0.00    -0.254 NA
HETATM   18  O   UNL     1      40.728 -15.482   4.082  1.00  0.00    -0.254 OA
HETATM   19  H   UNL     1      39.176 -14.846   6.625  1.00  0.00     0.128 HD
HETATM   20  H   UNL     1      38.647 -14.810   5.016  1.00  0.00     0.128 HD
HETATM   21  H   UNL     1      41.423 -14.191   6.813  1.00  0.00     0.164 HD
ENDBRANCH   1  15
BRANCH   1  22
HETATM   22  C   UNL     1      43.965 -14.132   6.227  1.00  0.00     0.134 C 
BRANCH  22  23
HETATM   23  C   UNL     1      43.516 -12.977   7.102  1.00  0.00     0.238 C 
HETATM   24  N   UNL     1      44.143 -12.845   8.311  1.00  0.00    -0.267 N 
HETATM   25  H   UNL     1      45.071 -13.235   8.506  1.00  0.00     0.190 HD
HETATM   26  O   UNL     1      42.552 -12.278   6.777  1.00  0.00    -0.272 OA
BRANCH  24  27
HETATM   27  N   UNL     1      43.681 -11.888   9.216  1.00  0.00    -0.262 N 
HETATM   28  C   UNL     1      43.904 -12.087  10.564  1.00  0.00     0.288 C 
HETATM   29  O   UNL     1      44.612 -12.977  11.027  1.00  0.00    -0.264 OA
HETATM   30  H   UNL     1      42.967 -11.229   8.900  1.00  0.00     0.190 HD
BRANCH  28  31
HETATM   31  C   UNL     1      43.192 -11.124  11.456  1.00  0.00     0.125 A 
HETATM   32  N   UNL     1      41.832 -11.115  11.386  1.00  0.00    -0.255 NA
HETATM   33  C   UNL     1      41.197 -10.253  12.209  1.00  0.00     0.117 A 
HETATM   34  C   UNL     1      41.848  -9.398  13.087  1.00  0.00     0.019 A 
HETATM   35  C   UNL     1      43.239  -9.427  13.132  1.00  0.00     0.004 A 
HETATM   36  C   UNL     1      43.929 -10.307  12.306  1.00  0.00     0.037 A 
ENDBRANCH  28  31
ENDBRANCH  24  27
ENDBRANCH  22  23
ENDBRANCH   1  22
TORSDOF 8
ENDMDL
MODEL 2
REMARK VINA RESULT:      -9.4      2.203      2.694
REMARK  8 active torsions:
REMARK  status: ('A' for Active; 'I' for Inactive)
REMARK    1  A    between atoms: C_4  and  O_5 
REMARK    2  A    between atoms: O_5  and  C_6 
REMARK    3  A    between atoms: C_8  and  C_9 
REMARK    4  A    between atoms: C_9  and  N_10 
REMARK    5  A    between atoms: C_9  and  C_14 
REMARK       I    between atoms: N_10  and  C_11 
REMARK       I    between atoms: C_11  and  N_12 
REMARK    6  A    between atoms: C_14  and  C_15 
REMARK       I    between atoms: C_15  and  N_16 
REMARK    7  A    between atoms: N_16  and  N_17 
REMARK       I    between atoms: N_17  and  C_18 
REMARK    8  A    between atoms: C_18  and  C_19 
ROOT
HETATM    1  C   UNL     1      41.723 -13.063   5.133  1.00  0.00     0.127 C 
ENDROOT
BRANCH   1   2
HETATM    2  C   UNL     1      41.709 -14.576   5.325  1.00  0.00    -0.032 A 
HETATM    3  C   UNL     1      42.831 -15.362   5.001  1.00  0.00     0.046 A 
HETATM    4  C   UNL     1      42.847 -16.740   5.237  1.00  0.00     0.076 A 
HETATM    5  C   UNL     1      41.760 -17.361   5.846  1.00  0.00     0.037 A 
HETATM    6  C   UNL     1      40.647 -16.601   6.193  1.00  0.00     0.003 A 
HETATM    7  C   UNL     1      40.626 -15.223   5.945  1.00  0.00     0.009 A 
BRANCH   4   8
HETATM    8  O   UNL     1      44.013 -17.403   4.928  1.00  0.00    -0.311 OA
BRANCH   8   9
HETATM    9  C   UNL     1      43.952 -18.433   4.016  1.00  0.00     0.076 A 
HETATM   10  C   UNL     1      43.415 -18.291   2.735  1.00  0.00     0.037 A 
HETATM   11  C   UNL     1      43.428 -19.373   1.854  1.00  0.00     0.003 A 
HETATM   12  C   UNL     1      43.995 -20.587   2.245  1.00  0.00     0.000 A 
HETATM   13  C   UNL     1      44.556 -20.719   3.515  1.00  0.00     0.003 A 
HETATM   14  C   UNL     1      44.540 -19.640   4.399  1.00  0.00     0.037 A 
ENDBRANCH   8   9
ENDBRANCH   4   8
ENDBRANCH   1   2
BRANCH   1  15
HETATM   15  N   UNL     1      42.305 -12.597   3.866  1.00  0.00    -0.339 N 
HETATM   16  C   UNL     1      41.747 -12.787   2.648  1.00  0.00     0.292 C 
HETATM   17  N   UNL     1      42.490 -12.272   1.642  1.00  0.00    -0.254 NA
HETATM   18  O   UNL     1      40.685 -13.346   2.435  1.00  0.00    -0.254 OA
HETATM   19  H   UNL     1      42.928 -11.380   1.817  1.00  0.00     0.128 HD
HETATM   20  H   UNL     1      42.014 -12.324   0.748  1.00  0.00     0.128 HD
HETATM   21  H   UNL     1      43.309 -12.493   3.848  1.00  0.00     0.164 HD
ENDBRANCH   1  15
BRANCH   1  22
HETATM   22  C   UNL     1      40.493 -12.240   5.555  1.00  0.00     0.134 C 
BRANCH  22  23
HETATM   23  C   UNL     1      40.368 -11.724   6.976  1.00  0.00     0.238 C 
HETATM   24  N   UNL     1      41.534 -11.407   7.617  1.00  0.00    -0.267 N 
HETATM   25  H   UNL     1      42.403 -11.178   7.121  1.00  0.00     0.190 HD
HETATM   26  O   UNL     1      39.274 -11.713   7.548  1.00  0.00    -0.272 OA
BRANCH  24  27
HETATM   27  N   UNL     1      41.495 -11.058   8.968  1.00  0.00    -0.262 N 
HETATM   28  C   UNL     1      42.678 -10.742   9.607  1.00  0.00     0.288 C 
HETATM   29  O   UNL     1      43.757 -10.600   9.039  1.00  0.00    -0.264 OA
HETATM   30  H   UNL     1      40.666 -11.309   9.508  1.00  0.00     0.190 HD
BRANCH  28  31
HETATM   31  C   UNL     1      42.559 -10.592  11.087  1.00  0.00     0.125 A 
HETATM   32  N   UNL     1      41.489 -11.191  11.680  1.00  0.00    -0.255 NA
HETATM   33  C   UNL     1      41.399 -11.063  13.021  1.00  0.00     0.117 A 
HETATM   34  C   UNL     1      42.315 -10.365  13.795  1.00  0.00     0.019 A 
HETATM   35  C   UNL     1      43.396  -9.760  13.161  1.00  0.00     0.004 A 
HETATM   36  C   UNL     1      43.527  -9.875  11.782  1.00  0.00     0.037 A 
ENDBRANCH  28  31
ENDBRANCH  24  27
ENDBRANCH  22  23
ENDBRANCH   1  22
TORSDOF 8
ENDMDL
MODEL 3
REMARK VINA RESULT:      -9.4      4.195      7.767
REMARK  8 active torsions:
REMARK  status: ('A' for Active; 'I' for Inactive)
REMARK    1  A    between atoms: C_4  and  O_5 
REMARK    2  A    between atoms: O_5  and  C_6 
REMARK    3  A    between atoms: C_8  and  C_9 
REMARK    4  A    between atoms: C_9  and  N_10 
REMARK    5  A    between atoms: C_9  and  C_14 
REMARK       I    between atoms: N_10  and  C_11 
REMARK       I    between atoms: C_11  and  N_12 
REMARK    6  A    between atoms: C_14  and  C_15 
REMARK       I    between atoms: C_15  and  N_16 
REMARK    7  A    between atoms: N_16  and  N_17 
REMARK       I    between atoms: N_17  and  C_18 
REMARK    8  A    between atoms: C_18  and  C_19 
ROOT
HETATM    1  C   UNL     1      42.282 -15.426   5.281  1.00  0.00     0.127 C 
ENDROOT
BRANCH   1   2
HETATM    2  C   UNL     1      42.904 -16.668   5.911  1.00  0.00    -0.032 A 
HETATM    3  C   UNL     1      43.774 -17.498   5.180  1.00  0.00     0.046 A 
HETATM    4  C   UNL     1      44.398 -18.600   5.771  1.00  0.00     0.076 A 
HETATM    5  C   UNL     1      44.206 -18.873   7.123  1.00  0.00     0.037 A 
HETATM    6  C   UNL     1      43.366 -18.054   7.872  1.00  0.00     0.003 A 
HETATM    7  C   UNL     1      42.730 -16.959   7.276  1.00  0.00     0.009 A 
BRANCH   4   8
HETATM    8  O   UNL     1      45.267 -19.314   4.978  1.00  0.00    -0.311 OA
BRANCH   8   9
HETATM    9  C   UNL     1      44.737 -20.103   3.982  1.00  0.00     0.076 A 
HETATM   10  C   UNL     1      44.161 -19.584   2.821  1.00  0.00     0.037 A 
HETATM   11  C   UNL     1      43.683 -20.452   1.837  1.00  0.00     0.003 A 
HETATM   12  C   UNL     1      43.801 -21.833   2.005  1.00  0.00     0.000 A 
HETATM   13  C   UNL     1      44.402 -22.348   3.153  1.00  0.00     0.003 A 
HETATM   14  C   UNL     1      44.876 -21.483   4.138  1.00  0.00     0.037 A 
ENDBRANCH   8   9
ENDBRANCH   4   8
ENDBRANCH   1   2
BRANCH   1  15
HETATM   15  N   UNL     1      41.458 -14.610   6.183  1.00  0.00    -0.339 N 
HETATM   16  C   UNL     1      40.210 -14.169   5.898  1.00  0.00     0.292 C 
HETATM   17  N   UNL     1      39.673 -13.426   6.892  1.00  0.00    -0.254 NA
HETATM   18  O   UNL     1      39.595 -14.402   4.872  1.00  0.00    -0.254 OA
HETATM   19  H   UNL     1      39.849 -13.741   7.834  1.00  0.00     0.128 HD
HETATM   20  H   UNL     1      38.702 -13.191   6.714  1.00  0.00     0.128 HD
HETATM   21  H   UNL     1      41.957 -14.033   6.845  1.00  0.00     0.164 HD
ENDBRANCH   1  15
BRANCH   1  22
HETATM   22  C   UNL     1      43.123 -14.572   4.315  1.00  0.00     0.134 C 
BRANCH  22  23
HETATM   23  C   UNL     1      42.535 -14.101   2.999  1.00  0.00     0.238 C 
HETATM   24  N   UNL     1      41.482 -14.822   2.505  1.00  0.00    -0.267 N 
HETATM   25  H   UNL     1      40.880 -15.409   3.094  1.00  0.00     0.190 HD
HETATM   26  O   UNL     1      43.069 -13.188   2.361  1.00  0.00    -0.272 OA
BRANCH  24  27
HETATM   27  N   UNL     1      40.988 -14.523   1.235  1.00  0.00    -0.262 N 
HETATM   28  C   UNL     1      41.353 -15.327   0.174  1.00  0.00     0.288 C 
HETATM   29  O   UNL     1      41.968 -16.385   0.283  1.00  0.00    -0.264 OA
HETATM   30  H   UNL     1      40.612 -13.588   1.071  1.00  0.00     0.190 HD
BRANCH  28  31
HETATM   31  C   UNL     1      40.949 -14.804  -1.164  1.00  0.00     0.125 A 
HETATM   32  N   UNL     1      40.669 -13.474  -1.244  1.00  0.00    -0.255 NA
HETATM   33  C   UNL     1      40.321 -13.008  -2.462  1.00  0.00     0.117 A 
HETATM   34  C   UNL     1      40.230 -13.800  -3.598  1.00  0.00     0.019 A 
HETATM   35  C   UNL     1      40.517 -15.157  -3.484  1.00  0.00     0.004 A 
HETATM   36  C   UNL     1      40.886 -15.674  -2.248  1.00  0.00     0.037 A 
ENDBRANCH  28  31
ENDBRANCH  24  27
ENDBRANCH  22  23
ENDBRANCH   1  22
TORSDOF 8
ENDMDL
MODEL 4
REMARK VINA RESULT:      -9.3      2.089      2.726
REMARK  8 active torsions:
REMARK  status: ('A' for Active; 'I' for Inactive)
REMARK    1  A    between atoms: C_4  and  O_5 
REMARK    2  A    between atoms: O_5  and  C_6 
REMARK    3  A    between atoms: C_8  and  C_9 
REMARK    4  A    between atoms: C_9  and  N_10 
REMARK    5  A    between atoms: C_9  and  C_14 
REMARK       I    between atoms: N_10  and  C_11 
REMARK       I    between atoms: C_11  and  N_12 
REMARK    6  A    between atoms: C_14  and  C_15 
REMARK       I    between atoms: C_15  and  N_16 
REMARK    7  A    between atoms: N_16  and  N_17 
REMARK       I    between atoms: N_17  and  C_18 
REMARK    8  A    between atoms: C_18  and  C_19 
ROOT
HETATM    1  C   UNL     1      42.800 -14.121   5.932  1.00  0.00     0.127 C 
ENDROOT
BRANCH   1   2
HETATM    2  C   UNL     1      42.436 -15.479   5.340  1.00  0.00    -0.032 A 
HETATM    3  C   UNL     1      43.267 -16.107   4.393  1.00  0.00     0.046 A 
HETATM    4  C   UNL     1      42.972 -17.380   3.897  1.00  0.00     0.076 A 
HETATM    5  C   UNL     1      41.864 -18.079   4.370  1.00  0.00     0.037 A 
HETATM    6  C   UNL     1      41.039 -17.486   5.321  1.00  0.00     0.003 A 
HETATM    7  C   UNL     1      41.327 -16.206   5.808  1.00  0.00     0.009 A 
BRANCH   4   8
HETATM    8  O   UNL     1      43.877 -17.921   3.012  1.00  0.00    -0.311 OA
BRANCH   8   9
HETATM    9  C   UNL     1      43.999 -19.291   2.965  1.00  0.00     0.076 A 
HETATM   10  C   UNL     1      43.561 -20.062   1.886  1.00  0.00     0.037 A 
HETATM   11  C   UNL     1      43.760 -21.444   1.896  1.00  0.00     0.003 A 
HETATM   12  C   UNL     1      44.413 -22.050   2.971  1.00  0.00     0.000 A 
HETATM   13  C   UNL     1      44.874 -21.274   4.035  1.00  0.00     0.003 A 
HETATM   14  C   UNL     1      44.673 -19.894   4.029  1.00  0.00     0.037 A 
ENDBRANCH   8   9
ENDBRANCH   4   8
ENDBRANCH   1   2
BRANCH   1  15
HETATM   15  N   UNL     1      44.221 -13.758   5.840  1.00  0.00    -0.339 N 
HETATM   16  C   UNL     1      45.067 -13.692   6.895  1.00  0.00     0.292 C 
HETATM   17  N   UNL     1      46.320 -13.321   6.543  1.00  0.00    -0.254 NA
HETATM   18  O   UNL     1      44.777 -13.942   8.052  1.00  0.00    -0.254 OA
HETATM   19  H   UNL     1      46.679 -13.710   5.684  1.00  0.00     0.128 HD
HETATM   20  H   UNL     1      46.969 -13.378   7.320  1.00  0.00     0.128 HD
HETATM   21  H   UNL     1      44.481 -13.166   5.065  1.00  0.00     0.164 HD
ENDBRANCH   1  15
BRANCH   1  22
HETATM   22  C   UNL     1      41.867 -12.921   5.691  1.00  0.00     0.134 C 
BRANCH  22  23
HETATM   23  C   UNL     1      41.567 -11.946   6.813  1.00  0.00     0.238 C 
HETATM   24  N   UNL     1      42.546 -11.776   7.755  1.00  0.00    -0.267 N 
HETATM   25  H   UNL     1      43.535 -11.983   7.578  1.00  0.00     0.190 HD
HETATM   26  O   UNL     1      40.449 -11.435   6.922  1.00  0.00    -0.272 OA
BRANCH  24  27
HETATM   27  N   UNL     1      42.278 -10.999   8.882  1.00  0.00    -0.262 N 
HETATM   28  C   UNL     1      43.327 -10.631   9.700  1.00  0.00     0.288 C 
HETATM   29  O   UNL     1      44.512 -10.811   9.432  1.00  0.00    -0.264 OA
HETATM   30  H   UNL     1      41.316 -10.959   9.224  1.00  0.00     0.190 HD
BRANCH  28  31
HETATM   31  C   UNL     1      42.915  -9.988  10.982  1.00  0.00     0.125 A 
HETATM   32  N   UNL     1      41.696  -9.380  10.999  1.00  0.00    -0.255 NA
HETATM   33  C   UNL     1      41.325  -8.816  12.168  1.00  0.00     0.117 A 
HETATM   34  C   UNL     1      42.109  -8.821  13.314  1.00  0.00     0.019 A 
HETATM   35  C   UNL     1      43.351  -9.446  13.265  1.00  0.00     0.004 A 
HETATM   36  C   UNL     1      43.766 -10.045  12.081  1.00  0.00     0.037 A 
ENDBRANCH  28  31
ENDBRANCH  24  27
ENDBRANCH  22  23
ENDBRANCH   1  22
TORSDOF 8
ENDMDL
MODEL 5
REMARK VINA RESULT:      -9.2      1.620      2.507
REMARK  8 active torsions:
REMARK  status: ('A' for Active; 'I' for Inactive)
REMARK    1  A    between atoms: C_4  and  O_5 
REMARK    2  A    between atoms: O_5  and  C_6 
REMARK    3  A    between atoms: C_8  and  C_9 
REMARK    4  A    between atoms: C_9  and  N_10 
REMARK    5  A    between atoms: C_9  and  C_14 
REMARK       I    between atoms: N_10  and  C_11 
REMARK       I    between atoms: C_11  and  N_12 
REMARK    6  A    between atoms: C_14  and  C_15 
REMARK       I    between atoms: C_15  and  N_16 
REMARK    7  A    between atoms: N_16  and  N_17 
REMARK       I    between atoms: N_17  and  C_18 
REMARK    8  A    between atoms: C_18  and  C_19 
ROOT
HETATM    1  C   UNL     1      42.810 -15.293   5.862  1.00  0.00     0.127 C 
ENDROOT
BRANCH   1   2
HETATM    2  C   UNL     1      42.588 -16.162   4.628  1.00  0.00    -0.032 A 
HETATM    3  C   UNL     1      43.617 -16.977   4.117  1.00  0.00     0.046 A 
HETATM    4  C   UNL     1      43.401 -17.825   3.027  1.00  0.00     0.076 A 
HETATM    5  C   UNL     1      42.137 -17.917   2.450  1.00  0.00     0.037 A 
HETATM    6  C   UNL     1      41.099 -17.136   2.951  1.00  0.00     0.003 A 
HETATM    7  C   UNL     1      41.320 -16.277   4.034  1.00  0.00     0.009 A 
BRANCH   4   8
HETATM    8  O   UNL     1      44.461 -18.613   2.641  1.00  0.00    -0.311 OA
BRANCH   8   9
HETATM    9  C   UNL     1      44.471 -19.929   3.045  1.00  0.00     0.076 A 
HETATM   10  C   UNL     1      44.227 -20.998   2.180  1.00  0.00     0.037 A 
HETATM   11  C   UNL     1      44.298 -22.307   2.658  1.00  0.00     0.003 A 
HETATM   12  C   UNL     1      44.632 -22.548   3.991  1.00  0.00     0.000 A 
HETATM   13  C   UNL     1      44.904 -21.481   4.847  1.00  0.00     0.003 A 
HETATM   14  C   UNL     1      44.829 -20.171   4.372  1.00  0.00     0.037 A 
ENDBRANCH   8   9
ENDBRANCH   4   8
ENDBRANCH   1   2
BRANCH   1  15
HETATM   15  N   UNL     1      43.425 -15.975   7.009  1.00  0.00    -0.339 N 
HETATM   16  C   UNL     1      42.850 -16.987   7.700  1.00  0.00     0.292 C 
HETATM   17  N   UNL     1      43.620 -17.433   8.720  1.00  0.00    -0.254 NA
HETATM   18  O   UNL     1      41.763 -17.481   7.458  1.00  0.00    -0.254 OA
HETATM   19  H   UNL     1      44.610 -17.499   8.540  1.00  0.00     0.128 HD
HETATM   20  H   UNL     1      43.229 -18.258   9.162  1.00  0.00     0.128 HD
HETATM   21  H   UNL     1      44.092 -15.438   7.542  1.00  0.00     0.164 HD
ENDBRANCH   1  15
BRANCH   1  22
HETATM   22  C   UNL     1      43.327 -13.854   5.684  1.00  0.00     0.134 C 
BRANCH  22  23
HETATM   23  C   UNL     1      42.946 -12.775   6.679  1.00  0.00     0.238 C 
HETATM   24  N   UNL     1      43.716 -12.681   7.806  1.00  0.00    -0.267 N 
HETATM   25  H   UNL     1      44.677 -13.035   7.859  1.00  0.00     0.190 HD
HETATM   26  O   UNL     1      41.920 -12.106   6.521  1.00  0.00    -0.272 OA
BRANCH  24  27
HETATM   27  N   UNL     1      43.334 -11.802   8.820  1.00  0.00    -0.262 N 
HETATM   28  C   UNL     1      43.854 -11.981  10.086  1.00  0.00     0.288 C 
HETATM   29  O   UNL     1      44.751 -12.775  10.362  1.00  0.00    -0.264 OA
HETATM   30  H   UNL     1      42.493 -11.239   8.681  1.00  0.00     0.190 HD
BRANCH  28  31
HETATM   31  C   UNL     1      43.227 -11.129  11.139  1.00  0.00     0.125 A 
HETATM   32  N   UNL     1      41.865 -11.091  11.165  1.00  0.00    -0.255 NA
HETATM   33  C   UNL     1      41.308 -10.330  12.131  1.00  0.00     0.117 A 
HETATM   34  C   UNL     1      42.036  -9.603  13.062  1.00  0.00     0.019 A 
HETATM   35  C   UNL     1      43.425  -9.659  13.007  1.00  0.00     0.004 A 
HETATM   36  C   UNL     1      44.038 -10.436  12.031  1.00  0.00     0.037 A 
ENDBRANCH  28  31
ENDBRANCH  24  27
ENDBRANCH  22  23
ENDBRANCH   1  22
TORSDOF 8
ENDMDL
MODEL 6
REMARK VINA RESULT:      -8.9      4.200      7.330
REMARK  8 active torsions:
REMARK  status: ('A' for Active; 'I' for Inactive)
REMARK    1  A    between atoms: C_4  and  O_5 
REMARK    2  A    between atoms: O_5  and  C_6 
REMARK    3  A    between atoms: C_8  and  C_9 
REMARK    4  A    between atoms: C_9  and  N_10 
REMARK    5  A    between atoms: C_9  and  C_14 
REMARK       I    between atoms: N_10  and  C_11 
REMARK       I    between atoms: C_11  and  N_12 
REMARK    6  A    between atoms: C_14  and  C_15 
REMARK       I    between atoms: C_15  and  N_16 
REMARK    7  A    between atoms: N_16  and  N_17 
REMARK       I    between atoms: N_17  and  C_18 
REMARK    8  A    between atoms: C_18  and  C_19 
ROOT
HETATM    1  C   UNL     1      42.091 -15.343   5.521  1.00  0.00     0.127 C 
ENDROOT
BRANCH   1   2
HETATM    2  C   UNL     1      42.104 -16.226   4.277  1.00  0.00    -0.032 A 
HETATM    3  C   UNL     1      43.246 -16.971   3.925  1.00  0.00     0.046 A 
HETATM    4  C   UNL     1      43.242 -17.832   2.824  1.00  0.00     0.076 A 
HETATM    5  C   UNL     1      42.082 -18.007   2.073  1.00  0.00     0.037 A 
HETATM    6  C   UNL     1      40.936 -17.296   2.414  1.00  0.00     0.003 A 
HETATM    7  C   UNL     1      40.944 -16.424   3.510  1.00  0.00     0.009 A 
BRANCH   4   8
HETATM    8  O   UNL     1      44.396 -18.549   2.599  1.00  0.00    -0.311 OA
BRANCH   8   9
HETATM    9  C   UNL     1      44.420 -19.873   2.975  1.00  0.00     0.076 A 
HETATM   10  C   UNL     1      44.159 -20.924   2.093  1.00  0.00     0.037 A 
HETATM   11  C   UNL     1      44.244 -22.243   2.541  1.00  0.00     0.003 A 
HETATM   12  C   UNL     1      44.610 -22.510   3.862  1.00  0.00     0.000 A 
HETATM   13  C   UNL     1      44.898 -21.460   4.734  1.00  0.00     0.003 A 
HETATM   14  C   UNL     1      44.809 -20.142   4.288  1.00  0.00     0.037 A 
ENDBRANCH   8   9
ENDBRANCH   4   8
ENDBRANCH   1   2
BRANCH   1  15
HETATM   15  N   UNL     1      42.339 -16.043   6.789  1.00  0.00    -0.339 N 
HETATM   16  C   UNL     1      43.564 -16.240   7.331  1.00  0.00     0.292 C 
HETATM   17  N   UNL     1      43.520 -16.924   8.498  1.00  0.00    -0.254 NA
HETATM   18  O   UNL     1      44.618 -15.853   6.858  1.00  0.00    -0.254 OA
HETATM   19  H   UNL     1      42.768 -16.690   9.127  1.00  0.00     0.128 HD
HETATM   20  H   UNL     1      44.428 -16.973   8.947  1.00  0.00     0.128 HD
HETATM   21  H   UNL     1      41.652 -16.730   7.062  1.00  0.00     0.164 HD
ENDBRANCH   1  15
BRANCH   1  22
HETATM   22  C   UNL     1      42.763 -13.959   5.468  1.00  0.00     0.134 C 
BRANCH  22  23
HETATM   23  C   UNL     1      43.048 -13.297   4.134  1.00  0.00     0.238 C 
HETATM   24  N   UNL     1      42.036 -12.552   3.591  1.00  0.00    -0.267 N 
HETATM   25  H   UNL     1      41.273 -12.153   4.149  1.00  0.00     0.190 HD
HETATM   26  O   UNL     1      44.099 -13.527   3.528  1.00  0.00    -0.272 OA
BRANCH  24  27
HETATM   27  N   UNL     1      42.188 -12.032   2.306  1.00  0.00    -0.262 N 
HETATM   28  C   UNL     1      41.686 -12.746   1.236  1.00  0.00     0.288 C 
HETATM   29  O   UNL     1      40.978 -13.744   1.340  1.00  0.00    -0.264 OA
HETATM   30  H   UNL     1      42.890 -11.304   2.159  1.00  0.00     0.190 HD
BRANCH  28  31
HETATM   31  C   UNL     1      42.082 -12.216  -0.101  1.00  0.00     0.125 A 
HETATM   32  N   UNL     1      42.851 -11.091  -0.112  1.00  0.00    -0.255 NA
HETATM   33  C   UNL     1      43.218 -10.630  -1.326  1.00  0.00     0.117 A 
HETATM   34  C   UNL     1      42.852 -11.226  -2.525  1.00  0.00     0.019 A 
HETATM   35  C   UNL     1      42.063 -12.372  -2.482  1.00  0.00     0.004 A 
HETATM   36  C   UNL     1      41.670 -12.882  -1.251  1.00  0.00     0.037 A 
ENDBRANCH  28  31
ENDBRANCH  24  27
ENDBRANCH  22  23
ENDBRANCH   1  22
TORSDOF 8
ENDMDL
MODEL 7
REMARK VINA RESULT:      -8.8      2.812      4.338
REMARK  8 active torsions:
REMARK  status: ('A' for Active; 'I' for Inactive)
REMARK    1  A    between atoms: C_4  and  O_5 
REMARK    2  A    between atoms: O_5  and  C_6 
REMARK    3  A    between atoms: C_8  and  C_9 
REMARK    4  A    between atoms: C_9  and  N_10 
REMARK    5  A    between atoms: C_9  and  C_14 
REMARK       I    between atoms: N_10  and  C_11 
REMARK       I    between atoms: C_11  and  N_12 
REMARK    6  A    between atoms: C_14  and  C_15 
REMARK       I    between atoms: C_15  and  N_16 
REMARK    7  A    between atoms: N_16  and  N_17 
REMARK       I    between atoms: N_17  and  C_18 
REMARK    8  A    between atoms: C_18  and  C_19 
ROOT
HETATM    1  C   UNL     1      43.992 -17.488   5.912  1.00  0.00     0.127 C 
ENDROOT
BRANCH   1   2
HETATM    2  C   UNL     1      43.854 -18.218   4.580  1.00  0.00    -0.032 A 
HETATM    3  C   UNL     1      43.453 -17.537   3.414  1.00  0.00     0.046 A 
HETATM    4  C   UNL     1      43.389 -18.186   2.178  1.00  0.00     0.076 A 
HETATM    5  C   UNL     1      43.769 -19.521   2.065  1.00  0.00     0.037 A 
HETATM    6  C   UNL     1      44.187 -20.210   3.200  1.00  0.00     0.003 A 
HETATM    7  C   UNL     1      44.239 -19.563   4.441  1.00  0.00     0.009 A 
BRANCH   4   8
HETATM    8  O   UNL     1      43.032 -17.414   1.096  1.00  0.00    -0.311 OA
BRANCH   8   9
HETATM    9  C   UNL     1      41.964 -16.557   1.234  1.00  0.00     0.076 A 
HETATM   10  C   UNL     1      41.967 -15.246   0.754  1.00  0.00     0.037 A 
HETATM   11  C   UNL     1      40.827 -14.453   0.896  1.00  0.00     0.003 A 
HETATM   12  C   UNL     1      39.681 -14.976   1.498  1.00  0.00     0.000 A 
HETATM   13  C   UNL     1      39.671 -16.295   1.952  1.00  0.00     0.003 A 
HETATM   14  C   UNL     1      40.810 -17.087   1.814  1.00  0.00     0.037 A 
ENDBRANCH   8   9
ENDBRANCH   4   8
ENDBRANCH   1   2
BRANCH   1  15
HETATM   15  N   UNL     1      44.291 -18.344   7.068  1.00  0.00    -0.339 N 
HETATM   16  C   UNL     1      43.955 -18.054   8.347  1.00  0.00     0.292 C 
HETATM   17  N   UNL     1      44.358 -19.001   9.226  1.00  0.00    -0.254 NA
HETATM   18  O   UNL     1      43.347 -17.063   8.711  1.00  0.00    -0.254 OA
HETATM   19  H   UNL     1      44.263 -19.960   8.928  1.00  0.00     0.128 HD
HETATM   20  H   UNL     1      44.009 -18.827  10.162  1.00  0.00     0.128 HD
HETATM   21  H   UNL     1      45.095 -18.948   6.980  1.00  0.00     0.164 HD
ENDBRANCH   1  15
BRANCH   1  22
HETATM   22  C   UNL     1      44.746 -16.147   5.959  1.00  0.00     0.134 C 
BRANCH  22  23
HETATM   23  C   UNL     1      44.074 -14.911   6.527  1.00  0.00     0.238 C 
HETATM   24  N   UNL     1      44.747 -14.249   7.518  1.00  0.00    -0.267 N 
HETATM   25  H   UNL     1      45.761 -14.324   7.654  1.00  0.00     0.190 HD
HETATM   26  O   UNL     1      42.929 -14.604   6.186  1.00  0.00    -0.272 OA
BRANCH  24  27
HETATM   27  N   UNL     1      44.121 -13.188   8.173  1.00  0.00    -0.262 N 
HETATM   28  C   UNL     1      44.904 -12.250   8.816  1.00  0.00     0.288 C 
HETATM   29  O   UNL     1      46.128 -12.194   8.734  1.00  0.00    -0.264 OA
HETATM   30  H   UNL     1      43.129 -13.276   8.398  1.00  0.00     0.190 HD
BRANCH  28  31
HETATM   31  C   UNL     1      44.142 -11.282   9.659  1.00  0.00     0.125 A 
HETATM   32  N   UNL     1      43.046 -10.705   9.092  1.00  0.00    -0.255 NA
HETATM   33  C   UNL     1      42.354  -9.844   9.868  1.00  0.00     0.117 A 
HETATM   34  C   UNL     1      42.703  -9.525  11.172  1.00  0.00     0.019 A 
HETATM   35  C   UNL     1      43.830 -10.127  11.724  1.00  0.00     0.004 A 
HETATM   36  C   UNL     1      44.565 -11.025  10.959  1.00  0.00     0.037 A 
ENDBRANCH  28  31
ENDBRANCH  24  27
ENDBRANCH  22  23
ENDBRANCH   1  22
TORSDOF 8
ENDMDL
MODEL 8
REMARK VINA RESULT:      -8.8      3.844      7.905
REMARK  8 active torsions:
REMARK  status: ('A' for Active; 'I' for Inactive)
REMARK    1  A    between atoms: C_4  and  O_5 
REMARK    2  A    between atoms: O_5  and  C_6 
REMARK    3  A    between atoms: C_8  and  C_9 
REMARK    4  A    between atoms: C_9  and  N_10 
REMARK    5  A    between atoms: C_9  and  C_14 
REMARK       I    between atoms: N_10  and  C_11 
REMARK       I    between atoms: C_11  and  N_12 
REMARK    6  A    between atoms: C_14  and  C_15 
REMARK       I    between atoms: C_15  and  N_16 
REMARK    7  A    between atoms: N_16  and  N_17 
REMARK       I    between atoms: N_17  and  C_18 
REMARK    8  A    between atoms: C_18  and  C_19 
ROOT
HETATM    1  C   UNL     1      42.911 -14.242   5.675  1.00  0.00     0.127 C 
ENDROOT
BRANCH   1   2
HETATM    2  C   UNL     1      42.667 -15.734   5.467  1.00  0.00    -0.032 A 
HETATM    3  C   UNL     1      43.724 -16.607   5.147  1.00  0.00     0.046 A 
HETATM    4  C   UNL     1      43.517 -17.984   5.021  1.00  0.00     0.076 A 
HETATM    5  C   UNL     1      42.258 -18.530   5.258  1.00  0.00     0.037 A 
HETATM    6  C   UNL     1      41.203 -17.688   5.595  1.00  0.00     0.003 A 
HETATM    7  C   UNL     1      41.407 -16.308   5.709  1.00  0.00     0.009 A 
BRANCH   4   8
HETATM    8  O   UNL     1      44.629 -18.751   4.754  1.00  0.00    -0.311 OA
BRANCH   8   9
HETATM    9  C   UNL     1      44.487 -19.826   3.906  1.00  0.00     0.076 A 
HETATM   10  C   UNL     1      44.789 -21.138   4.277  1.00  0.00     0.037 A 
HETATM   11  C   UNL     1      44.577 -22.180   3.372  1.00  0.00     0.003 A 
HETATM   12  C   UNL     1      44.046 -21.913   2.109  1.00  0.00     0.000 A 
HETATM   13  C   UNL     1      43.719 -20.605   1.751  1.00  0.00     0.003 A 
HETATM   14  C   UNL     1      43.934 -19.562   2.652  1.00  0.00     0.037 A 
ENDBRANCH   8   9
ENDBRANCH   4   8
ENDBRANCH   1   2
BRANCH   1  15
HETATM   15  N   UNL     1      44.323 -13.844   5.759  1.00  0.00    -0.339 N 
HETATM   16  C   UNL     1      45.024 -13.735   6.912  1.00  0.00     0.292 C 
HETATM   17  N   UNL     1      46.302 -13.338   6.716  1.00  0.00    -0.254 NA
HETATM   18  O   UNL     1      44.592 -13.969   8.027  1.00  0.00    -0.254 OA
HETATM   19  H   UNL     1      46.779 -13.734   5.920  1.00  0.00     0.128 HD
HETATM   20  H   UNL     1      46.846 -13.362   7.572  1.00  0.00     0.128 HD
HETATM   21  H   UNL     1      44.667 -13.260   5.010  1.00  0.00     0.164 HD
ENDBRANCH   1  15
BRANCH   1  22
HETATM   22  C   UNL     1      42.056 -13.225   4.898  1.00  0.00     0.134 C 
BRANCH  22  23
HETATM   23  C   UNL     1      42.142 -13.148   3.386  1.00  0.00     0.238 C 
HETATM   24  N   UNL     1      40.955 -13.098   2.706  1.00  0.00    -0.267 N 
HETATM   25  H   UNL     1      40.078 -12.778   3.133  1.00  0.00     0.190 HD
HETATM   26  O   UNL     1      43.229 -13.250   2.811  1.00  0.00    -0.272 OA
BRANCH  24  27
HETATM   27  N   UNL     1      40.966 -13.164   1.313  1.00  0.00    -0.262 N 
HETATM   28  C   UNL     1      40.855 -14.399   0.705  1.00  0.00     0.288 C 
HETATM   29  O   UNL     1      40.599 -15.444   1.298  1.00  0.00    -0.264 OA
HETATM   30  H   UNL     1      41.326 -12.362   0.793  1.00  0.00     0.190 HD
BRANCH  28  31
HETATM   31  C   UNL     1      41.089 -14.385  -0.769  1.00  0.00     0.125 A 
HETATM   32  N   UNL     1      41.546 -13.220  -1.307  1.00  0.00    -0.255 NA
HETATM   33  C   UNL     1      41.770 -13.224  -2.638  1.00  0.00     0.117 A 
HETATM   34  C   UNL     1      41.554 -14.323  -3.457  1.00  0.00     0.019 A 
HETATM   35  C   UNL     1      41.083 -15.498  -2.879  1.00  0.00     0.004 A 
HETATM   36  C   UNL     1      40.847 -15.537  -1.510  1.00  0.00     0.037 A 
ENDBRANCH  28  31
ENDBRANCH  24  27
ENDBRANCH  22  23
ENDBRANCH   1  22
TORSDOF 8
ENDMDL
MODEL 9
REMARK VINA RESULT:      -8.8      2.153      2.635
REMARK  8 active torsions:
REMARK  status: ('A' for Active; 'I' for Inactive)
REMARK    1  A    between atoms: C_4  and  O_5 
REMARK    2  A    between atoms: O_5  and  C_6 
REMARK    3  A    between atoms: C_8  and  C_9 
REMARK    4  A    between atoms: C_9  and  N_10 
REMARK    5  A    between atoms: C_9  and  C_14 
REMARK       I    between atoms: N_10  and  C_11 
REMARK       I    between atoms: C_11  and  N_12 
REMARK    6  A    between atoms: C_14  and  C_15 
REMARK       I    between atoms: C_15  and  N_16 
REMARK    7  A    between atoms: N_16  and  N_17 
REMARK       I    between atoms: N_17  and  C_18 
REMARK    8  A    between atoms: C_18  and  C_19 
ROOT
HETATM    1  C   UNL     1      41.850 -15.253   4.256  1.00  0.00     0.127 C 
ENDROOT
BRANCH   1   2
HETATM    2  C   UNL     1      42.360 -16.378   5.151  1.00  0.00    -0.032 A 
HETATM    3  C   UNL     1      43.421 -17.208   4.744  1.00  0.00     0.046 A 
HETATM    4  C   UNL     1      43.937 -18.198   5.586  1.00  0.00     0.076 A 
HETATM    5  C   UNL     1      43.437 -18.351   6.877  1.00  0.00     0.037 A 
HETATM    6  C   UNL     1      42.401 -17.528   7.309  1.00  0.00     0.003 A 
HETATM    7  C   UNL     1      41.876 -16.546   6.460  1.00  0.00     0.009 A 
BRANCH   4   8
HETATM    8  O   UNL     1      45.006 -18.919   5.106  1.00  0.00    -0.311 OA
BRANCH   8   9
HETATM    9  C   UNL     1      44.746 -20.028   4.333  1.00  0.00     0.076 A 
HETATM   10  C   UNL     1      44.420 -19.957   2.977  1.00  0.00     0.037 A 
HETATM   11  C   UNL     1      44.211 -21.131   2.251  1.00  0.00     0.003 A 
HETATM   12  C   UNL     1      44.348 -22.372   2.875  1.00  0.00     0.000 A 
HETATM   13  C   UNL     1      44.701 -22.442   4.222  1.00  0.00     0.003 A 
HETATM   14  C   UNL     1      44.906 -21.270   4.950  1.00  0.00     0.037 A 
ENDBRANCH   8   9
ENDBRANCH   4   8
ENDBRANCH   1   2
BRANCH   1  15
HETATM   15  N   UNL     1      40.519 -15.472   3.671  1.00  0.00    -0.339 N 
HETATM   16  C   UNL     1      40.297 -15.882   2.400  1.00  0.00     0.292 C 
HETATM   17  N   UNL     1      38.981 -15.994   2.106  1.00  0.00    -0.254 NA
HETATM   18  O   UNL     1      41.159 -16.142   1.579  1.00  0.00    -0.254 OA
HETATM   19  H   UNL     1      38.390 -16.379   2.827  1.00  0.00     0.128 HD
HETATM   20  H   UNL     1      38.827 -16.401   1.190  1.00  0.00     0.128 HD
HETATM   21  H   UNL     1      39.763 -14.937   4.071  1.00  0.00     0.164 HD
ENDBRANCH   1  15
BRANCH   1  22
HETATM   22  C   UNL     1      42.073 -13.792   4.684  1.00  0.00     0.134 C 
BRANCH  22  23
HETATM   23  C   UNL     1      41.150 -13.140   5.696  1.00  0.00     0.238 C 
HETATM   24  N   UNL     1      41.600 -11.990   6.285  1.00  0.00    -0.267 N 
HETATM   25  H   UNL     1      42.319 -11.390   5.865  1.00  0.00     0.190 HD
HETATM   26  O   UNL     1      40.105 -13.696   6.045  1.00  0.00    -0.272 OA
BRANCH  24  27
HETATM   27  N   UNL     1      40.859 -11.420   7.320  1.00  0.00    -0.262 N 
HETATM   28  C   UNL     1      41.529 -10.778   8.342  1.00  0.00     0.288 C 
HETATM   29  O   UNL     1      42.734 -10.539   8.340  1.00  0.00    -0.264 OA
HETATM   30  H   UNL     1      39.891 -11.723   7.445  1.00  0.00     0.190 HD
BRANCH  28  31
HETATM   31  C   UNL     1      40.668 -10.392   9.499  1.00  0.00     0.125 A 
HETATM   32  N   UNL     1      41.188 -10.586  10.743  1.00  0.00    -0.255 NA
HETATM   33  C   UNL     1      40.408 -10.218  11.781  1.00  0.00     0.117 A 
HETATM   34  C   UNL     1      39.138  -9.676  11.642  1.00  0.00     0.019 A 
HETATM   35  C   UNL     1      38.631  -9.495  10.359  1.00  0.00     0.004 A 
HETATM   36  C   UNL     1      39.407  -9.854   9.263  1.00  0.00     0.037 A 
ENDBRANCH  28  31
ENDBRANCH  24  27
ENDBRANCH  22  23
ENDBRANCH   1  22
TORSDOF 8
ENDMDL
MODEL 10
REMARK VINA RESULT:      -8.7      2.229      9.896
REMARK  8 active torsions:
REMARK  status: ('A' for Active; 'I' for Inactive)
REMARK    1  A    between atoms: C_4  and  O_5 
REMARK    2  A    between atoms: O_5  and  C_6 
REMARK    3  A    between atoms: C_8  and  C_9 
REMARK    4  A    between atoms: C_9  and  N_10 
REMARK    5  A    between atoms: C_9  and  C_14 
REMARK       I    between atoms: N_10  and  C_11 
REMARK       I    between atoms: C_11  and  N_12 
REMARK    6  A    between atoms: C_14  and  C_15 
REMARK       I    between atoms: C_15  and  N_16 
REMARK    7  A    between atoms: N_16  and  N_17 
REMARK       I    between atoms: N_17  and  C_18 
REMARK    8  A    between atoms: C_18  and  C_19 
ROOT
HETATM    1  C   UNL     1      42.893 -13.785   6.048  1.00  0.00     0.127 C 
ENDROOT
BRANCH   1   2
HETATM    2  C   UNL     1      43.722 -13.045   7.092  1.00  0.00    -0.032 A 
HETATM    3  C   UNL     1      43.186 -11.963   7.815  1.00  0.00     0.046 A 
HETATM    4  C   UNL     1      43.918 -11.323   8.819  1.00  0.00     0.076 A 
HETATM    5  C   UNL     1      45.189 -11.779   9.159  1.00  0.00     0.037 A 
HETATM    6  C   UNL     1      45.733 -12.860   8.472  1.00  0.00     0.003 A 
HETATM    7  C   UNL     1      45.004 -13.492   7.457  1.00  0.00     0.009 A 
BRANCH   4   8
HETATM    8  O   UNL     1      43.279 -10.309   9.496  1.00  0.00    -0.311 OA
BRANCH   8   9
HETATM    9  C   UNL     1      42.728 -10.595  10.724  1.00  0.00     0.076 A 
HETATM   10  C   UNL     1      43.442 -10.514  11.921  1.00  0.00     0.037 A 
HETATM   11  C   UNL     1      42.800 -10.781  13.132  1.00  0.00     0.003 A 
HETATM   12  C   UNL     1      41.442 -11.107  13.146  1.00  0.00     0.000 A 
HETATM   13  C   UNL     1      40.724 -11.160  11.952  1.00  0.00     0.003 A 
HETATM   14  C   UNL     1      41.366 -10.898  10.741  1.00  0.00     0.037 A 
ENDBRANCH   8   9
ENDBRANCH   4   8
ENDBRANCH   1   2
BRANCH   1  15
HETATM   15  N   UNL     1      41.465 -13.438   6.019  1.00  0.00    -0.339 N 
HETATM   16  C   UNL     1      40.455 -14.337   6.058  1.00  0.00     0.292 C 
HETATM   17  N   UNL     1      39.232 -13.759   6.006  1.00  0.00    -0.254 NA
HETATM   18  O   UNL     1      40.585 -15.546   6.142  1.00  0.00    -0.254 OA
HETATM   19  H   UNL     1      39.115 -12.907   6.533  1.00  0.00     0.128 HD
HETATM   20  H   UNL     1      38.484 -14.431   6.143  1.00  0.00     0.128 HD
HETATM   21  H   UNL     1      41.227 -12.568   5.565  1.00  0.00     0.164 HD
ENDBRANCH   1  15
BRANCH   1  22
HETATM   22  C   UNL     1      43.476 -14.002   4.640  1.00  0.00     0.134 C 
BRANCH  22  23
HETATM   23  C   UNL     1      43.366 -15.355   3.965  1.00  0.00     0.238 C 
HETATM   24  N   UNL     1      43.138 -16.430   4.780  1.00  0.00    -0.267 N 
HETATM   25  H   UNL     1      42.719 -16.346   5.713  1.00  0.00     0.190 HD
HETATM   26  O   UNL     1      43.592 -15.477   2.757  1.00  0.00    -0.272 OA
BRANCH  24  27
HETATM   27  N   UNL     1      43.163 -17.715   4.236  1.00  0.00    -0.262 N 
HETATM   28  C   UNL     1      44.161 -18.583   4.629  1.00  0.00     0.288 C 
HETATM   29  O   UNL     1      44.955 -18.362   5.540  1.00  0.00    -0.264 OA
HETATM   30  H   UNL     1      42.633 -17.887   3.380  1.00  0.00     0.190 HD
BRANCH  28  31
HETATM   31  C   UNL     1      44.226 -19.848   3.839  1.00  0.00     0.125 A 
HETATM   32  N   UNL     1      44.707 -20.948   4.481  1.00  0.00    -0.255 NA
HETATM   33  C   UNL     1      44.746 -22.091   3.763  1.00  0.00     0.117 A 
HETATM   34  C   UNL     1      44.338 -22.188   2.440  1.00  0.00     0.019 A 
HETATM   35  C   UNL     1      43.855 -21.046   1.809  1.00  0.00     0.004 A 
HETATM   36  C   UNL     1      43.793 -19.851   2.517  1.00  0.00     0.037 A 
ENDBRANCH  28  31
ENDBRANCH  24  27
ENDBRANCH  22  23
ENDBRANCH   1  22
TORSDOF 8
ENDMDL
