MODEL 1
REMARK VINA RESULT:      -8.1      0.000      0.000
REMARK  5 active torsions:
REMARK  status: ('A' for Active; 'I' for Inactive)
REMARK    1  A    between atoms: C_4  and  N_5 
REMARK       I    between atoms: N_5  and  C_6 
REMARK       I    between atoms: C_6  and  N_7 
REMARK    2  A    between atoms: N_7  and  C_8 
REMARK    3  A    between atoms: C_11  and  O_12 
REMARK    4  A    between atoms: O_12  and  C_13 
REMARK    5  A    between atoms: C_13  and  C_14 
ROOT
HETATM    1  N   UNL     1      45.785 -12.088   8.959  1.00  0.00    -0.293 N 
HETATM    2  C   UNL     1      45.633 -12.905   7.872  1.00  0.00     0.326 C 
HETATM    3  N   UNL     1      44.509 -13.679   7.845  1.00  0.00    -0.309 N 
HETATM    4  O   UNL     1      46.510 -12.862   7.011  1.00  0.00    -0.247 OA
HETATM    5  H   UNL     1      46.625 -11.532   8.901  1.00  0.00     0.172 HD
HETATM    6  H   UNL     1      43.910 -13.559   8.659  1.00  0.00     0.170 HD
ENDROOT
BRANCH   3   7
HETATM    7  C   UNL     1      44.074 -14.564   6.844  1.00  0.00     0.036 A 
HETATM    8  C   UNL     1      44.078 -15.953   6.976  1.00  0.00     0.032 A 
HETATM    9  C   UNL     1      43.656 -16.774   5.922  1.00  0.00     0.039 A 
HETATM   10  C   UNL     1      43.232 -16.213   4.719  1.00  0.00     0.068 A 
HETATM   11  C   UNL     1      43.202 -14.824   4.593  1.00  0.00     0.039 A 
HETATM   12  C   UNL     1      43.620 -14.005   5.646  1.00  0.00     0.032 A 
BRANCH  10  13
HETATM   13  O   UNL     1      42.823 -16.903   3.612  1.00  0.00    -0.351 OA
BRANCH  13  14
HETATM   14  C   UNL     1      42.989 -18.323   3.647  1.00  0.00     0.179 C 
BRANCH  14  15
HETATM   15  C   UNL     1      43.942 -18.743   2.519  1.00  0.00     0.002 C 
HETATM   16  C   UNL     1      43.571 -20.120   1.962  1.00  0.00     0.011 C 
HETATM   17  C   UNL     1      43.935 -17.701   1.402  1.00  0.00     0.011 C 
ENDBRANCH  14  15
ENDBRANCH  13  14
ENDBRANCH  10  13
ENDBRANCH   3   7
BRANCH   1  18
HETATM   18  C   UNL     1      44.964 -11.926  10.076  1.00  0.00     0.131 A 
HETATM   19  C   UNL     1      44.488 -10.645  10.342  1.00  0.00     0.057 A 
HETATM   20  C   UNL     1      43.659 -10.437  11.449  1.00  0.00    -0.057 A 
HETATM   21  C   UNL     1      43.155  -9.063  11.776  1.00  0.00     0.048 C 
HETATM   22  C   UNL     1      43.361 -11.523  12.268  1.00  0.00     0.026 A 
HETATM   23  C   UNL     1      43.876 -12.763  11.931  1.00  0.00     0.119 A 
HETATM   24  N   UNL     1      44.662 -12.989  10.854  1.00  0.00    -0.243 NA
ENDBRANCH   1  18
TORSDOF 5
ENDMDL
MODEL 2
REMARK VINA RESULT:      -7.3      1.273      2.041
REMARK  5 active torsions:
REMARK  status: ('A' for Active; 'I' for Inactive)
REMARK    1  A    between atoms: C_4  and  N_5 
REMARK       I    between atoms: N_5  and  C_6 
REMARK       I    between atoms: C_6  and  N_7 
REMARK    2  A    between atoms: N_7  and  C_8 
REMARK    3  A    between atoms: C_11  and  O_12 
REMARK    4  A    between atoms: O_12  and  C_13 
REMARK    5  A    between atoms: C_13  and  C_14 
ROOT
HETATM    1  N   UNL     1      45.012 -12.226   8.663  1.00  0.00    -0.293 N 
HETATM    2  C   UNL     1      44.929 -13.110   7.623  1.00  0.00     0.326 C 
HETATM    3  N   UNL     1      43.677 -13.376   7.148  1.00  0.00    -0.309 N 
HETATM    4  O   UNL     1      45.984 -13.578   7.197  1.00  0.00    -0.247 OA
HETATM    5  H   UNL     1      45.967 -12.064   8.947  1.00  0.00     0.172 HD
HETATM    6  H   UNL     1      42.938 -12.878   7.642  1.00  0.00     0.170 HD
ENDROOT
BRANCH   3   7
HETATM    7  C   UNL     1      43.299 -14.195   6.071  1.00  0.00     0.036 A 
HETATM    8  C   UNL     1      43.254 -13.766   4.744  1.00  0.00     0.032 A 
HETATM    9  C   UNL     1      42.837 -14.633   3.725  1.00  0.00     0.039 A 
HETATM   10  C   UNL     1      42.453 -15.939   4.025  1.00  0.00     0.068 A 
HETATM   11  C   UNL     1      42.521 -16.378   5.346  1.00  0.00     0.039 A 
HETATM   12  C   UNL     1      42.940 -15.514   6.363  1.00  0.00     0.032 A 
BRANCH  10  13
HETATM   13  O   UNL     1      42.004 -16.868   3.128  1.00  0.00    -0.351 OA
BRANCH  13  14
HETATM   14  C   UNL     1      42.525 -18.193   3.265  1.00  0.00     0.179 C 
BRANCH  14  15
HETATM   15  C   UNL     1      43.055 -18.665   1.904  1.00  0.00     0.002 C 
HETATM   16  C   UNL     1      44.029 -17.648   1.304  1.00  0.00     0.011 C 
HETATM   17  C   UNL     1      43.732 -20.028   2.042  1.00  0.00     0.011 C 
ENDBRANCH  14  15
ENDBRANCH  13  14
ENDBRANCH  10  13
ENDBRANCH   3   7
BRANCH   1  18
HETATM   18  C   UNL     1      43.999 -11.547   9.341  1.00  0.00     0.131 A 
HETATM   19  C   UNL     1      43.970 -11.658  10.729  1.00  0.00     0.057 A 
HETATM   20  C   UNL     1      42.974 -10.990  11.450  1.00  0.00    -0.057 A 
HETATM   21  C   UNL     1      42.901 -11.115  12.942  1.00  0.00     0.048 C 
HETATM   22  C   UNL     1      42.024 -10.256  10.745  1.00  0.00     0.026 A 
HETATM   23  C   UNL     1      42.127 -10.198   9.365  1.00  0.00     0.119 A 
HETATM   24  N   UNL     1      43.093 -10.819   8.652  1.00  0.00    -0.243 NA
ENDBRANCH   1  18
TORSDOF 5
ENDMDL
MODEL 3
REMARK VINA RESULT:      -7.3      1.946      2.496
REMARK  5 active torsions:
REMARK  status: ('A' for Active; 'I' for Inactive)
REMARK    1  A    between atoms: C_4  and  N_5 
REMARK       I    between atoms: N_5  and  C_6 
REMARK       I    between atoms: C_6  and  N_7 
REMARK    2  A    between atoms: N_7  and  C_8 
REMARK    3  A    between atoms: C_11  and  O_12 
REMARK    4  A    between atoms: O_12  and  C_13 
REMARK    5  A    between atoms: C_13  and  C_14 
ROOT
HETATM    1  N   UNL     1      42.113 -10.974   7.986  1.00  0.00    -0.293 N 
HETATM    2  C   UNL     1      41.885 -11.786   6.908  1.00  0.00     0.326 C 
HETATM    3  N   UNL     1      42.766 -12.813   6.722  1.00  0.00    -0.309 N 
HETATM    4  O   UNL     1      40.905 -11.532   6.211  1.00  0.00    -0.247 OA
HETATM    5  H   UNL     1      41.413 -10.253   8.071  1.00  0.00     0.172 HD
HETATM    6  H   UNL     1      43.508 -12.846   7.420  1.00  0.00     0.170 HD
ENDROOT
BRANCH   3   7
HETATM    7  C   UNL     1      42.752 -13.818   5.742  1.00  0.00     0.036 A 
HETATM    8  C   UNL     1      43.293 -13.669   4.464  1.00  0.00     0.032 A 
HETATM    9  C   UNL     1      43.215 -14.708   3.528  1.00  0.00     0.039 A 
HETATM   10  C   UNL     1      42.586 -15.908   3.857  1.00  0.00     0.068 A 
HETATM   11  C   UNL     1      42.067 -16.070   5.141  1.00  0.00     0.039 A 
HETATM   12  C   UNL     1      42.148 -15.034   6.077  1.00  0.00     0.032 A 
BRANCH  10  13
HETATM   13  O   UNL     1      42.422 -16.982   3.027  1.00  0.00    -0.351 OA
BRANCH  13  14
HETATM   14  C   UNL     1      43.018 -18.212   3.448  1.00  0.00     0.179 C 
BRANCH  14  15
HETATM   15  C   UNL     1      43.902 -18.752   2.315  1.00  0.00     0.002 C 
HETATM   16  C   UNL     1      43.521 -20.190   1.952  1.00  0.00     0.011 C 
HETATM   17  C   UNL     1      43.801 -17.851   1.086  1.00  0.00     0.011 C 
ENDBRANCH  14  15
ENDBRANCH  13  14
ENDBRANCH  10  13
ENDBRANCH   3   7
BRANCH   1  18
HETATM   18  C   UNL     1      43.131 -11.020   8.939  1.00  0.00     0.131 A 
HETATM   19  C   UNL     1      42.835 -10.555  10.218  1.00  0.00     0.057 A 
HETATM   20  C   UNL     1      43.824 -10.586  11.206  1.00  0.00    -0.057 A 
HETATM   21  C   UNL     1      43.542 -10.066  12.583  1.00  0.00     0.048 C 
HETATM   22  C   UNL     1      45.089 -11.057  10.864  1.00  0.00     0.026 A 
HETATM   23  C   UNL     1      45.299 -11.501   9.569  1.00  0.00     0.119 A 
HETATM   24  N   UNL     1      44.350 -11.498   8.605  1.00  0.00    -0.243 NA
ENDBRANCH   1  18
TORSDOF 5
ENDMDL
MODEL 4
REMARK VINA RESULT:      -7.2      1.402      1.976
REMARK  5 active torsions:
REMARK  status: ('A' for Active; 'I' for Inactive)
REMARK    1  A    between atoms: C_4  and  N_5 
REMARK       I    between atoms: N_5  and  C_6 
REMARK       I    between atoms: C_6  and  N_7 
REMARK    2  A    between atoms: N_7  and  C_8 
REMARK    3  A    between atoms: C_11  and  O_12 
REMARK    4  A    between atoms: O_12  and  C_13 
REMARK    5  A    between atoms: C_13  and  C_14 
ROOT
HETATM    1  N   UNL     1      45.817 -11.981   9.325  1.00  0.00    -0.293 N 
HETATM    2  C   UNL     1      45.683 -12.708   8.174  1.00  0.00     0.326 C 
HETATM    3  N   UNL     1      44.493 -13.352   7.995  1.00  0.00    -0.309 N 
HETATM    4  O   UNL     1      46.636 -12.709   7.397  1.00  0.00    -0.247 OA
HETATM    5  H   UNL     1      46.712 -11.519   9.379  1.00  0.00     0.172 HD
HETATM    6  H   UNL     1      43.836 -13.217   8.762  1.00  0.00     0.170 HD
ENDROOT
BRANCH   3   7
HETATM    7  C   UNL     1      44.064 -14.121   6.901  1.00  0.00     0.036 A 
HETATM    8  C   UNL     1      43.588 -13.580   5.707  1.00  0.00     0.032 A 
HETATM    9  C   UNL     1      43.149 -14.412   4.668  1.00  0.00     0.039 A 
HETATM   10  C   UNL     1      43.172 -15.797   4.817  1.00  0.00     0.068 A 
HETATM   11  C   UNL     1      43.671 -16.342   6.000  1.00  0.00     0.039 A 
HETATM   12  C   UNL     1      44.113 -15.512   7.035  1.00  0.00     0.032 A 
BRANCH  10  13
HETATM   13  O   UNL     1      42.748 -16.710   3.893  1.00  0.00    -0.351 OA
BRANCH  13  14
HETATM   14  C   UNL     1      42.252 -16.187   2.658  1.00  0.00     0.179 C 
BRANCH  14  15
HETATM   15  C   UNL     1      40.898 -16.841   2.346  1.00  0.00     0.002 C 
HETATM   16  C   UNL     1      39.828 -15.787   2.048  1.00  0.00     0.011 C 
HETATM   17  C   UNL     1      41.033 -17.806   1.170  1.00  0.00     0.011 C 
ENDBRANCH  14  15
ENDBRANCH  13  14
ENDBRANCH  10  13
ENDBRANCH   3   7
BRANCH   1  18
HETATM   18  C   UNL     1      44.917 -11.799  10.377  1.00  0.00     0.131 A 
HETATM   19  C   UNL     1      44.404 -10.519  10.567  1.00  0.00     0.057 A 
HETATM   20  C   UNL     1      43.495 -10.291  11.606  1.00  0.00    -0.057 A 
HETATM   21  C   UNL     1      42.948  -8.918  11.852  1.00  0.00     0.048 C 
HETATM   22  C   UNL     1      43.156 -11.357  12.436  1.00  0.00     0.026 A 
HETATM   23  C   UNL     1      43.713 -12.598  12.176  1.00  0.00     0.119 A 
HETATM   24  N   UNL     1      44.577 -12.843  11.165  1.00  0.00    -0.243 NA
ENDBRANCH   1  18
TORSDOF 5
ENDMDL
MODEL 5
REMARK VINA RESULT:      -7.2      7.386     10.255
REMARK  5 active torsions:
REMARK  status: ('A' for Active; 'I' for Inactive)
REMARK    1  A    between atoms: C_4  and  N_5 
REMARK       I    between atoms: N_5  and  C_6 
REMARK       I    between atoms: C_6  and  N_7 
REMARK    2  A    between atoms: N_7  and  C_8 
REMARK    3  A    between atoms: C_11  and  O_12 
REMARK    4  A    between atoms: O_12  and  C_13 
REMARK    5  A    between atoms: C_13  and  C_14 
ROOT
HETATM    1  N   UNL     1      40.142 -13.991  -0.810  1.00  0.00    -0.293 N 
HETATM    2  C   UNL     1      40.816 -14.468   0.282  1.00  0.00     0.326 C 
HETATM    3  N   UNL     1      41.136 -15.795   0.268  1.00  0.00    -0.309 N 
HETATM    4  O   UNL     1      41.087 -13.662   1.171  1.00  0.00    -0.247 OA
HETATM    5  H   UNL     1      39.959 -13.001  -0.738  1.00  0.00     0.172 HD
HETATM    6  H   UNL     1      40.820 -16.283  -0.569  1.00  0.00     0.170 HD
ENDROOT
BRANCH   3   7
HETATM    7  C   UNL     1      41.858 -16.537   1.217  1.00  0.00     0.036 A 
HETATM    8  C   UNL     1      41.324 -16.985   2.425  1.00  0.00     0.032 A 
HETATM    9  C   UNL     1      42.116 -17.696   3.338  1.00  0.00     0.039 A 
HETATM   10  C   UNL     1      43.455 -17.958   3.054  1.00  0.00     0.068 A 
HETATM   11  C   UNL     1      43.984 -17.534   1.836  1.00  0.00     0.039 A 
HETATM   12  C   UNL     1      43.193 -16.828   0.923  1.00  0.00     0.032 A 
BRANCH  10  13
HETATM   13  O   UNL     1      44.333 -18.615   3.870  1.00  0.00    -0.351 OA
BRANCH  13  14
HETATM   14  C   UNL     1      43.899 -19.871   4.398  1.00  0.00     0.179 C 
BRANCH  14  15
HETATM   15  C   UNL     1      44.806 -20.983   3.853  1.00  0.00     0.002 C 
HETATM   16  C   UNL     1      44.879 -22.165   4.824  1.00  0.00     0.011 C 
HETATM   17  C   UNL     1      44.309 -21.451   2.486  1.00  0.00     0.011 C 
ENDBRANCH  14  15
ENDBRANCH  13  14
ENDBRANCH  10  13
ENDBRANCH   3   7
BRANCH   1  18
HETATM   18  C   UNL     1      39.708 -14.661  -1.954  1.00  0.00     0.131 A 
HETATM   19  C   UNL     1      38.457 -14.319  -2.462  1.00  0.00     0.057 A 
HETATM   20  C   UNL     1      37.983 -14.962  -3.609  1.00  0.00    -0.057 A 
HETATM   21  C   UNL     1      36.628 -14.635  -4.162  1.00  0.00     0.048 C 
HETATM   22  C   UNL     1      38.773 -15.950  -4.191  1.00  0.00     0.026 A 
HETATM   23  C   UNL     1      40.005 -16.228  -3.622  1.00  0.00     0.119 A 
HETATM   24  N   UNL     1      40.490 -15.604  -2.525  1.00  0.00    -0.243 NA
ENDBRANCH   1  18
TORSDOF 5
ENDMDL
MODEL 6
REMARK VINA RESULT:      -7.1      2.482      8.624
REMARK  5 active torsions:
REMARK  status: ('A' for Active; 'I' for Inactive)
REMARK    1  A    between atoms: C_4  and  N_5 
REMARK       I    between atoms: N_5  and  C_6 
REMARK       I    between atoms: C_6  and  N_7 
REMARK    2  A    between atoms: N_7  and  C_8 
REMARK    3  A    between atoms: C_11  and  O_12 
REMARK    4  A    between atoms: O_12  and  C_13 
REMARK    5  A    between atoms: C_13  and  C_14 
ROOT
HETATM    1  N   UNL     1      45.158 -14.450   6.899  1.00  0.00    -0.293 N 
HETATM    2  C   UNL     1      45.254 -13.319   7.663  1.00  0.00     0.326 C 
HETATM    3  N   UNL     1      44.206 -13.058   8.498  1.00  0.00    -0.309 N 
HETATM    4  O   UNL     1      46.276 -12.645   7.543  1.00  0.00    -0.247 OA
HETATM    5  H   UNL     1      45.975 -14.588   6.324  1.00  0.00     0.172 HD
HETATM    6  H   UNL     1      43.459 -13.748   8.445  1.00  0.00     0.170 HD
ENDROOT
BRANCH   3   7
HETATM    7  C   UNL     1      44.055 -12.009   9.421  1.00  0.00     0.036 A 
HETATM    8  C   UNL     1      44.856 -11.844  10.551  1.00  0.00     0.032 A 
HETATM    9  C   UNL     1      44.626 -10.788  11.443  1.00  0.00     0.039 A 
HETATM   10  C   UNL     1      43.586  -9.889  11.218  1.00  0.00     0.068 A 
HETATM   11  C   UNL     1      42.800 -10.035  10.075  1.00  0.00     0.039 A 
HETATM   12  C   UNL     1      43.032 -11.087   9.183  1.00  0.00     0.032 A 
BRANCH  10  13
HETATM   13  O   UNL     1      43.245  -8.838  12.023  1.00  0.00    -0.351 OA
BRANCH  13  14
HETATM   14  C   UNL     1      42.015  -8.957  12.743  1.00  0.00     0.179 C 
BRANCH  14  15
HETATM   15  C   UNL     1      42.065 -10.219  13.615  1.00  0.00     0.002 C 
HETATM   16  C   UNL     1      42.046  -9.867  15.104  1.00  0.00     0.011 C 
HETATM   17  C   UNL     1      40.900 -11.146  13.275  1.00  0.00     0.011 C 
ENDBRANCH  14  15
ENDBRANCH  13  14
ENDBRANCH  10  13
ENDBRANCH   3   7
BRANCH   1  18
HETATM   18  C   UNL     1      44.132 -15.393   6.825  1.00  0.00     0.131 A 
HETATM   19  C   UNL     1      43.370 -15.422   5.660  1.00  0.00     0.057 A 
HETATM   20  C   UNL     1      42.334 -16.354   5.540  1.00  0.00    -0.057 A 
HETATM   21  C   UNL     1      41.479 -16.389   4.309  1.00  0.00     0.048 C 
HETATM   22  C   UNL     1      42.082 -17.207   6.611  1.00  0.00     0.026 A 
HETATM   23  C   UNL     1      42.888 -17.112   7.733  1.00  0.00     0.119 A 
HETATM   24  N   UNL     1      43.907 -16.232   7.860  1.00  0.00    -0.243 NA
ENDBRANCH   1  18
TORSDOF 5
ENDMDL
MODEL 7
REMARK VINA RESULT:      -7.0      6.005     10.016
REMARK  5 active torsions:
REMARK  status: ('A' for Active; 'I' for Inactive)
REMARK    1  A    between atoms: C_4  and  N_5 
REMARK       I    between atoms: N_5  and  C_6 
REMARK       I    between atoms: C_6  and  N_7 
REMARK    2  A    between atoms: N_7  and  C_8 
REMARK    3  A    between atoms: C_11  and  O_12 
REMARK    4  A    between atoms: O_12  and  C_13 
REMARK    5  A    between atoms: C_13  and  C_14 
ROOT
HETATM    1  N   UNL     1      41.007 -14.029  -0.599  1.00  0.00    -0.293 N 
HETATM    2  C   UNL     1      41.630 -14.609   0.472  1.00  0.00     0.326 C 
HETATM    3  N   UNL     1      41.663 -15.974   0.492  1.00  0.00    -0.309 N 
HETATM    4  O   UNL     1      42.116 -13.856   1.314  1.00  0.00    -0.247 OA
HETATM    5  H   UNL     1      41.039 -13.022  -0.556  1.00  0.00     0.172 HD
HETATM    6  H   UNL     1      41.202 -16.406  -0.307  1.00  0.00     0.170 HD
ENDROOT
BRANCH   3   7
HETATM    7  C   UNL     1      42.269 -16.826   1.430  1.00  0.00     0.036 A 
HETATM    8  C   UNL     1      43.442 -17.541   1.189  1.00  0.00     0.032 A 
HETATM    9  C   UNL     1      43.972 -18.397   2.164  1.00  0.00     0.039 A 
HETATM   10  C   UNL     1      43.327 -18.553   3.390  1.00  0.00     0.068 A 
HETATM   11  C   UNL     1      42.169 -17.820   3.644  1.00  0.00     0.039 A 
HETATM   12  C   UNL     1      41.642 -16.963   2.672  1.00  0.00     0.032 A 
BRANCH  10  13
HETATM   13  O   UNL     1      43.728 -19.373   4.408  1.00  0.00    -0.351 OA
BRANCH  13  14
HETATM   14  C   UNL     1      44.997 -19.085   5.000  1.00  0.00     0.179 C 
BRANCH  14  15
HETATM   15  C   UNL     1      44.783 -18.660   6.459  1.00  0.00     0.002 C 
HETATM   16  C   UNL     1      44.562 -17.149   6.571  1.00  0.00     0.011 C 
HETATM   17  C   UNL     1      43.600 -19.414   7.064  1.00  0.00     0.011 C 
ENDBRANCH  14  15
ENDBRANCH  13  14
ENDBRANCH  10  13
ENDBRANCH   3   7
BRANCH   1  18
HETATM   18  C   UNL     1      40.373 -14.622  -1.692  1.00  0.00     0.131 A 
HETATM   19  C   UNL     1      39.165 -14.070  -2.111  1.00  0.00     0.057 A 
HETATM   20  C   UNL     1      38.498 -14.629  -3.205  1.00  0.00    -0.057 A 
HETATM   21  C   UNL     1      37.182 -14.074  -3.661  1.00  0.00     0.048 C 
HETATM   22  C   UNL     1      39.056 -15.746  -3.823  1.00  0.00     0.026 A 
HETATM   23  C   UNL     1      40.261 -16.231  -3.343  1.00  0.00     0.119 A 
HETATM   24  N   UNL     1      40.932 -15.692  -2.300  1.00  0.00    -0.243 NA
ENDBRANCH   1  18
TORSDOF 5
ENDMDL
MODEL 8
REMARK VINA RESULT:      -6.9      6.213      8.777
REMARK  5 active torsions:
REMARK  status: ('A' for Active; 'I' for Inactive)
REMARK    1  A    between atoms: C_4  and  N_5 
REMARK       I    between atoms: N_5  and  C_6 
REMARK       I    between atoms: C_6  and  N_7 
REMARK    2  A    between atoms: N_7  and  C_8 
REMARK    3  A    between atoms: C_11  and  O_12 
REMARK    4  A    between atoms: O_12  and  C_13 
REMARK    5  A    between atoms: C_13  and  C_14 
ROOT
HETATM    1  N   UNL     1      44.343 -18.700   5.031  1.00  0.00    -0.293 N 
HETATM    2  C   UNL     1      43.671 -17.659   4.451  1.00  0.00     0.326 C 
HETATM    3  N   UNL     1      42.981 -17.941   3.307  1.00  0.00    -0.309 N 
HETATM    4  O   UNL     1      43.733 -16.568   5.015  1.00  0.00    -0.247 OA
HETATM    5  H   UNL     1      44.811 -18.422   5.881  1.00  0.00     0.172 HD
HETATM    6  H   UNL     1      43.059 -18.913   3.012  1.00  0.00     0.170 HD
ENDROOT
BRANCH   3   7
HETATM    7  C   UNL     1      42.173 -17.091   2.535  1.00  0.00     0.036 A 
HETATM    8  C   UNL     1      40.822 -16.856   2.790  1.00  0.00     0.032 A 
HETATM    9  C   UNL     1      40.071 -16.017   1.956  1.00  0.00     0.039 A 
HETATM   10  C   UNL     1      40.663 -15.409   0.851  1.00  0.00     0.068 A 
HETATM   11  C   UNL     1      42.020 -15.621   0.608  1.00  0.00     0.039 A 
HETATM   12  C   UNL     1      42.770 -16.455   1.442  1.00  0.00     0.032 A 
BRANCH  10  13
HETATM   13  O   UNL     1      40.034 -14.594  -0.049  1.00  0.00    -0.351 OA
BRANCH  13  14
HETATM   14  C   UNL     1      40.834 -14.084  -1.118  1.00  0.00     0.179 C 
BRANCH  14  15
HETATM   15  C   UNL     1      40.151 -14.409  -2.454  1.00  0.00     0.002 C 
HETATM   16  C   UNL     1      40.579 -15.784  -2.975  1.00  0.00     0.011 C 
HETATM   17  C   UNL     1      38.632 -14.349  -2.303  1.00  0.00     0.011 C 
ENDBRANCH  14  15
ENDBRANCH  13  14
ENDBRANCH  10  13
ENDBRANCH   3   7
BRANCH   1  18
HETATM   18  C   UNL     1      44.451 -20.031   4.624  1.00  0.00     0.131 A 
HETATM   19  C   UNL     1      44.310 -20.300   3.265  1.00  0.00     0.057 A 
HETATM   20  C   UNL     1      44.415 -21.618   2.811  1.00  0.00    -0.057 A 
HETATM   21  C   UNL     1      44.239 -21.941   1.358  1.00  0.00     0.048 C 
HETATM   22  C   UNL     1      44.629 -22.627   3.748  1.00  0.00     0.026 A 
HETATM   23  C   UNL     1      44.758 -22.272   5.080  1.00  0.00     0.119 A 
HETATM   24  N   UNL     1      44.680 -21.002   5.536  1.00  0.00    -0.243 NA
ENDBRANCH   1  18
TORSDOF 5
ENDMDL
MODEL 9
REMARK VINA RESULT:      -6.7      6.251      9.133
REMARK  5 active torsions:
REMARK  status: ('A' for Active; 'I' for Inactive)
REMARK    1  A    between atoms: C_4  and  N_5 
REMARK       I    between atoms: N_5  and  C_6 
REMARK       I    between atoms: C_6  and  N_7 
REMARK    2  A    between atoms: N_7  and  C_8 
REMARK    3  A    between atoms: C_11  and  O_12 
REMARK    4  A    between atoms: O_12  and  C_13 
REMARK    5  A    between atoms: C_13  and  C_14 
ROOT
HETATM    1  N   UNL     1      43.996 -17.853   4.136  1.00  0.00    -0.293 N 
HETATM    2  C   UNL     1      43.229 -16.829   3.651  1.00  0.00     0.326 C 
HETATM    3  N   UNL     1      42.445 -17.114   2.570  1.00  0.00    -0.309 N 
HETATM    4  O   UNL     1      43.301 -15.748   4.235  1.00  0.00    -0.247 OA
HETATM    5  H   UNL     1      44.532 -17.574   4.945  1.00  0.00     0.172 HD
HETATM    6  H   UNL     1      42.534 -18.075   2.244  1.00  0.00     0.170 HD
ENDROOT
BRANCH   3   7
HETATM    7  C   UNL     1      41.532 -16.283   1.901  1.00  0.00     0.036 A 
HETATM    8  C   UNL     1      40.319 -15.861   2.445  1.00  0.00     0.032 A 
HETATM    9  C   UNL     1      39.444 -15.055   1.704  1.00  0.00     0.039 A 
HETATM   10  C   UNL     1      39.771 -14.668   0.405  1.00  0.00     0.068 A 
HETATM   11  C   UNL     1      40.995 -15.066  -0.131  1.00  0.00     0.039 A 
HETATM   12  C   UNL     1      41.870 -15.868   0.609  1.00  0.00     0.032 A 
BRANCH  10  13
HETATM   13  O   UNL     1      38.995 -13.909  -0.425  1.00  0.00    -0.351 OA
BRANCH  13  14
HETATM   14  C   UNL     1      39.224 -14.057  -1.828  1.00  0.00     0.179 C 
BRANCH  14  15
HETATM   15  C   UNL     1      37.897 -13.865  -2.575  1.00  0.00     0.002 C 
HETATM   16  C   UNL     1      37.957 -12.654  -3.511  1.00  0.00     0.011 C 
HETATM   17  C   UNL     1      37.542 -15.125  -3.362  1.00  0.00     0.011 C 
ENDBRANCH  14  15
ENDBRANCH  13  14
ENDBRANCH  10  13
ENDBRANCH   3   7
BRANCH   1  18
HETATM   18  C   UNL     1      44.118 -19.168   3.686  1.00  0.00     0.131 A 
HETATM   19  C   UNL     1      44.568 -20.119   4.598  1.00  0.00     0.057 A 
HETATM   20  C   UNL     1      44.702 -21.451   4.191  1.00  0.00    -0.057 A 
HETATM   21  C   UNL     1      45.211 -22.491   5.142  1.00  0.00     0.048 C 
HETATM   22  C   UNL     1      44.405 -21.773   2.869  1.00  0.00     0.026 A 
HETATM   23  C   UNL     1      43.964 -20.766   2.028  1.00  0.00     0.119 A 
HETATM   24  N   UNL     1      43.808 -19.477   2.407  1.00  0.00    -0.243 NA
ENDBRANCH   1  18
TORSDOF 5
ENDMDL
MODEL 10
REMARK VINA RESULT:      -6.5      3.887      9.251
REMARK  5 active torsions:
REMARK  status: ('A' for Active; 'I' for Inactive)
REMARK    1  A    between atoms: C_4  and  N_5 
REMARK       I    between atoms: N_5  and  C_6 
REMARK       I    between atoms: C_6  and  N_7 
REMARK    2  A    between atoms: N_7  and  C_8 
REMARK    3  A    between atoms: C_11  and  O_12 
REMARK    4  A    between atoms: O_12  and  C_13 
REMARK    5  A    between atoms: C_13  and  C_14 
ROOT
HETATM    1  N   UNL     1      41.993 -17.767   2.028  1.00  0.00    -0.293 N 
HETATM    2  C   UNL     1      41.461 -16.599   2.502  1.00  0.00     0.326 C 
HETATM    3  N   UNL     1      41.891 -16.187   3.731  1.00  0.00    -0.309 N 
HETATM    4  O   UNL     1      40.655 -16.015   1.779  1.00  0.00    -0.247 OA
HETATM    5  H   UNL     1      41.644 -17.997   1.110  1.00  0.00     0.172 HD
HETATM    6  H   UNL     1      42.566 -16.818   4.160  1.00  0.00     0.170 HD
ENDROOT
BRANCH   3   7
HETATM    7  C   UNL     1      41.558 -15.018   4.434  1.00  0.00     0.036 A 
HETATM    8  C   UNL     1      40.439 -14.898   5.259  1.00  0.00     0.032 A 
HETATM    9  C   UNL     1      40.155 -13.688   5.907  1.00  0.00     0.039 A 
HETATM   10  C   UNL     1      40.983 -12.582   5.729  1.00  0.00     0.068 A 
HETATM   11  C   UNL     1      42.116 -12.707   4.926  1.00  0.00     0.039 A 
HETATM   12  C   UNL     1      42.403 -13.915   4.283  1.00  0.00     0.032 A 
BRANCH  10  13
HETATM   13  O   UNL     1      40.799 -11.345   6.282  1.00  0.00    -0.351 OA
BRANCH  13  14
HETATM   14  C   UNL     1      41.663 -10.994   7.366  1.00  0.00     0.179 C 
BRANCH  14  15
HETATM   15  C   UNL     1      40.824 -10.379   8.495  1.00  0.00     0.002 C 
HETATM   16  C   UNL     1      39.470 -11.081   8.627  1.00  0.00     0.011 C 
HETATM   17  C   UNL     1      41.585 -10.442   9.818  1.00  0.00     0.011 C 
ENDBRANCH  14  15
ENDBRANCH  13  14
ENDBRANCH  10  13
ENDBRANCH   3   7
BRANCH   1  18
HETATM   18  C   UNL     1      42.915 -18.633   2.619  1.00  0.00     0.131 A 
HETATM   19  C   UNL     1      43.221 -19.807   1.937  1.00  0.00     0.057 A 
HETATM   20  C   UNL     1      44.143 -20.702   2.489  1.00  0.00    -0.057 A 
HETATM   21  C   UNL     1      44.470 -21.987   1.791  1.00  0.00     0.048 C 
HETATM   22  C   UNL     1      44.705 -20.396   3.726  1.00  0.00     0.026 A 
HETATM   23  C   UNL     1      44.345 -19.206   4.336  1.00  0.00     0.119 A 
HETATM   24  N   UNL     1      43.472 -18.319   3.810  1.00  0.00    -0.243 NA
ENDBRANCH   1  18
TORSDOF 5
ENDMDL
