MODEL 1
REMARK VINA RESULT:      -7.5      0.000      0.000
REMARK  3 active torsions:
REMARK  status: ('A' for Active; 'I' for Inactive)
REMARK    1  A    between atoms: O_2  and  C_3 
REMARK    2  A    between atoms: C_4  and  C_5 
REMARK    3  A    between atoms: C_16  and  N_17 
ROOT
HETATM    1  C   UNL     1      42.721 -15.798   5.489  1.00  0.00     0.246 A 
HETATM    2  N   UNL     1      42.619 -15.093   4.230  1.00  0.00    -0.151 N 
HETATM    3  C   UNL     1      43.440 -14.032   3.950  1.00  0.00     0.734 A 
HETATM    4  N   UNL     1      43.141 -13.547   2.764  1.00  0.00    -0.060 NA
HETATM    5  C   UNL     1      42.085 -14.289   2.296  1.00  0.00     0.103 A 
HETATM    6  C   UNL     1      41.720 -15.269   3.212  1.00  0.00     0.083 A 
HETATM    7  C   UNL     1      41.379 -14.176   1.089  1.00  0.00     0.034 A 
HETATM    8  C   UNL     1      40.321 -15.060   0.846  1.00  0.00     0.002 A 
HETATM    9  C   UNL     1      39.973 -16.035   1.784  1.00  0.00     0.002 A 
HETATM   10  C   UNL     1      40.666 -16.163   2.994  1.00  0.00     0.033 A 
HETATM   11  N   UNL     1      44.387 -13.591   4.808  1.00  0.00    -0.033 NA
HETATM   12  C   UNL     1      44.468 -14.127   5.972  1.00  0.00     0.193 A 
HETATM   13  N   UNL     1      43.664 -15.179   6.417  1.00  0.00    -0.338 N 
HETATM   14  H   UNL     1      43.804 -15.616   7.315  1.00  0.00     0.164 HD
ENDROOT
BRANCH   1  15
HETATM   15  C   UNL     1      43.131 -17.258   5.349  1.00  0.00     0.020 A 
HETATM   16  C   UNL     1      43.103 -18.087   6.492  1.00  0.00     0.078 A 
HETATM   17  C   UNL     1      43.510 -19.422   6.403  1.00  0.00     0.039 A 
HETATM   18  C   UNL     1      43.937 -19.949   5.183  1.00  0.00     0.022 A 
HETATM   19  C   UNL     1      43.975 -19.139   4.055  1.00  0.00     0.011 A 
HETATM   20  C   UNL     1      43.592 -17.800   4.133  1.00  0.00     0.033 A 
HETATM   21 BR   UNL     1      44.560 -19.852   2.405  1.00  0.00    -0.051 Br
BRANCH  16  22
HETATM   22  O   UNL     1      42.708 -17.477   7.655  1.00  0.00    -0.355 OA
HETATM   23  C   UNL     1      43.597 -17.579   8.767  1.00  0.00     0.210 C 
ENDBRANCH  16  22
ENDBRANCH   1  15
BRANCH  12  24
HETATM   24  N   UNL     1      45.362 -13.730   6.901  1.00  0.00    -0.272 NA
HETATM   25  H   UNL     1      45.348 -12.718   7.009  1.00  0.00     0.127 HD
HETATM   26  H   UNL     1      45.314 -14.193   7.799  1.00  0.00     0.127 HD
ENDBRANCH  12  24
TORSDOF 3
ENDMDL
MODEL 2
REMARK VINA RESULT:      -7.4      3.097      5.762
REMARK  3 active torsions:
REMARK  status: ('A' for Active; 'I' for Inactive)
REMARK    1  A    between atoms: O_2  and  C_3 
REMARK    2  A    between atoms: C_4  and  C_5 
REMARK    3  A    between atoms: C_16  and  N_17 
ROOT
HETATM    1  C   UNL     1      41.730 -16.642   3.256  1.00  0.00     0.246 A 
HETATM    2  N   UNL     1      42.779 -17.638   3.255  1.00  0.00    -0.151 N 
HETATM    3  C   UNL     1      43.499 -17.899   2.118  1.00  0.00     0.734 A 
HETATM    4  N   UNL     1      44.372 -18.853   2.361  1.00  0.00    -0.060 NA
HETATM    5  C   UNL     1      44.179 -19.232   3.666  1.00  0.00     0.103 A 
HETATM    6  C   UNL     1      43.162 -18.489   4.255  1.00  0.00     0.083 A 
HETATM    7  C   UNL     1      44.837 -20.217   4.417  1.00  0.00     0.034 A 
HETATM    8  C   UNL     1      44.445 -20.422   5.745  1.00  0.00     0.002 A 
HETATM    9  C   UNL     1      43.419 -19.664   6.313  1.00  0.00     0.002 A 
HETATM   10  C   UNL     1      42.750 -18.676   5.580  1.00  0.00     0.033 A 
HETATM   11  N   UNL     1      43.290 -17.248   0.951  1.00  0.00    -0.033 NA
HETATM   12  C   UNL     1      42.318 -16.412   0.873  1.00  0.00     0.193 A 
HETATM   13  N   UNL     1      41.467 -16.085   1.931  1.00  0.00    -0.338 N 
HETATM   14  H   UNL     1      40.758 -15.374   1.846  1.00  0.00     0.164 HD
ENDROOT
BRANCH   1  15
HETATM   15  C   UNL     1      41.994 -15.466   4.186  1.00  0.00     0.020 A 
HETATM   16  C   UNL     1      41.001 -14.472   4.329  1.00  0.00     0.078 A 
HETATM   17  C   UNL     1      41.231 -13.361   5.147  1.00  0.00     0.039 A 
HETATM   18  C   UNL     1      42.438 -13.230   5.836  1.00  0.00     0.022 A 
HETATM   19  C   UNL     1      43.424 -14.198   5.695  1.00  0.00     0.011 A 
HETATM   20  C   UNL     1      43.218 -15.301   4.866  1.00  0.00     0.033 A 
HETATM   21 BR   UNL     1      45.060 -14.015   6.623  1.00  0.00    -0.051 Br
BRANCH  16  22
HETATM   22  O   UNL     1      39.864 -14.661   3.586  1.00  0.00    -0.355 OA
HETATM   23  C   UNL     1      39.387 -13.539   2.846  1.00  0.00     0.210 C 
ENDBRANCH  16  22
ENDBRANCH   1  15
BRANCH  12  24
HETATM   24  N   UNL     1      42.018 -15.741  -0.259  1.00  0.00    -0.272 NA
HETATM   25  H   UNL     1      42.412 -16.209  -1.073  1.00  0.00     0.127 HD
HETATM   26  H   UNL     1      41.043 -15.516  -0.403  1.00  0.00     0.127 HD
ENDBRANCH  12  24
TORSDOF 3
ENDMDL
MODEL 3
REMARK VINA RESULT:      -7.4      5.790      7.966
REMARK  3 active torsions:
REMARK  status: ('A' for Active; 'I' for Inactive)
REMARK    1  A    between atoms: O_2  and  C_3 
REMARK    2  A    between atoms: C_4  and  C_5 
REMARK    3  A    between atoms: C_16  and  N_17 
ROOT
HETATM    1  C   UNL     1      41.164 -14.716  -1.256  1.00  0.00     0.246 A 
HETATM    2  N   UNL     1      41.338 -13.628  -2.193  1.00  0.00    -0.151 N 
HETATM    3  C   UNL     1      40.875 -13.725  -3.480  1.00  0.00     0.734 A 
HETATM    4  N   UNL     1      41.172 -12.625  -4.137  1.00  0.00    -0.060 NA
HETATM    5  C   UNL     1      41.871 -11.828  -3.266  1.00  0.00     0.103 A 
HETATM    6  C   UNL     1      42.007 -12.444  -2.026  1.00  0.00     0.083 A 
HETATM    7  C   UNL     1      42.430 -10.557  -3.468  1.00  0.00     0.034 A 
HETATM    8  C   UNL     1      43.112  -9.948  -2.408  1.00  0.00     0.002 A 
HETATM    9  C   UNL     1      43.236 -10.589  -1.174  1.00  0.00     0.002 A 
HETATM   10  C   UNL     1      42.685 -11.858  -0.952  1.00  0.00     0.033 A 
HETATM   11  N   UNL     1      40.227 -14.816  -3.945  1.00  0.00    -0.033 NA
HETATM   12  C   UNL     1      40.115 -15.844  -3.182  1.00  0.00     0.193 A 
HETATM   13  N   UNL     1      40.585 -15.910  -1.868  1.00  0.00    -0.338 N 
HETATM   14  H   UNL     1      40.418 -16.713  -1.281  1.00  0.00     0.164 HD
ENDROOT
BRANCH   1  15
HETATM   15  C   UNL     1      40.293 -14.367  -0.057  1.00  0.00     0.020 A 
HETATM   16  C   UNL     1      40.491 -15.064   1.155  1.00  0.00     0.078 A 
HETATM   17  C   UNL     1      39.682 -14.791   2.263  1.00  0.00     0.039 A 
HETATM   18  C   UNL     1      38.680 -13.822   2.184  1.00  0.00     0.022 A 
HETATM   19  C   UNL     1      38.472 -13.139   0.992  1.00  0.00     0.011 A 
HETATM   20  C   UNL     1      39.257 -13.414  -0.128  1.00  0.00     0.033 A 
HETATM   21 BR   UNL     1      37.110 -11.833   0.884  1.00  0.00    -0.051 Br
BRANCH  16  22
HETATM   22  O   UNL     1      41.470 -16.024   1.133  1.00  0.00    -0.355 OA
HETATM   23  C   UNL     1      41.069 -17.356   1.449  1.00  0.00     0.210 C 
ENDBRANCH  16  22
ENDBRANCH   1  15
BRANCH  12  24
HETATM   24  N   UNL     1      39.511 -16.985  -3.574  1.00  0.00    -0.272 NA
HETATM   25  H   UNL     1      38.712 -17.196  -2.980  1.00  0.00     0.127 HD
HETATM   26  H   UNL     1      39.265 -17.051  -4.553  1.00  0.00     0.127 HD
ENDBRANCH  12  24
TORSDOF 3
ENDMDL
MODEL 4
REMARK VINA RESULT:      -7.0      4.163      6.873
REMARK  3 active torsions:
REMARK  status: ('A' for Active; 'I' for Inactive)
REMARK    1  A    between atoms: O_2  and  C_3 
REMARK    2  A    between atoms: C_4  and  C_5 
REMARK    3  A    between atoms: C_16  and  N_17 
ROOT
HETATM    1  C   UNL     1      41.721 -13.714   1.321  1.00  0.00     0.246 A 
HETATM    2  N   UNL     1      41.553 -15.012   1.935  1.00  0.00    -0.151 N 
HETATM    3  C   UNL     1      40.477 -15.274   2.744  1.00  0.00     0.734 A 
HETATM    4  N   UNL     1      40.559 -16.506   3.199  1.00  0.00    -0.060 NA
HETATM    5  C   UNL     1      41.727 -17.027   2.701  1.00  0.00     0.103 A 
HETATM    6  C   UNL     1      42.389 -16.096   1.908  1.00  0.00     0.083 A 
HETATM    7  C   UNL     1      42.293 -18.295   2.892  1.00  0.00     0.034 A 
HETATM    8  C   UNL     1      43.515 -18.585   2.274  1.00  0.00     0.002 A 
HETATM    9  C   UNL     1      44.161 -17.632   1.484  1.00  0.00     0.002 A 
HETATM   10  C   UNL     1      43.612 -16.359   1.281  1.00  0.00     0.033 A 
HETATM   11  N   UNL     1      39.516 -14.359   3.006  1.00  0.00    -0.033 NA
HETATM   12  C   UNL     1      39.656 -13.165   2.552  1.00  0.00     0.193 A 
HETATM   13  N   UNL     1      40.725 -12.739   1.761  1.00  0.00    -0.338 N 
HETATM   14  H   UNL     1      40.763 -11.810   1.370  1.00  0.00     0.164 HD
ENDROOT
BRANCH   1  15
HETATM   15  C   UNL     1      41.674 -13.739  -0.201  1.00  0.00     0.020 A 
HETATM   16  C   UNL     1      42.279 -12.685  -0.919  1.00  0.00     0.078 A 
HETATM   17  C   UNL     1      42.220 -12.661  -2.317  1.00  0.00     0.039 A 
HETATM   18  C   UNL     1      41.572 -13.683  -3.013  1.00  0.00     0.022 A 
HETATM   19  C   UNL     1      40.965 -14.719  -2.313  1.00  0.00     0.011 A 
HETATM   20  C   UNL     1      40.998 -14.746  -0.919  1.00  0.00     0.033 A 
HETATM   21 BR   UNL     1      40.082 -16.097  -3.257  1.00  0.00    -0.051 Br
BRANCH  16  22
HETATM   22  O   UNL     1      42.860 -11.705  -0.155  1.00  0.00    -0.355 OA
HETATM   23  C   UNL     1      43.170 -10.477  -0.813  1.00  0.00     0.210 C 
ENDBRANCH  16  22
ENDBRANCH   1  15
BRANCH  12  24
HETATM   24  N   UNL     1      38.763 -12.182   2.789  1.00  0.00    -0.272 NA
HETATM   25  H   UNL     1      39.158 -11.473   3.403  1.00  0.00     0.127 HD
HETATM   26  H   UNL     1      38.330 -11.762   1.977  1.00  0.00     0.127 HD
ENDBRANCH  12  24
TORSDOF 3
ENDMDL
MODEL 5
REMARK VINA RESULT:      -7.0      2.436      5.177
REMARK  3 active torsions:
REMARK  status: ('A' for Active; 'I' for Inactive)
REMARK    1  A    between atoms: O_2  and  C_3 
REMARK    2  A    between atoms: C_4  and  C_5 
REMARK    3  A    between atoms: C_16  and  N_17 
ROOT
HETATM    1  C   UNL     1      43.942 -17.165   4.408  1.00  0.00     0.246 A 
HETATM    2  N   UNL     1      44.074 -18.526   4.881  1.00  0.00    -0.151 N 
HETATM    3  C   UNL     1      44.089 -18.806   6.223  1.00  0.00     0.734 A 
HETATM    4  N   UNL     1      44.241 -20.101   6.399  1.00  0.00    -0.060 NA
HETATM    5  C   UNL     1      44.363 -20.652   5.148  1.00  0.00     0.103 A 
HETATM    6  C   UNL     1      44.277 -19.674   4.163  1.00  0.00     0.083 A 
HETATM    7  C   UNL     1      44.557 -21.990   4.776  1.00  0.00     0.034 A 
HETATM    8  C   UNL     1      44.660 -22.299   3.414  1.00  0.00     0.002 A 
HETATM    9  C   UNL     1      44.573 -21.298   2.444  1.00  0.00     0.002 A 
HETATM   10  C   UNL     1      44.379 -19.956   2.796  1.00  0.00     0.033 A 
HETATM   11  N   UNL     1      43.971 -17.851   7.172  1.00  0.00    -0.033 NA
HETATM   12  C   UNL     1      43.932 -16.619   6.812  1.00  0.00     0.193 A 
HETATM   13  N   UNL     1      43.963 -16.180   5.486  1.00  0.00    -0.338 N 
HETATM   14  H   UNL     1      43.864 -15.206   5.243  1.00  0.00     0.164 HD
ENDROOT
BRANCH   1  15
HETATM   15  C   UNL     1      42.677 -16.911   3.600  1.00  0.00     0.020 A 
HETATM   16  C   UNL     1      41.423 -17.061   4.232  1.00  0.00     0.078 A 
HETATM   17  C   UNL     1      40.242 -16.871   3.506  1.00  0.00     0.039 A 
HETATM   18  C   UNL     1      40.293 -16.521   2.156  1.00  0.00     0.022 A 
HETATM   19  C   UNL     1      41.522 -16.379   1.524  1.00  0.00     0.011 A 
HETATM   20  C   UNL     1      42.708 -16.586   2.229  1.00  0.00     0.033 A 
HETATM   21 BR   UNL     1      41.589 -15.912  -0.306  1.00  0.00    -0.051 Br
BRANCH  16  22
HETATM   22  O   UNL     1      41.466 -17.444   5.548  1.00  0.00    -0.355 OA
HETATM   23  C   UNL     1      40.474 -16.888   6.410  1.00  0.00     0.210 C 
ENDBRANCH  16  22
ENDBRANCH   1  15
BRANCH  12  24
HETATM   24  N   UNL     1      43.846 -15.600   7.692  1.00  0.00    -0.272 NA
HETATM   25  H   UNL     1      43.080 -14.975   7.452  1.00  0.00     0.127 HD
HETATM   26  H   UNL     1      43.818 -15.853   8.672  1.00  0.00     0.127 HD
ENDBRANCH  12  24
TORSDOF 3
ENDMDL
MODEL 6
REMARK VINA RESULT:      -6.9      2.703      4.691
REMARK  3 active torsions:
REMARK  status: ('A' for Active; 'I' for Inactive)
REMARK    1  A    between atoms: O_2  and  C_3 
REMARK    2  A    between atoms: C_4  and  C_5 
REMARK    3  A    between atoms: C_16  and  N_17 
ROOT
HETATM    1  C   UNL     1      43.594 -14.801   4.571  1.00  0.00     0.246 A 
HETATM    2  N   UNL     1      43.705 -16.243   4.565  1.00  0.00    -0.151 N 
HETATM    3  C   UNL     1      43.955 -16.935   5.722  1.00  0.00     0.734 A 
HETATM    4  N   UNL     1      44.035 -18.221   5.456  1.00  0.00    -0.060 NA
HETATM    5  C   UNL     1      43.871 -18.348   4.099  1.00  0.00     0.103 A 
HETATM    6  C   UNL     1      43.675 -17.107   3.503  1.00  0.00     0.083 A 
HETATM    7  C   UNL     1      43.883 -19.501   3.301  1.00  0.00     0.034 A 
HETATM    8  C   UNL     1      43.699 -19.364   1.920  1.00  0.00     0.002 A 
HETATM    9  C   UNL     1      43.507 -18.105   1.346  1.00  0.00     0.002 A 
HETATM   10  C   UNL     1      43.491 -16.942   2.125  1.00  0.00     0.033 A 
HETATM   11  N   UNL     1      44.098 -16.329   6.922  1.00  0.00    -0.033 NA
HETATM   12  C   UNL     1      44.088 -15.046   6.975  1.00  0.00     0.193 A 
HETATM   13  N   UNL     1      43.899 -14.209   5.872  1.00  0.00    -0.338 N 
HETATM   14  H   UNL     1      43.833 -13.208   5.967  1.00  0.00     0.164 HD
ENDROOT
BRANCH   1  15
HETATM   15  C   UNL     1      42.221 -14.285   4.162  1.00  0.00     0.020 A 
HETATM   16  C   UNL     1      41.102 -14.620   4.954  1.00  0.00     0.078 A 
HETATM   17  C   UNL     1      39.823 -14.192   4.583  1.00  0.00     0.039 A 
HETATM   18  C   UNL     1      39.644 -13.421   3.432  1.00  0.00     0.022 A 
HETATM   19  C   UNL     1      40.739 -13.094   2.642  1.00  0.00     0.011 A 
HETATM   20  C   UNL     1      42.017 -13.531   2.988  1.00  0.00     0.033 A 
HETATM   21 BR   UNL     1      40.493 -12.057   1.081  1.00  0.00    -0.051 Br
BRANCH  16  22
HETATM   22  O   UNL     1      41.364 -15.411   6.043  1.00  0.00    -0.355 OA
HETATM   23  C   UNL     1      40.495 -16.524   6.252  1.00  0.00     0.210 C 
ENDBRANCH  16  22
ENDBRANCH   1  15
BRANCH  12  24
HETATM   24  N   UNL     1      44.254 -14.358   8.124  1.00  0.00    -0.272 NA
HETATM   25  H   UNL     1      45.063 -14.700   8.638  1.00  0.00     0.127 HD
HETATM   26  H   UNL     1      44.269 -13.350   8.047  1.00  0.00     0.127 HD
ENDBRANCH  12  24
TORSDOF 3
ENDMDL
MODEL 7
REMARK VINA RESULT:      -6.9      2.435      3.027
REMARK  3 active torsions:
REMARK  status: ('A' for Active; 'I' for Inactive)
REMARK    1  A    between atoms: O_2  and  C_3 
REMARK    2  A    between atoms: C_4  and  C_5 
REMARK    3  A    between atoms: C_16  and  N_17 
ROOT
HETATM    1  C   UNL     1      40.758 -16.074   5.286  1.00  0.00     0.246 A 
HETATM    2  N   UNL     1      40.843 -15.433   3.992  1.00  0.00    -0.151 N 
HETATM    3  C   UNL     1      40.557 -14.100   3.846  1.00  0.00     0.734 A 
HETATM    4  N   UNL     1      40.682 -13.760   2.581  1.00  0.00    -0.060 NA
HETATM    5  C   UNL     1      41.018 -14.905   1.903  1.00  0.00     0.103 A 
HETATM    6  C   UNL     1      41.112 -15.988   2.770  1.00  0.00     0.083 A 
HETATM    7  C   UNL     1      41.253 -15.096   0.533  1.00  0.00     0.034 A 
HETATM    8  C   UNL     1      41.576 -16.380   0.081  1.00  0.00     0.002 A 
HETATM    9  C   UNL     1      41.662 -17.452   0.971  1.00  0.00     0.002 A 
HETATM   10  C   UNL     1      41.431 -17.282   2.342  1.00  0.00     0.033 A 
HETATM   11  N   UNL     1      40.196 -13.310   4.883  1.00  0.00    -0.033 NA
HETATM   12  C   UNL     1      40.026 -13.843   6.039  1.00  0.00     0.193 A 
HETATM   13  N   UNL     1      40.226 -15.195   6.326  1.00  0.00    -0.338 N 
HETATM   14  H   UNL     1      40.146 -15.560   7.262  1.00  0.00     0.164 HD
ENDROOT
BRANCH   1  15
HETATM   15  C   UNL     1      42.086 -16.613   5.798  1.00  0.00     0.020 A 
HETATM   16  C   UNL     1      43.116 -15.701   6.115  1.00  0.00     0.078 A 
HETATM   17  C   UNL     1      44.360 -16.168   6.552  1.00  0.00     0.039 A 
HETATM   18  C   UNL     1      44.590 -17.539   6.688  1.00  0.00     0.022 A 
HETATM   19  C   UNL     1      43.585 -18.444   6.370  1.00  0.00     0.011 A 
HETATM   20  C   UNL     1      42.347 -17.994   5.914  1.00  0.00     0.033 A 
HETATM   21 BR   UNL     1      43.901 -20.298   6.549  1.00  0.00    -0.051 Br
BRANCH  16  22
HETATM   22  O   UNL     1      42.816 -14.378   5.914  1.00  0.00    -0.355 OA
HETATM   23  C   UNL     1      43.680 -13.424   6.531  1.00  0.00     0.210 C 
ENDBRANCH  16  22
ENDBRANCH   1  15
BRANCH  12  24
HETATM   24  N   UNL     1      39.638 -13.137   7.121  1.00  0.00    -0.272 NA
HETATM   25  H   UNL     1      38.640 -13.248   7.288  1.00  0.00     0.127 HD
HETATM   26  H   UNL     1      40.169 -13.283   7.969  1.00  0.00     0.127 HD
ENDBRANCH  12  24
TORSDOF 3
ENDMDL
MODEL 8
REMARK VINA RESULT:      -6.9      4.836      7.378
REMARK  3 active torsions:
REMARK  status: ('A' for Active; 'I' for Inactive)
REMARK    1  A    between atoms: O_2  and  C_3 
REMARK    2  A    between atoms: C_4  and  C_5 
REMARK    3  A    between atoms: C_16  and  N_17 
ROOT
HETATM    1  C   UNL     1      40.987 -15.060  -0.083  1.00  0.00     0.246 A 
HETATM    2  N   UNL     1      40.892 -14.493   1.244  1.00  0.00    -0.151 N 
HETATM    3  C   UNL     1      41.703 -14.935   2.259  1.00  0.00     0.734 A 
HETATM    4  N   UNL     1      41.413 -14.287   3.366  1.00  0.00    -0.060 NA
HETATM    5  C   UNL     1      40.373 -13.444   3.062  1.00  0.00     0.103 A 
HETATM    6  C   UNL     1      40.010 -13.563   1.725  1.00  0.00     0.083 A 
HETATM    7  C   UNL     1      39.681 -12.545   3.887  1.00  0.00     0.034 A 
HETATM    8  C   UNL     1      38.639 -11.793   3.333  1.00  0.00     0.002 A 
HETATM    9  C   UNL     1      38.291 -11.933   1.988  1.00  0.00     0.002 A 
HETATM   10  C   UNL     1      38.971 -12.825   1.148  1.00  0.00     0.033 A 
HETATM   11  N   UNL     1      42.633 -15.901   2.085  1.00  0.00    -0.033 NA
HETATM   12  C   UNL     1      42.706 -16.496   0.949  1.00  0.00     0.193 A 
HETATM   13  N   UNL     1      41.910 -16.191  -0.157  1.00  0.00    -0.338 N 
HETATM   14  H   UNL     1      42.045 -16.637  -1.051  1.00  0.00     0.164 HD
ENDROOT
BRANCH   1  15
HETATM   15  C   UNL     1      41.419 -14.065  -1.151  1.00  0.00     0.020 A 
HETATM   16  C   UNL     1      41.182 -14.375  -2.508  1.00  0.00     0.078 A 
HETATM   17  C   UNL     1      41.600 -13.498  -3.514  1.00  0.00     0.039 A 
HETATM   18  C   UNL     1      42.246 -12.305  -3.185  1.00  0.00     0.022 A 
HETATM   19  C   UNL     1      42.492 -11.996  -1.853  1.00  0.00     0.011 A 
HETATM   20  C   UNL     1      42.099 -12.870  -0.840  1.00  0.00     0.033 A 
HETATM   21 BR   UNL     1      43.373 -10.383  -1.411  1.00  0.00    -0.051 Br
BRANCH  16  22
HETATM   22  O   UNL     1      40.577 -15.584  -2.741  1.00  0.00    -0.355 OA
HETATM   23  C   UNL     1      39.509 -15.595  -3.687  1.00  0.00     0.210 C 
ENDBRANCH  16  22
ENDBRANCH   1  15
BRANCH  12  24
HETATM   24  N   UNL     1      43.582 -17.490   0.698  1.00  0.00    -0.272 NA
HETATM   25  H   UNL     1      43.750 -17.582  -0.301  1.00  0.00     0.127 HD
HETATM   26  H   UNL     1      44.452 -17.464   1.214  1.00  0.00     0.127 HD
ENDBRANCH  12  24
TORSDOF 3
ENDMDL
MODEL 9
REMARK VINA RESULT:      -6.9      2.869      3.650
REMARK  3 active torsions:
REMARK  status: ('A' for Active; 'I' for Inactive)
REMARK    1  A    between atoms: O_2  and  C_3 
REMARK    2  A    between atoms: C_4  and  C_5 
REMARK    3  A    between atoms: C_16  and  N_17 
ROOT
HETATM    1  C   UNL     1      40.790 -15.428   5.360  1.00  0.00     0.246 A 
HETATM    2  N   UNL     1      40.690 -14.847   4.039  1.00  0.00    -0.151 N 
HETATM    3  C   UNL     1      40.096 -13.625   3.850  1.00  0.00     0.734 A 
HETATM    4  N   UNL     1      40.107 -13.326   2.569  1.00  0.00    -0.060 NA
HETATM    5  C   UNL     1      40.684 -14.392   1.925  1.00  0.00     0.103 A 
HETATM    6  C   UNL     1      41.050 -15.382   2.831  1.00  0.00     0.083 A 
HETATM    7  C   UNL     1      40.923 -14.588   0.557  1.00  0.00     0.034 A 
HETATM    8  C   UNL     1      41.526 -15.782   0.145  1.00  0.00     0.002 A 
HETATM    9  C   UNL     1      41.882 -16.761   1.075  1.00  0.00     0.002 A 
HETATM   10  C   UNL     1      41.652 -16.585   2.445  1.00  0.00     0.033 A 
HETATM   11  N   UNL     1      39.587 -12.893   4.866  1.00  0.00    -0.033 NA
HETATM   12  C   UNL     1      39.575 -13.395   6.048  1.00  0.00     0.193 A 
HETATM   13  N   UNL     1      40.094 -14.648   6.382  1.00  0.00    -0.338 N 
HETATM   14  H   UNL     1      40.125 -14.977   7.334  1.00  0.00     0.164 HD
ENDROOT
BRANCH   1  15
HETATM   15  C   UNL     1      42.220 -15.618   5.846  1.00  0.00     0.020 A 
HETATM   16  C   UNL     1      42.767 -16.920   5.863  1.00  0.00     0.078 A 
HETATM   17  C   UNL     1      44.065 -17.132   6.338  1.00  0.00     0.039 A 
HETATM   18  C   UNL     1      44.834 -16.058   6.791  1.00  0.00     0.022 A 
HETATM   19  C   UNL     1      44.301 -14.775   6.786  1.00  0.00     0.011 A 
HETATM   20  C   UNL     1      43.000 -14.551   6.334  1.00  0.00     0.033 A 
HETATM   21 BR   UNL     1      45.341 -13.323   7.405  1.00  0.00    -0.051 Br
BRANCH  16  22
HETATM   22  O   UNL     1      41.929 -17.919   5.437  1.00  0.00    -0.355 OA
HETATM   23  C   UNL     1      42.546 -19.096   4.918  1.00  0.00     0.210 C 
ENDBRANCH  16  22
ENDBRANCH   1  15
BRANCH  12  24
HETATM   24  N   UNL     1      39.060 -12.748   7.113  1.00  0.00    -0.272 NA
HETATM   25  H   UNL     1      38.121 -13.080   7.321  1.00  0.00     0.127 HD
HETATM   26  H   UNL     1      39.632 -12.726   7.947  1.00  0.00     0.127 HD
ENDBRANCH  12  24
TORSDOF 3
ENDMDL
MODEL 10
REMARK VINA RESULT:      -6.8      1.761      1.903
REMARK  3 active torsions:
REMARK  status: ('A' for Active; 'I' for Inactive)
REMARK    1  A    between atoms: O_2  and  C_3 
REMARK    2  A    between atoms: C_4  and  C_5 
REMARK    3  A    between atoms: C_16  and  N_17 
ROOT
HETATM    1  C   UNL     1      41.426 -15.115   5.189  1.00  0.00     0.246 A 
HETATM    2  N   UNL     1      41.138 -14.108   4.192  1.00  0.00    -0.151 N 
HETATM    3  C   UNL     1      41.711 -12.864   4.262  1.00  0.00     0.734 A 
HETATM    4  N   UNL     1      41.278 -12.125   3.263  1.00  0.00    -0.060 NA
HETATM    5  C   UNL     1      40.385 -12.899   2.565  1.00  0.00     0.103 A 
HETATM    6  C   UNL     1      40.263 -14.159   3.140  1.00  0.00     0.083 A 
HETATM    7  C   UNL     1      39.631 -12.586   1.425  1.00  0.00     0.034 A 
HETATM    8  C   UNL     1      38.773 -13.559   0.900  1.00  0.00     0.002 A 
HETATM    9  C   UNL     1      38.667 -14.817   1.498  1.00  0.00     0.002 A 
HETATM   10  C   UNL     1      39.411 -15.149   2.637  1.00  0.00     0.033 A 
HETATM   11  N   UNL     1      42.573 -12.508   5.241  1.00  0.00    -0.033 NA
HETATM   12  C   UNL     1      42.803 -13.335   6.197  1.00  0.00     0.193 A 
HETATM   13  N   UNL     1      42.250 -14.614   6.287  1.00  0.00    -0.338 N 
HETATM   14  H   UNL     1      42.508 -15.257   7.020  1.00  0.00     0.164 HD
ENDROOT
BRANCH   1  15
HETATM   15  C   UNL     1      42.126 -16.350   4.638  1.00  0.00     0.020 A 
HETATM   16  C   UNL     1      42.370 -17.439   5.503  1.00  0.00     0.078 A 
HETATM   17  C   UNL     1      43.044 -18.572   5.035  1.00  0.00     0.039 A 
HETATM   18  C   UNL     1      43.472 -18.639   3.707  1.00  0.00     0.022 A 
HETATM   19  C   UNL     1      43.245 -17.568   2.852  1.00  0.00     0.011 A 
HETATM   20  C   UNL     1      42.592 -16.424   3.310  1.00  0.00     0.033 A 
HETATM   21 BR   UNL     1      43.832 -17.659   1.058  1.00  0.00    -0.051 Br
BRANCH  16  22
HETATM   22  O   UNL     1      41.950 -17.272   6.798  1.00  0.00    -0.355 OA
HETATM   23  C   UNL     1      42.896 -17.571   7.823  1.00  0.00     0.210 C 
ENDBRANCH  16  22
ENDBRANCH   1  15
BRANCH  12  24
HETATM   24  N   UNL     1      43.625 -13.051   7.228  1.00  0.00    -0.272 NA
HETATM   25  H   UNL     1      44.091 -12.158   7.086  1.00  0.00     0.127 HD
HETATM   26  H   UNL     1      43.221 -13.110   8.154  1.00  0.00     0.127 HD
ENDBRANCH  12  24
TORSDOF 3
ENDMDL
