MODEL 1
REMARK VINA RESULT:      -8.6      0.000      0.000
REMARK  6 active torsions:
REMARK  status: ('A' for Active; 'I' for Inactive)
REMARK    1  A    between atoms: C_2  and  C_3 
REMARK    2  A    between atoms: C_7  and  C_8 
REMARK       I    between atoms: C_8  and  N_9 
REMARK    3  A    between atoms: N_9  and  C_10 
REMARK    4  A    between atoms: C_13  and  C_14 
REMARK       I    between atoms: C_14  and  N_15 
REMARK    5  A    between atoms: N_15  and  C_16 
REMARK    6  A    between atoms: C_16  and  C_17 
ROOT
HETATM    1  C   UNL     1      43.313 -13.996   6.054  1.00  0.00     0.035 A 
HETATM    2  C   UNL     1      43.311 -15.378   6.292  1.00  0.00     0.030 A 
HETATM    3  C   UNL     1      43.368 -16.289   5.230  1.00  0.00     0.019 A 
HETATM    4  C   UNL     1      43.407 -15.819   3.914  1.00  0.00     0.032 A 
HETATM    5  C   UNL     1      43.356 -14.446   3.668  1.00  0.00     0.019 A 
HETATM    6  C   UNL     1      43.319 -13.540   4.733  1.00  0.00     0.030 A 
ENDROOT
BRANCH   1   7
HETATM    7  N   UNL     1      43.296 -13.139   7.174  1.00  0.00    -0.322 N 
HETATM    8  C   UNL     1      44.342 -12.885   8.040  1.00  0.00     0.274 C 
HETATM    9  O   UNL     1      45.442 -13.426   8.002  1.00  0.00    -0.266 OA
HETATM   10  H   UNL     1      42.399 -12.751   7.427  1.00  0.00     0.169 HD
BRANCH   8  11
HETATM   11  C   UNL     1      44.039 -11.937   9.085  1.00  0.00     0.120 A 
HETATM   12  N   UNL     1      42.973 -11.084   8.974  1.00  0.00    -0.273 N 
HETATM   13  N   UNL     1      42.824 -10.252  10.015  1.00  0.00    -0.179 NA
HETATM   14  H   UNL     1      42.320 -11.026   8.198  1.00  0.00     0.189 HD
HETATM   15  C   UNL     1      43.798 -10.612  10.859  1.00  0.00     0.056 A 
HETATM   16  C   UNL     1      44.594 -11.652  10.319  1.00  0.00     0.065 A 
BRANCH  15  17
HETATM   17  C   UNL     1      43.936  -9.936  12.180  1.00  0.00     0.056 C 
HETATM   18  C   UNL     1      42.870 -10.376  13.173  1.00  0.00     0.011 C 
ENDBRANCH  15  17
ENDBRANCH   8  11
ENDBRANCH   1   7
BRANCH   4  19
HETATM   19  C   UNL     1      43.514 -16.732   2.748  1.00  0.00     0.251 C 
HETATM   20  N   UNL     1      42.788 -17.896   2.830  1.00  0.00    -0.353 N 
HETATM   21  H   UNL     1      42.223 -18.095   3.644  1.00  0.00     0.163 HD
HETATM   22  O   UNL     1      44.263 -16.456   1.819  1.00  0.00    -0.268 OA
BRANCH  20  23
HETATM   23  C   UNL     1      42.928 -18.938   1.836  1.00  0.00     0.161 C 
BRANCH  23  24
HETATM   24  C   UNL     1      43.645 -20.146   2.389  1.00  0.00    -0.041 A 
HETATM   25  C   UNL     1      44.226 -20.101   3.664  1.00  0.00     0.009 A 
HETATM   26  C   UNL     1      44.857 -21.227   4.197  1.00  0.00     0.001 A 
HETATM   27  C   UNL     1      44.912 -22.411   3.464  1.00  0.00     0.000 A 
HETATM   28  C   UNL     1      44.325 -22.474   2.202  1.00  0.00     0.001 A 
HETATM   29  C   UNL     1      43.687 -21.352   1.672  1.00  0.00     0.009 A 
ENDBRANCH  23  24
ENDBRANCH  20  23
ENDBRANCH   4  19
TORSDOF 6
ENDMDL
MODEL 2
REMARK VINA RESULT:      -7.9      5.742      8.997
REMARK  6 active torsions:
REMARK  status: ('A' for Active; 'I' for Inactive)
REMARK    1  A    between atoms: C_2  and  C_3 
REMARK    2  A    between atoms: C_7  and  C_8 
REMARK       I    between atoms: C_8  and  N_9 
REMARK    3  A    between atoms: N_9  and  C_10 
REMARK    4  A    between atoms: C_13  and  C_14 
REMARK       I    between atoms: C_14  and  N_15 
REMARK    5  A    between atoms: N_15  and  C_16 
REMARK    6  A    between atoms: C_16  and  C_17 
ROOT
HETATM    1  C   UNL     1      40.369 -15.563   0.917  1.00  0.00     0.035 A 
HETATM    2  C   UNL     1      40.236 -15.088   2.230  1.00  0.00     0.030 A 
HETATM    3  C   UNL     1      40.864 -15.743   3.296  1.00  0.00     0.019 A 
HETATM    4  C   UNL     1      41.616 -16.896   3.056  1.00  0.00     0.032 A 
HETATM    5  C   UNL     1      41.709 -17.404   1.759  1.00  0.00     0.019 A 
HETATM    6  C   UNL     1      41.097 -16.735   0.694  1.00  0.00     0.030 A 
ENDROOT
BRANCH   1   7
HETATM    7  N   UNL     1      39.743 -14.827  -0.111  1.00  0.00    -0.322 N 
HETATM    8  C   UNL     1      40.348 -13.946  -0.988  1.00  0.00     0.274 C 
HETATM    9  O   UNL     1      41.528 -13.616  -0.960  1.00  0.00    -0.266 OA
HETATM   10  H   UNL     1      38.735 -14.873  -0.144  1.00  0.00     0.169 HD
BRANCH   8  11
HETATM   11  C   UNL     1      39.455 -13.358  -1.957  1.00  0.00     0.120 A 
HETATM   12  N   UNL     1      39.845 -12.285  -2.713  1.00  0.00    -0.273 N 
HETATM   13  N   UNL     1      38.906 -11.839  -3.560  1.00  0.00    -0.179 NA
HETATM   14  H   UNL     1      40.745 -11.813  -2.680  1.00  0.00     0.189 HD
HETATM   15  C   UNL     1      37.886 -12.685  -3.386  1.00  0.00     0.056 A 
HETATM   16  C   UNL     1      38.172 -13.645  -2.385  1.00  0.00     0.065 A 
BRANCH  15  17
HETATM   17  C   UNL     1      36.645 -12.544  -4.201  1.00  0.00     0.056 C 
HETATM   18  C   UNL     1      36.126 -13.883  -4.706  1.00  0.00     0.011 C 
ENDBRANCH  15  17
ENDBRANCH   8  11
ENDBRANCH   1   7
BRANCH   4  19
HETATM   19  C   UNL     1      42.343 -17.610   4.137  1.00  0.00     0.251 C 
HETATM   20  N   UNL     1      43.677 -17.848   3.905  1.00  0.00    -0.353 N 
HETATM   21  H   UNL     1      44.113 -17.546   3.045  1.00  0.00     0.163 HD
HETATM   22  O   UNL     1      41.739 -18.000   5.128  1.00  0.00    -0.268 OA
BRANCH  20  23
HETATM   23  C   UNL     1      44.458 -18.670   4.804  1.00  0.00     0.161 C 
BRANCH  23  24
HETATM   24  C   UNL     1      44.499 -20.109   4.352  1.00  0.00    -0.041 A 
HETATM   25  C   UNL     1      44.327 -20.431   2.998  1.00  0.00     0.009 A 
HETATM   26  C   UNL     1      44.403 -21.758   2.568  1.00  0.00     0.001 A 
HETATM   27  C   UNL     1      44.654 -22.777   3.485  1.00  0.00     0.000 A 
HETATM   28  C   UNL     1      44.842 -22.470   4.831  1.00  0.00     0.001 A 
HETATM   29  C   UNL     1      44.775 -21.144   5.261  1.00  0.00     0.009 A 
ENDBRANCH  23  24
ENDBRANCH  20  23
ENDBRANCH   4  19
TORSDOF 6
ENDMDL
MODEL 3
REMARK VINA RESULT:      -7.9      3.083      3.225
REMARK  6 active torsions:
REMARK  status: ('A' for Active; 'I' for Inactive)
REMARK    1  A    between atoms: C_2  and  C_3 
REMARK    2  A    between atoms: C_7  and  C_8 
REMARK       I    between atoms: C_8  and  N_9 
REMARK    3  A    between atoms: N_9  and  C_10 
REMARK    4  A    between atoms: C_13  and  C_14 
REMARK       I    between atoms: C_14  and  N_15 
REMARK    5  A    between atoms: N_15  and  C_16 
REMARK    6  A    between atoms: C_16  and  C_17 
ROOT
HETATM    1  C   UNL     1      41.203 -13.222   5.710  1.00  0.00     0.035 A 
HETATM    2  C   UNL     1      40.453 -14.397   5.551  1.00  0.00     0.030 A 
HETATM    3  C   UNL     1      40.708 -15.273   4.489  1.00  0.00     0.019 A 
HETATM    4  C   UNL     1      41.707 -14.966   3.562  1.00  0.00     0.032 A 
HETATM    5  C   UNL     1      42.422 -13.773   3.684  1.00  0.00     0.019 A 
HETATM    6  C   UNL     1      42.177 -12.911   4.757  1.00  0.00     0.030 A 
ENDROOT
BRANCH   1   7
HETATM    7  N   UNL     1      40.918 -12.410   6.827  1.00  0.00    -0.322 N 
HETATM    8  C   UNL     1      39.798 -11.623   7.017  1.00  0.00     0.274 C 
HETATM    9  O   UNL     1      38.899 -11.459   6.199  1.00  0.00    -0.266 OA
HETATM   10  H   UNL     1      41.654 -12.317   7.512  1.00  0.00     0.169 HD
BRANCH   8  11
HETATM   11  C   UNL     1      39.766 -10.920   8.277  1.00  0.00     0.120 A 
HETATM   12  N   UNL     1      40.687 -11.185   9.255  1.00  0.00    -0.273 N 
HETATM   13  N   UNL     1      40.524 -10.465  10.374  1.00  0.00    -0.179 NA
HETATM   14  H   UNL     1      41.446 -11.860   9.208  1.00  0.00     0.189 HD
HETATM   15  C   UNL     1      39.489  -9.665  10.096  1.00  0.00     0.056 A 
HETATM   16  C   UNL     1      38.970  -9.919   8.802  1.00  0.00     0.065 A 
BRANCH  15  17
HETATM   17  C   UNL     1      39.022  -8.663  11.096  1.00  0.00     0.056 C 
HETATM   18  C   UNL     1      37.745  -9.097  11.801  1.00  0.00     0.011 C 
ENDBRANCH  15  17
ENDBRANCH   8  11
ENDBRANCH   1   7
BRANCH   4  19
HETATM   19  C   UNL     1      42.056 -15.876   2.440  1.00  0.00     0.251 C 
HETATM   20  N   UNL     1      42.011 -17.220   2.723  1.00  0.00    -0.353 N 
HETATM   21  H   UNL     1      41.753 -17.545   3.645  1.00  0.00     0.163 HD
HETATM   22  O   UNL     1      42.416 -15.413   1.365  1.00  0.00    -0.268 OA
BRANCH  20  23
HETATM   23  C   UNL     1      42.479 -18.202   1.770  1.00  0.00     0.161 C 
BRANCH  23  24
HETATM   24  C   UNL     1      43.323 -19.265   2.430  1.00  0.00    -0.041 A 
HETATM   25  C   UNL     1      43.901 -19.031   3.686  1.00  0.00     0.009 A 
HETATM   26  C   UNL     1      44.651 -20.024   4.319  1.00  0.00     0.001 A 
HETATM   27  C   UNL     1      44.830 -21.263   3.705  1.00  0.00     0.000 A 
HETATM   28  C   UNL     1      44.249 -21.514   2.465  1.00  0.00     0.001 A 
HETATM   29  C   UNL     1      43.492 -20.526   1.835  1.00  0.00     0.009 A 
ENDBRANCH  23  24
ENDBRANCH  20  23
ENDBRANCH   4  19
TORSDOF 6
ENDMDL
MODEL 4
REMARK VINA RESULT:      -7.8      1.914     10.234
REMARK  6 active torsions:
REMARK  status: ('A' for Active; 'I' for Inactive)
REMARK    1  A    between atoms: C_2  and  C_3 
REMARK    2  A    between atoms: C_7  and  C_8 
REMARK       I    between atoms: C_8  and  N_9 
REMARK    3  A    between atoms: N_9  and  C_10 
REMARK    4  A    between atoms: C_13  and  C_14 
REMARK       I    between atoms: C_14  and  N_15 
REMARK    5  A    between atoms: N_15  and  C_16 
REMARK    6  A    between atoms: C_16  and  C_17 
ROOT
HETATM    1  C   UNL     1      42.706 -15.895   4.967  1.00  0.00     0.035 A 
HETATM    2  C   UNL     1      41.454 -15.336   4.670  1.00  0.00     0.030 A 
HETATM    3  C   UNL     1      41.116 -14.054   5.119  1.00  0.00     0.019 A 
HETATM    4  C   UNL     1      42.027 -13.326   5.890  1.00  0.00     0.032 A 
HETATM    5  C   UNL     1      43.254 -13.897   6.233  1.00  0.00     0.019 A 
HETATM    6  C   UNL     1      43.594 -15.171   5.766  1.00  0.00     0.030 A 
ENDROOT
BRANCH   1   7
HETATM    7  N   UNL     1      42.991 -17.174   4.446  1.00  0.00    -0.322 N 
HETATM    8  C   UNL     1      43.577 -17.462   3.227  1.00  0.00     0.274 C 
HETATM    9  O   UNL     1      43.881 -16.635   2.374  1.00  0.00    -0.266 OA
HETATM   10  H   UNL     1      42.640 -17.961   4.972  1.00  0.00     0.169 HD
BRANCH   8  11
HETATM   11  C   UNL     1      43.772 -18.869   2.973  1.00  0.00     0.120 A 
HETATM   12  N   UNL     1      43.396 -19.428   1.781  1.00  0.00    -0.273 N 
HETATM   13  N   UNL     1      43.626 -20.746   1.695  1.00  0.00    -0.179 NA
HETATM   14  H   UNL     1      42.966 -18.949   0.994  1.00  0.00     0.189 HD
HETATM   15  C   UNL     1      44.221 -21.047   2.854  1.00  0.00     0.056 A 
HETATM   16  C   UNL     1      44.324 -19.911   3.695  1.00  0.00     0.065 A 
BRANCH  15  17
HETATM   17  C   UNL     1      44.682 -22.439   3.124  1.00  0.00     0.056 C 
HETATM   18  C   UNL     1      44.749 -22.750   4.613  1.00  0.00     0.011 C 
ENDBRANCH  15  17
ENDBRANCH   8  11
ENDBRANCH   1   7
BRANCH   4  19
HETATM   19  C   UNL     1      41.746 -11.945   6.358  1.00  0.00     0.251 C 
HETATM   20  N   UNL     1      42.295 -11.600   7.570  1.00  0.00    -0.353 N 
HETATM   21  H   UNL     1      42.852 -12.264   8.091  1.00  0.00     0.163 HD
HETATM   22  O   UNL     1      41.016 -11.212   5.703  1.00  0.00    -0.268 OA
BRANCH  20  23
HETATM   23  C   UNL     1      41.969 -10.345   8.210  1.00  0.00     0.161 C 
BRANCH  23  24
HETATM   24  C   UNL     1      42.572 -10.247   9.590  1.00  0.00    -0.041 A 
HETATM   25  C   UNL     1      43.809 -10.847   9.866  1.00  0.00     0.009 A 
HETATM   26  C   UNL     1      44.390 -10.728  11.130  1.00  0.00     0.001 A 
HETATM   27  C   UNL     1      43.743 -10.007  12.132  1.00  0.00     0.000 A 
HETATM   28  C   UNL     1      42.521  -9.393  11.867  1.00  0.00     0.001 A 
HETATM   29  C   UNL     1      41.943  -9.504  10.602  1.00  0.00     0.009 A 
ENDBRANCH  23  24
ENDBRANCH  20  23
ENDBRANCH   4  19
TORSDOF 6
ENDMDL
MODEL 5
REMARK VINA RESULT:      -7.7      3.090      3.457
REMARK  6 active torsions:
REMARK  status: ('A' for Active; 'I' for Inactive)
REMARK    1  A    between atoms: C_2  and  C_3 
REMARK    2  A    between atoms: C_7  and  C_8 
REMARK       I    between atoms: C_8  and  N_9 
REMARK    3  A    between atoms: N_9  and  C_10 
REMARK    4  A    between atoms: C_13  and  C_14 
REMARK       I    between atoms: C_14  and  N_15 
REMARK    5  A    between atoms: N_15  and  C_16 
REMARK    6  A    between atoms: C_16  and  C_17 
ROOT
HETATM    1  C   UNL     1      41.269 -13.796   5.695  1.00  0.00     0.035 A 
HETATM    2  C   UNL     1      42.112 -13.426   4.636  1.00  0.00     0.030 A 
HETATM    3  C   UNL     1      42.499 -14.361   3.667  1.00  0.00     0.019 A 
HETATM    4  C   UNL     1      42.060 -15.683   3.765  1.00  0.00     0.032 A 
HETATM    5  C   UNL     1      41.263 -16.071   4.845  1.00  0.00     0.019 A 
HETATM    6  C   UNL     1      40.864 -15.130   5.799  1.00  0.00     0.030 A 
ENDROOT
BRANCH   1   7
HETATM    7  N   UNL     1      40.887 -12.792   6.608  1.00  0.00    -0.322 N 
HETATM    8  C   UNL     1      39.655 -12.172   6.693  1.00  0.00     0.274 C 
HETATM    9  O   UNL     1      38.713 -12.359   5.931  1.00  0.00    -0.266 OA
HETATM   10  H   UNL     1      41.620 -12.417   7.194  1.00  0.00     0.169 HD
BRANCH   8  11
HETATM   11  C   UNL     1      39.546 -11.196   7.751  1.00  0.00     0.120 A 
HETATM   12  N   UNL     1      39.701 -11.560   9.062  1.00  0.00    -0.273 N 
HETATM   13  N   UNL     1      39.559 -10.550   9.933  1.00  0.00    -0.179 NA
HETATM   14  H   UNL     1      39.897 -12.493   9.416  1.00  0.00     0.189 HD
HETATM   15  C   UNL     1      39.355  -9.480   9.157  1.00  0.00     0.056 A 
HETATM   16  C   UNL     1      39.325  -9.832   7.785  1.00  0.00     0.065 A 
BRANCH  15  17
HETATM   17  C   UNL     1      39.195  -8.129   9.766  1.00  0.00     0.056 C 
HETATM   18  C   UNL     1      40.324  -7.786  10.728  1.00  0.00     0.011 C 
ENDBRANCH  15  17
ENDBRANCH   8  11
ENDBRANCH   1   7
BRANCH   4  19
HETATM   19  C   UNL     1      42.398 -16.710   2.746  1.00  0.00     0.251 C 
HETATM   20  N   UNL     1      43.409 -17.578   3.084  1.00  0.00    -0.353 N 
HETATM   21  H   UNL     1      43.877 -17.502   3.977  1.00  0.00     0.163 HD
HETATM   22  O   UNL     1      41.831 -16.708   1.661  1.00  0.00    -0.268 OA
BRANCH  20  23
HETATM   23  C   UNL     1      43.940 -18.519   2.123  1.00  0.00     0.161 C 
BRANCH  23  24
HETATM   24  C   UNL     1      44.183 -19.874   2.742  1.00  0.00    -0.041 A 
HETATM   25  C   UNL     1      44.057 -21.038   1.970  1.00  0.00     0.009 A 
HETATM   26  C   UNL     1      44.317 -22.292   2.527  1.00  0.00     0.001 A 
HETATM   27  C   UNL     1      44.709 -22.397   3.861  1.00  0.00     0.000 A 
HETATM   28  C   UNL     1      44.853 -21.248   4.635  1.00  0.00     0.001 A 
HETATM   29  C   UNL     1      44.601 -19.994   4.077  1.00  0.00     0.009 A 
ENDBRANCH  23  24
ENDBRANCH  20  23
ENDBRANCH   4  19
TORSDOF 6
ENDMDL
MODEL 6
REMARK VINA RESULT:      -7.6      1.506      2.612
REMARK  6 active torsions:
REMARK  status: ('A' for Active; 'I' for Inactive)
REMARK    1  A    between atoms: C_2  and  C_3 
REMARK    2  A    between atoms: C_7  and  C_8 
REMARK       I    between atoms: C_8  and  N_9 
REMARK    3  A    between atoms: N_9  and  C_10 
REMARK    4  A    between atoms: C_13  and  C_14 
REMARK       I    between atoms: C_14  and  N_15 
REMARK    5  A    between atoms: N_15  and  C_16 
REMARK    6  A    between atoms: C_16  and  C_17 
ROOT
HETATM    1  C   UNL     1      42.940 -12.348   7.340  1.00  0.00     0.035 A 
HETATM    2  C   UNL     1      42.044 -11.939   6.341  1.00  0.00     0.030 A 
HETATM    3  C   UNL     1      42.039 -12.558   5.085  1.00  0.00     0.019 A 
HETATM    4  C   UNL     1      42.949 -13.582   4.813  1.00  0.00     0.032 A 
HETATM    5  C   UNL     1      43.878 -13.959   5.785  1.00  0.00     0.019 A 
HETATM    6  C   UNL     1      43.867 -13.351   7.044  1.00  0.00     0.030 A 
ENDROOT
BRANCH   1   7
HETATM    7  N   UNL     1      42.859 -11.707   8.594  1.00  0.00    -0.322 N 
HETATM    8  C   UNL     1      43.892 -11.102   9.286  1.00  0.00     0.274 C 
HETATM    9  O   UNL     1      45.067 -11.091   8.937  1.00  0.00    -0.266 OA
HETATM   10  H   UNL     1      41.978 -11.786   9.080  1.00  0.00     0.169 HD
BRANCH   8  11
HETATM   11  C   UNL     1      43.502 -10.500  10.538  1.00  0.00     0.120 A 
HETATM   12  N   UNL     1      42.265  -9.934  10.692  1.00  0.00    -0.273 N 
HETATM   13  N   UNL     1      42.051  -9.402  11.905  1.00  0.00    -0.179 NA
HETATM   14  H   UNL     1      41.532  -9.876   9.991  1.00  0.00     0.189 HD
HETATM   15  C   UNL     1      43.171  -9.679  12.581  1.00  0.00     0.056 A 
HETATM   16  C   UNL     1      44.116 -10.353  11.768  1.00  0.00     0.065 A 
BRANCH  15  17
HETATM   17  C   UNL     1      43.303  -9.283  14.013  1.00  0.00     0.056 C 
HETATM   18  C   UNL     1      42.053  -8.596  14.543  1.00  0.00     0.011 C 
ENDBRANCH  15  17
ENDBRANCH   8  11
ENDBRANCH   1   7
BRANCH   4  19
HETATM   19  C   UNL     1      42.964 -14.309   3.517  1.00  0.00     0.251 C 
HETATM   20  N   UNL     1      42.819 -15.674   3.595  1.00  0.00    -0.353 N 
HETATM   21  H   UNL     1      42.712 -16.131   4.489  1.00  0.00     0.163 HD
HETATM   22  O   UNL     1      43.157 -13.698   2.474  1.00  0.00    -0.268 OA
BRANCH  20  23
HETATM   23  C   UNL     1      42.974 -16.510   2.425  1.00  0.00     0.161 C 
BRANCH  23  24
HETATM   24  C   UNL     1      43.510 -17.875   2.781  1.00  0.00    -0.041 A 
HETATM   25  C   UNL     1      43.597 -18.878   1.804  1.00  0.00     0.009 A 
HETATM   26  C   UNL     1      44.128 -20.131   2.118  1.00  0.00     0.001 A 
HETATM   27  C   UNL     1      44.580 -20.396   3.410  1.00  0.00     0.000 A 
HETATM   28  C   UNL     1      44.514 -19.404   4.385  1.00  0.00     0.001 A 
HETATM   29  C   UNL     1      43.992 -18.149   4.071  1.00  0.00     0.009 A 
ENDBRANCH  23  24
ENDBRANCH  20  23
ENDBRANCH   4  19
TORSDOF 6
ENDMDL
MODEL 7
REMARK VINA RESULT:      -7.5      5.629      8.807
REMARK  6 active torsions:
REMARK  status: ('A' for Active; 'I' for Inactive)
REMARK    1  A    between atoms: C_2  and  C_3 
REMARK    2  A    between atoms: C_7  and  C_8 
REMARK       I    between atoms: C_8  and  N_9 
REMARK    3  A    between atoms: N_9  and  C_10 
REMARK    4  A    between atoms: C_13  and  C_14 
REMARK       I    between atoms: C_14  and  N_15 
REMARK    5  A    between atoms: N_15  and  C_16 
REMARK    6  A    between atoms: C_16  and  C_17 
ROOT
HETATM    1  C   UNL     1      41.530 -15.100   0.471  1.00  0.00     0.035 A 
HETATM    2  C   UNL     1      42.130 -14.501   1.589  1.00  0.00     0.030 A 
HETATM    3  C   UNL     1      42.481 -15.264   2.709  1.00  0.00     0.019 A 
HETATM    4  C   UNL     1      42.213 -16.635   2.726  1.00  0.00     0.032 A 
HETATM    5  C   UNL     1      41.569 -17.228   1.639  1.00  0.00     0.019 A 
HETATM    6  C   UNL     1      41.237 -16.466   0.514  1.00  0.00     0.030 A 
ENDROOT
BRANCH   1   7
HETATM    7  N   UNL     1      41.243 -14.276  -0.637  1.00  0.00    -0.322 N 
HETATM    8  C   UNL     1      40.013 -13.749  -0.984  1.00  0.00     0.274 C 
HETATM    9  O   UNL     1      38.956 -13.977  -0.406  1.00  0.00    -0.266 OA
HETATM   10  H   UNL     1      41.993 -14.141  -1.300  1.00  0.00     0.169 HD
BRANCH   8  11
HETATM   11  C   UNL     1      40.029 -12.914  -2.161  1.00  0.00     0.120 A 
HETATM   12  N   UNL     1      38.872 -12.620  -2.831  1.00  0.00    -0.273 N 
HETATM   13  N   UNL     1      39.044 -11.845  -3.912  1.00  0.00    -0.179 NA
HETATM   14  H   UNL     1      37.935 -12.934  -2.592  1.00  0.00     0.189 HD
HETATM   15  C   UNL     1      40.355 -11.584  -3.917  1.00  0.00     0.056 A 
HETATM   16  C   UNL     1      41.019 -12.240  -2.851  1.00  0.00     0.065 A 
BRANCH  15  17
HETATM   17  C   UNL     1      40.942 -10.696  -4.961  1.00  0.00     0.056 C 
HETATM   18  C   UNL     1      42.437 -10.483  -4.770  1.00  0.00     0.011 C 
ENDBRANCH  15  17
ENDBRANCH   8  11
ENDBRANCH   1   7
BRANCH   4  19
HETATM   19  C   UNL     1      42.602 -17.506   3.865  1.00  0.00     0.251 C 
HETATM   20  N   UNL     1      43.949 -17.740   4.008  1.00  0.00    -0.353 N 
HETATM   21  H   UNL     1      44.614 -17.332   3.365  1.00  0.00     0.163 HD
HETATM   22  O   UNL     1      41.740 -18.015   4.570  1.00  0.00    -0.268 OA
BRANCH  20  23
HETATM   23  C   UNL     1      44.445 -18.693   4.976  1.00  0.00     0.161 C 
BRANCH  23  24
HETATM   24  C   UNL     1      44.496 -20.091   4.408  1.00  0.00    -0.041 A 
HETATM   25  C   UNL     1      44.373 -20.298   3.027  1.00  0.00     0.009 A 
HETATM   26  C   UNL     1      44.458 -21.586   2.492  1.00  0.00     0.001 A 
HETATM   27  C   UNL     1      44.669 -22.679   3.330  1.00  0.00     0.000 A 
HETATM   28  C   UNL     1      44.808 -22.486   4.702  1.00  0.00     0.001 A 
HETATM   29  C   UNL     1      44.732 -21.200   5.237  1.00  0.00     0.009 A 
ENDBRANCH  23  24
ENDBRANCH  20  23
ENDBRANCH   4  19
TORSDOF 6
ENDMDL
MODEL 8
REMARK VINA RESULT:      -7.5      6.468     10.142
REMARK  6 active torsions:
REMARK  status: ('A' for Active; 'I' for Inactive)
REMARK    1  A    between atoms: C_2  and  C_3 
REMARK    2  A    between atoms: C_7  and  C_8 
REMARK       I    between atoms: C_8  and  N_9 
REMARK    3  A    between atoms: N_9  and  C_10 
REMARK    4  A    between atoms: C_13  and  C_14 
REMARK       I    between atoms: C_14  and  N_15 
REMARK    5  A    between atoms: N_15  and  C_16 
REMARK    6  A    between atoms: C_16  and  C_17 
ROOT
HETATM    1  C   UNL     1      39.978 -14.861  -0.682  1.00  0.00     0.035 A 
HETATM    2  C   UNL     1      40.894 -15.870  -1.017  1.00  0.00     0.030 A 
HETATM    3  C   UNL     1      41.881 -16.274  -0.109  1.00  0.00     0.019 A 
HETATM    4  C   UNL     1      41.971 -15.652   1.139  1.00  0.00     0.032 A 
HETATM    5  C   UNL     1      41.096 -14.612   1.459  1.00  0.00     0.019 A 
HETATM    6  C   UNL     1      40.100 -14.225   0.557  1.00  0.00     0.030 A 
ENDROOT
BRANCH   1   7
HETATM    7  N   UNL     1      38.986 -14.537  -1.630  1.00  0.00    -0.322 N 
HETATM    8  C   UNL     1      39.106 -13.658  -2.689  1.00  0.00     0.274 C 
HETATM    9  O   UNL     1      40.089 -12.966  -2.929  1.00  0.00    -0.266 OA
HETATM   10  H   UNL     1      38.063 -14.909  -1.457  1.00  0.00     0.169 HD
BRANCH   8  11
HETATM   11  C   UNL     1      37.926 -13.548  -3.514  1.00  0.00     0.120 A 
HETATM   12  N   UNL     1      37.443 -14.631  -4.198  1.00  0.00    -0.273 N 
HETATM   13  N   UNL     1      36.350 -14.374  -4.932  1.00  0.00    -0.179 NA
HETATM   14  H   UNL     1      37.832 -15.570  -4.204  1.00  0.00     0.189 HD
HETATM   15  C   UNL     1      36.082 -13.089  -4.675  1.00  0.00     0.056 A 
HETATM   16  C   UNL     1      37.046 -12.523  -3.804  1.00  0.00     0.065 A 
BRANCH  15  17
HETATM   17  C   UNL     1      34.889 -12.433  -5.282  1.00  0.00     0.056 C 
HETATM   18  C   UNL     1      33.635 -12.612  -4.438  1.00  0.00     0.011 C 
ENDBRANCH  15  17
ENDBRANCH   8  11
ENDBRANCH   1   7
BRANCH   4  19
HETATM   19  C   UNL     1      42.965 -16.066   2.162  1.00  0.00     0.251 C 
HETATM   20  N   UNL     1      43.142 -17.421   2.313  1.00  0.00    -0.353 N 
HETATM   21  H   UNL     1      42.615 -18.075   1.750  1.00  0.00     0.163 HD
HETATM   22  O   UNL     1      43.525 -15.221   2.850  1.00  0.00    -0.268 OA
BRANCH  20  23
HETATM   23  C   UNL     1      43.960 -17.955   3.379  1.00  0.00     0.161 C 
BRANCH  23  24
HETATM   24  C   UNL     1      44.109 -19.453   3.272  1.00  0.00    -0.041 A 
HETATM   25  C   UNL     1      43.749 -20.118   2.091  1.00  0.00     0.009 A 
HETATM   26  C   UNL     1      43.921 -21.499   1.972  1.00  0.00     0.001 A 
HETATM   27  C   UNL     1      44.455 -22.231   3.031  1.00  0.00     0.000 A 
HETATM   28  C   UNL     1      44.831 -21.581   4.205  1.00  0.00     0.001 A 
HETATM   29  C   UNL     1      44.668 -20.201   4.321  1.00  0.00     0.009 A 
ENDBRANCH  23  24
ENDBRANCH  20  23
ENDBRANCH   4  19
TORSDOF 6
ENDMDL
MODEL 9
REMARK VINA RESULT:      -7.1      3.938     10.467
REMARK  6 active torsions:
REMARK  status: ('A' for Active; 'I' for Inactive)
REMARK    1  A    between atoms: C_2  and  C_3 
REMARK    2  A    between atoms: C_7  and  C_8 
REMARK       I    between atoms: C_8  and  N_9 
REMARK    3  A    between atoms: N_9  and  C_10 
REMARK    4  A    between atoms: C_13  and  C_14 
REMARK       I    between atoms: C_14  and  N_15 
REMARK    5  A    between atoms: N_15  and  C_16 
REMARK    6  A    between atoms: C_16  and  C_17 
ROOT
HETATM    1  C   UNL     1      42.022 -14.164   3.184  1.00  0.00     0.035 A 
HETATM    2  C   UNL     1      41.313 -14.500   4.347  1.00  0.00     0.030 A 
HETATM    3  C   UNL     1      41.941 -14.486   5.599  1.00  0.00     0.019 A 
HETATM    4  C   UNL     1      43.294 -14.153   5.693  1.00  0.00     0.032 A 
HETATM    5  C   UNL     1      44.019 -13.868   4.534  1.00  0.00     0.019 A 
HETATM    6  C   UNL     1      43.384 -13.865   3.288  1.00  0.00     0.030 A 
ENDROOT
BRANCH   1   7
HETATM    7  N   UNL     1      41.314 -14.160   1.965  1.00  0.00    -0.322 N 
HETATM    8  C   UNL     1      41.517 -14.997   0.884  1.00  0.00     0.274 C 
HETATM    9  O   UNL     1      42.402 -15.840   0.797  1.00  0.00    -0.266 OA
HETATM   10  H   UNL     1      40.660 -13.402   1.830  1.00  0.00     0.169 HD
BRANCH   8  11
HETATM   11  C   UNL     1      40.616 -14.776  -0.222  1.00  0.00     0.120 A 
HETATM   12  N   UNL     1      39.370 -14.246  -0.021  1.00  0.00    -0.273 N 
HETATM   13  N   UNL     1      38.642 -14.112  -1.139  1.00  0.00    -0.179 NA
HETATM   14  H   UNL     1      38.965 -13.968   0.869  1.00  0.00     0.189 HD
HETATM   15  C   UNL     1      39.464 -14.521  -2.111  1.00  0.00     0.056 A 
HETATM   16  C   UNL     1      40.707 -14.959  -1.590  1.00  0.00     0.065 A 
BRANCH  15  17
HETATM   17  C   UNL     1      39.026 -14.477  -3.535  1.00  0.00     0.056 C 
HETATM   18  C   UNL     1      38.979 -15.859  -4.172  1.00  0.00     0.011 C 
ENDBRANCH  15  17
ENDBRANCH   8  11
ENDBRANCH   1   7
BRANCH   4  19
HETATM   19  C   UNL     1      44.005 -14.076   6.995  1.00  0.00     0.251 C 
HETATM   20  N   UNL     1      43.920 -12.872   7.653  1.00  0.00    -0.353 N 
HETATM   21  H   UNL     1      43.400 -12.102   7.255  1.00  0.00     0.163 HD
HETATM   22  O   UNL     1      44.665 -15.028   7.391  1.00  0.00    -0.268 OA
BRANCH  20  23
HETATM   23  C   UNL     1      44.694 -12.615   8.848  1.00  0.00     0.161 C 
BRANCH  23  24
HETATM   24  C   UNL     1      44.069 -11.535   9.697  1.00  0.00    -0.041 A 
HETATM   25  C   UNL     1      42.919 -10.865   9.257  1.00  0.00     0.009 A 
HETATM   26  C   UNL     1      42.315  -9.892  10.056  1.00  0.00     0.001 A 
HETATM   27  C   UNL     1      42.852  -9.578  11.303  1.00  0.00     0.000 A 
HETATM   28  C   UNL     1      43.985 -10.247  11.759  1.00  0.00     0.001 A 
HETATM   29  C   UNL     1      44.585 -11.226  10.966  1.00  0.00     0.009 A 
ENDBRANCH  23  24
ENDBRANCH  20  23
ENDBRANCH   4  19
TORSDOF 6
ENDMDL
MODEL 10
REMARK VINA RESULT:      -7.1      5.697      8.080
REMARK  6 active torsions:
REMARK  status: ('A' for Active; 'I' for Inactive)
REMARK    1  A    between atoms: C_2  and  C_3 
REMARK    2  A    between atoms: C_7  and  C_8 
REMARK       I    between atoms: C_8  and  N_9 
REMARK    3  A    between atoms: N_9  and  C_10 
REMARK    4  A    between atoms: C_13  and  C_14 
REMARK       I    between atoms: C_14  and  N_15 
REMARK    5  A    between atoms: N_15  and  C_16 
REMARK    6  A    between atoms: C_16  and  C_17 
ROOT
HETATM    1  C   UNL     1      39.459 -14.345   2.461  1.00  0.00     0.035 A 
HETATM    2  C   UNL     1      39.801 -15.555   1.838  1.00  0.00     0.030 A 
HETATM    3  C   UNL     1      40.628 -16.484   2.481  1.00  0.00     0.019 A 
HETATM    4  C   UNL     1      41.136 -16.198   3.751  1.00  0.00     0.032 A 
HETATM    5  C   UNL     1      40.843 -14.974   4.355  1.00  0.00     0.019 A 
HETATM    6  C   UNL     1      40.001 -14.057   3.716  1.00  0.00     0.030 A 
ENDROOT
BRANCH   1   7
HETATM    7  N   UNL     1      38.588 -13.477   1.770  1.00  0.00    -0.322 N 
HETATM    8  C   UNL     1      38.914 -12.634   0.724  1.00  0.00     0.274 C 
HETATM    9  O   UNL     1      40.042 -12.464   0.276  1.00  0.00    -0.266 OA
HETATM   10  H   UNL     1      37.655 -13.389   2.144  1.00  0.00     0.169 HD
BRANCH   8  11
HETATM   11  C   UNL     1      37.803 -11.881   0.194  1.00  0.00     0.120 A 
HETATM   12  N   UNL     1      38.005 -10.865  -0.702  1.00  0.00    -0.273 N 
HETATM   13  N   UNL     1      36.882 -10.247  -1.095  1.00  0.00    -0.179 NA
HETATM   14  H   UNL     1      38.898 -10.547  -1.069  1.00  0.00     0.189 HD
HETATM   15  C   UNL     1      35.908 -10.920  -0.473  1.00  0.00     0.056 A 
HETATM   16  C   UNL     1      36.432 -11.942   0.356  1.00  0.00     0.065 A 
BRANCH  15  17
HETATM   17  C   UNL     1      34.480 -10.555  -0.697  1.00  0.00     0.056 C 
HETATM   18  C   UNL     1      33.973 -11.001  -2.062  1.00  0.00     0.011 C 
ENDBRANCH  15  17
ENDBRANCH   8  11
ENDBRANCH   1   7
BRANCH   4  19
HETATM   19  C   UNL     1      41.981 -17.161   4.504  1.00  0.00     0.251 C 
HETATM   20  N   UNL     1      43.268 -17.313   4.046  1.00  0.00    -0.353 N 
HETATM   21  H   UNL     1      43.596 -16.791   3.245  1.00  0.00     0.163 HD
HETATM   22  O   UNL     1      41.502 -17.804   5.429  1.00  0.00    -0.268 OA
BRANCH  20  23
HETATM   23  C   UNL     1      44.140 -18.331   4.589  1.00  0.00     0.161 C 
BRANCH  23  24
HETATM   24  C   UNL     1      44.149 -19.575   3.734  1.00  0.00    -0.041 A 
HETATM   25  C   UNL     1      44.728 -20.759   4.212  1.00  0.00     0.009 A 
HETATM   26  C   UNL     1      44.706 -21.923   3.441  1.00  0.00     0.001 A 
HETATM   27  C   UNL     1      44.103 -21.918   2.184  1.00  0.00     0.000 A 
HETATM   28  C   UNL     1      43.510 -20.753   1.703  1.00  0.00     0.001 A 
HETATM   29  C   UNL     1      43.524 -19.591   2.476  1.00  0.00     0.009 A 
ENDBRANCH  23  24
ENDBRANCH  20  23
ENDBRANCH   4  19
TORSDOF 6
ENDMDL
