MODEL 1
REMARK VINA RESULT:      -7.9      0.000      0.000
REMARK  7 active torsions:
REMARK  status: ('A' for Active; 'I' for Inactive)
REMARK    1  A    between atoms: O_2  and  C_3 
REMARK    2  A    between atoms: C_3  and  C_4 
REMARK    3  A    between atoms: C_5  and  N_6 
REMARK       I    between atoms: N_6  and  C_7 
REMARK    4  A    between atoms: C_7  and  C_8 
REMARK    5  A    between atoms: C_8  and  N_9 
REMARK    6  A    between atoms: C_11  and  C_12 
REMARK    7  A    between atoms: C_20  and  O_21 
ROOT
HETATM    1  N   UNL     1      40.176 -14.429   2.958  1.00  0.00    -0.054 N 
HETATM    2  H   UNL     1      40.257 -15.220   3.623  1.00  0.00     0.281 HD
HETATM    3  C   UNL     1      41.419 -14.439   2.064  1.00  0.00     0.228 C 
HETATM    4  C   UNL     1      41.183 -13.550   0.806  1.00  0.00     0.055 C 
HETATM    5  C   UNL     1      39.861 -13.831   0.070  1.00  0.00     0.065 C 
HETATM    6  C   UNL     1      38.693 -13.742   1.057  1.00  0.00     0.066 C 
HETATM    7  C   UNL     1      38.883 -14.691   2.228  1.00  0.00     0.239 C 
HETATM    8  C   UNL     1      42.374 -13.531  -0.168  1.00  0.00     0.010 C 
HETATM    9  C   UNL     1      42.156 -12.499  -1.275  1.00  0.00     0.001 C 
HETATM   10  C   UNL     1      40.851 -12.733  -2.027  1.00  0.00     0.003 C 
HETATM   11  C   UNL     1      39.649 -12.827  -1.082  1.00  0.00     0.038 C 
ENDROOT
BRANCH   1  12
HETATM   12  C   UNL     1      40.183 -13.206   3.906  1.00  0.00     0.338 C 
BRANCH  12  13
HETATM   13  C   UNL     1      39.653 -13.381   5.334  1.00  0.00     0.248 C 
HETATM   14  N   UNL     1      40.351 -14.100   6.255  1.00  0.00    -0.319 N 
HETATM   15  H   UNL     1      40.232 -13.781   7.213  1.00  0.00     0.169 HD
HETATM   16  O   UNL     1      38.689 -12.715   5.725  1.00  0.00    -0.271 OA
BRANCH  14  17
HETATM   17  C   UNL     1      41.276 -15.094   6.062  1.00  0.00     0.094 A 
HETATM   18  C   UNL     1      42.635 -15.123   5.796  1.00  0.00     0.080 A 
HETATM   19  C   UNL     1      43.065 -16.500   5.590  1.00  0.00    -0.026 A 
HETATM   20  C   UNL     1      42.016 -17.393   5.729  1.00  0.00    -0.008 A 
HETATM   21  C   UNL     1      44.458 -16.991   5.278  1.00  0.00     0.041 C 
HETATM   22  S   UNL     1      40.529 -16.617   5.957  1.00  0.00    -0.075 SA
HETATM   23  C   UNL     1      42.108 -18.884   5.600  1.00  0.00     0.047 C 
HETATM   24  C   UNL     1      43.570 -19.341   5.663  1.00  0.00     0.005 C 
HETATM   25  C   UNL     1      44.467 -18.452   4.797  1.00  0.00     0.005 C 
BRANCH  18  26
HETATM   26  C   UNL     1      43.462 -13.928   5.623  1.00  0.00     0.296 C 
HETATM   27  O   UNL     1      43.992 -13.626   4.557  1.00  0.00    -0.259 OA
BRANCH  26  28
HETATM   28  O   UNL     1      43.609 -13.230   6.779  1.00  0.00    -0.322 OA
HETATM   29  C   UNL     1      44.700 -13.632   7.609  1.00  0.00     0.213 C 
ENDBRANCH  26  28
ENDBRANCH  18  26
ENDBRANCH  14  17
ENDBRANCH  12  13
ENDBRANCH   1  12
BRANCH   3  30
HETATM   30  C   UNL     1      42.089 -15.794   1.856  1.00  0.00    -0.027 A 
HETATM   31  C   UNL     1      43.463 -15.973   1.640  1.00  0.00     0.012 A 
HETATM   32  C   UNL     1      44.019 -17.253   1.533  1.00  0.00     0.043 A 
HETATM   33  C   UNL     1      43.208 -18.373   1.642  1.00  0.00     0.116 A 
HETATM   34  F   UNL     1      43.747 -19.594   1.558  1.00  0.00    -0.206 F 
HETATM   35  C   UNL     1      41.846 -18.236   1.851  1.00  0.00     0.043 A 
HETATM   36  C   UNL     1      41.290 -16.958   1.954  1.00  0.00     0.012 A 
ENDBRANCH   3  30
BRANCH   5  37
HETATM   37  O   UNL     1      39.855 -15.156  -0.453  1.00  0.00    -0.389 OA
HETATM   38  H   UNL     1      40.467 -15.721   0.056  1.00  0.00     0.210 HD
ENDBRANCH   5  37
TORSDOF 7
ENDMDL
MODEL 2
REMARK VINA RESULT:      -7.2      2.308      3.381
REMARK  7 active torsions:
REMARK  status: ('A' for Active; 'I' for Inactive)
REMARK    1  A    between atoms: O_2  and  C_3 
REMARK    2  A    between atoms: C_3  and  C_4 
REMARK    3  A    between atoms: C_5  and  N_6 
REMARK       I    between atoms: N_6  and  C_7 
REMARK    4  A    between atoms: C_7  and  C_8 
REMARK    5  A    between atoms: C_8  and  N_9 
REMARK    6  A    between atoms: C_11  and  C_12 
REMARK    7  A    between atoms: C_20  and  O_21 
ROOT
HETATM    1  N   UNL     1      40.061 -12.518   1.651  1.00  0.00    -0.054 N 
HETATM    2  H   UNL     1      40.407 -12.878   2.560  1.00  0.00     0.281 HD
HETATM    3  C   UNL     1      40.584 -13.444   0.550  1.00  0.00     0.228 C 
HETATM    4  C   UNL     1      39.792 -13.209  -0.771  1.00  0.00     0.055 C 
HETATM    5  C   UNL     1      38.262 -13.213  -0.602  1.00  0.00     0.065 C 
HETATM    6  C   UNL     1      37.862 -12.213   0.488  1.00  0.00     0.066 C 
HETATM    7  C   UNL     1      38.561 -12.515   1.802  1.00  0.00     0.239 C 
HETATM    8  C   UNL     1      40.231 -14.128  -1.925  1.00  0.00     0.010 C 
HETATM    9  C   UNL     1      39.554 -13.719  -3.234  1.00  0.00     0.001 C 
HETATM   10  C   UNL     1      38.034 -13.700  -3.110  1.00  0.00     0.003 C 
HETATM   11  C   UNL     1      37.562 -12.849  -1.928  1.00  0.00     0.038 C 
ENDROOT
BRANCH   1  12
HETATM   12  C   UNL     1      40.737 -11.127   1.575  1.00  0.00     0.338 C 
BRANCH  12  13
HETATM   13  C   UNL     1      40.923 -10.329   2.871  1.00  0.00     0.248 C 
HETATM   14  N   UNL     1      41.385 -10.931   4.001  1.00  0.00    -0.319 N 
HETATM   15  H   UNL     1      41.926 -10.321   4.609  1.00  0.00     0.169 HD
HETATM   16  O   UNL     1      40.845  -9.097   2.858  1.00  0.00    -0.271 OA
BRANCH  14  17
HETATM   17  C   UNL     1      41.334 -12.253   4.365  1.00  0.00     0.094 A 
HETATM   18  C   UNL     1      40.464 -13.023   5.119  1.00  0.00     0.080 A 
HETATM   19  C   UNL     1      40.990 -14.376   5.244  1.00  0.00    -0.026 A 
HETATM   20  C   UNL     1      42.191 -14.526   4.572  1.00  0.00    -0.008 A 
HETATM   21  C   UNL     1      40.368 -15.539   5.977  1.00  0.00     0.041 C 
HETATM   22  S   UNL     1      42.760 -13.067   3.926  1.00  0.00    -0.075 SA
HETATM   23  C   UNL     1      42.996 -15.788   4.479  1.00  0.00     0.047 C 
HETATM   24  C   UNL     1      42.152 -16.996   4.902  1.00  0.00     0.005 C 
HETATM   25  C   UNL     1      41.358 -16.699   6.178  1.00  0.00     0.005 C 
BRANCH  18  26
HETATM   26  C   UNL     1      39.273 -12.497   5.788  1.00  0.00     0.296 C 
HETATM   27  O   UNL     1      38.371 -11.912   5.192  1.00  0.00    -0.259 OA
BRANCH  26  28
HETATM   28  O   UNL     1      39.309 -12.687   7.132  1.00  0.00    -0.322 OA
HETATM   29  C   UNL     1      39.558 -11.519   7.915  1.00  0.00     0.213 C 
ENDBRANCH  26  28
ENDBRANCH  18  26
ENDBRANCH  14  17
ENDBRANCH  12  13
ENDBRANCH   1  12
BRANCH   3  30
HETATM   30  C   UNL     1      40.863 -14.888   0.960  1.00  0.00    -0.027 A 
HETATM   31  C   UNL     1      39.968 -15.693   1.679  1.00  0.00     0.012 A 
HETATM   32  C   UNL     1      40.262 -17.034   1.955  1.00  0.00     0.043 A 
HETATM   33  C   UNL     1      41.454 -17.588   1.514  1.00  0.00     0.116 A 
HETATM   34  F   UNL     1      41.721 -18.875   1.763  1.00  0.00    -0.206 F 
HETATM   35  C   UNL     1      42.365 -16.822   0.805  1.00  0.00     0.043 A 
HETATM   36  C   UNL     1      42.073 -15.482   0.533  1.00  0.00     0.012 A 
ENDBRANCH   3  30
BRANCH   5  37
HETATM   37  O   UNL     1      37.814 -14.493  -0.167  1.00  0.00    -0.389 OA
HETATM   38  H   UNL     1      36.934 -14.419   0.247  1.00  0.00     0.210 HD
ENDBRANCH   5  37
TORSDOF 7
ENDMDL
MODEL 3
REMARK VINA RESULT:      -7.1      2.530      3.857
REMARK  7 active torsions:
REMARK  status: ('A' for Active; 'I' for Inactive)
REMARK    1  A    between atoms: O_2  and  C_3 
REMARK    2  A    between atoms: C_3  and  C_4 
REMARK    3  A    between atoms: C_5  and  N_6 
REMARK       I    between atoms: N_6  and  C_7 
REMARK    4  A    between atoms: C_7  and  C_8 
REMARK    5  A    between atoms: C_8  and  N_9 
REMARK    6  A    between atoms: C_11  and  C_12 
REMARK    7  A    between atoms: C_20  and  O_21 
ROOT
HETATM    1  N   UNL     1      39.834 -11.860   1.186  1.00  0.00    -0.054 N 
HETATM    2  H   UNL     1      39.176 -12.656   1.278  1.00  0.00     0.281 HD
HETATM    3  C   UNL     1      40.958 -12.286   0.238  1.00  0.00     0.228 C 
HETATM    4  C   UNL     1      41.748 -11.038  -0.256  1.00  0.00     0.055 C 
HETATM    5  C   UNL     1      40.862  -9.896  -0.785  1.00  0.00     0.065 C 
HETATM    6  C   UNL     1      39.814  -9.526   0.270  1.00  0.00     0.066 C 
HETATM    7  C   UNL     1      38.979 -10.731   0.669  1.00  0.00     0.239 C 
HETATM    8  C   UNL     1      42.878 -11.374  -1.245  1.00  0.00     0.010 C 
HETATM    9  C   UNL     1      43.729 -10.139  -1.540  1.00  0.00     0.001 C 
HETATM   10  C   UNL     1      42.890  -8.976  -2.058  1.00  0.00     0.003 C 
HETATM   11  C   UNL     1      41.712  -8.656  -1.133  1.00  0.00     0.038 C 
ENDROOT
BRANCH   1  12
HETATM   12  C   UNL     1      40.358 -11.703   2.635  1.00  0.00     0.338 C 
BRANCH  12  13
HETATM   13  C   UNL     1      39.602 -12.407   3.768  1.00  0.00     0.248 C 
HETATM   14  N   UNL     1      40.043 -13.592   4.272  1.00  0.00    -0.319 N 
HETATM   15  H   UNL     1      39.831 -13.733   5.256  1.00  0.00     0.169 HD
HETATM   16  O   UNL     1      38.700 -11.817   4.371  1.00  0.00    -0.271 OA
BRANCH  14  17
HETATM   17  C   UNL     1      40.830 -14.548   3.682  1.00  0.00     0.094 A 
HETATM   18  C   UNL     1      42.192 -14.794   3.630  1.00  0.00     0.080 A 
HETATM   19  C   UNL     1      42.453 -15.924   2.749  1.00  0.00    -0.026 A 
HETATM   20  C   UNL     1      41.284 -16.447   2.222  1.00  0.00    -0.008 A 
HETATM   21  C   UNL     1      43.791 -16.531   2.405  1.00  0.00     0.041 C 
HETATM   22  S   UNL     1      39.919 -15.539   2.644  1.00  0.00    -0.075 SA
HETATM   23  C   UNL     1      41.185 -17.622   1.296  1.00  0.00     0.047 C 
HETATM   24  C   UNL     1      42.499 -18.413   1.287  1.00  0.00     0.005 C 
HETATM   25  C   UNL     1      43.709 -17.478   1.196  1.00  0.00     0.005 C 
BRANCH  18  26
HETATM   26  C   UNL     1      43.202 -13.947   4.267  1.00  0.00     0.296 C 
HETATM   27  O   UNL     1      44.114 -13.407   3.647  1.00  0.00    -0.259 OA
BRANCH  26  28
HETATM   28  O   UNL     1      43.037 -13.872   5.614  1.00  0.00    -0.322 OA
HETATM   29  C   UNL     1      43.490 -15.007   6.354  1.00  0.00     0.213 C 
ENDBRANCH  26  28
ENDBRANCH  18  26
ENDBRANCH  14  17
ENDBRANCH  12  13
ENDBRANCH   1  12
BRANCH   3  30
HETATM   30  C   UNL     1      40.600 -13.351  -0.795  1.00  0.00    -0.027 A 
HETATM   31  C   UNL     1      39.573 -13.222  -1.742  1.00  0.00     0.012 A 
HETATM   32  C   UNL     1      39.351 -14.209  -2.709  1.00  0.00     0.043 A 
HETATM   33  C   UNL     1      40.153 -15.340  -2.743  1.00  0.00     0.116 A 
HETATM   34  F   UNL     1      39.949 -16.271  -3.681  1.00  0.00    -0.206 F 
HETATM   35  C   UNL     1      41.174 -15.505  -1.821  1.00  0.00     0.043 A 
HETATM   36  C   UNL     1      41.393 -14.521  -0.853  1.00  0.00     0.012 A 
ENDBRANCH   3  30
BRANCH   5  37
HETATM   37  O   UNL     1      40.146 -10.317  -1.942  1.00  0.00    -0.389 OA
HETATM   38  H   UNL     1      39.774  -9.545  -2.408  1.00  0.00     0.210 HD
ENDBRANCH   5  37
TORSDOF 7
ENDMDL
MODEL 4
REMARK VINA RESULT:      -6.9      2.929      6.400
REMARK  7 active torsions:
REMARK  status: ('A' for Active; 'I' for Inactive)
REMARK    1  A    between atoms: O_2  and  C_3 
REMARK    2  A    between atoms: C_3  and  C_4 
REMARK    3  A    between atoms: C_5  and  N_6 
REMARK       I    between atoms: N_6  and  C_7 
REMARK    4  A    between atoms: C_7  and  C_8 
REMARK    5  A    between atoms: C_8  and  N_9 
REMARK    6  A    between atoms: C_11  and  C_12 
REMARK    7  A    between atoms: C_20  and  O_21 
ROOT
HETATM    1  N   UNL     1      41.168 -13.778   4.090  1.00  0.00    -0.054 N 
HETATM    2  H   UNL     1      40.990 -13.433   5.052  1.00  0.00     0.281 HD
HETATM    3  C   UNL     1      42.383 -14.707   4.142  1.00  0.00     0.228 C 
HETATM    4  C   UNL     1      42.463 -15.562   2.842  1.00  0.00     0.055 C 
HETATM    5  C   UNL     1      41.142 -16.253   2.456  1.00  0.00     0.065 C 
HETATM    6  C   UNL     1      40.019 -15.214   2.387  1.00  0.00     0.066 C 
HETATM    7  C   UNL     1      39.881 -14.458   3.697  1.00  0.00     0.239 C 
HETATM    8  C   UNL     1      43.640 -16.553   2.826  1.00  0.00     0.010 C 
HETATM    9  C   UNL     1      43.773 -17.219   1.456  1.00  0.00     0.001 C 
HETATM   10  C   UNL     1      42.482 -17.909   1.027  1.00  0.00     0.003 C 
HETATM   11  C   UNL     1      41.275 -16.971   1.096  1.00  0.00     0.038 C 
ENDROOT
BRANCH   1  12
HETATM   12  C   UNL     1      41.501 -12.469   3.333  1.00  0.00     0.338 C 
BRANCH  12  13
HETATM   13  C   UNL     1      40.414 -11.395   3.210  1.00  0.00     0.248 C 
HETATM   14  N   UNL     1      39.631 -11.317   2.099  1.00  0.00    -0.319 N 
HETATM   15  H   UNL     1      38.693 -10.967   2.272  1.00  0.00     0.169 HD
HETATM   16  O   UNL     1      40.102 -10.713   4.191  1.00  0.00    -0.271 OA
BRANCH  14  17
HETATM   17  C   UNL     1      39.885 -11.756   0.825  1.00  0.00     0.094 A 
HETATM   18  C   UNL     1      40.879 -11.515  -0.110  1.00  0.00     0.080 A 
HETATM   19  C   UNL     1      40.560 -12.204  -1.353  1.00  0.00    -0.026 A 
HETATM   20  C   UNL     1      39.376 -12.914  -1.259  1.00  0.00    -0.008 A 
HETATM   21  C   UNL     1      41.365 -12.215  -2.630  1.00  0.00     0.041 C 
HETATM   22  S   UNL     1      38.582 -12.662   0.215  1.00  0.00    -0.075 SA
HETATM   23  C   UNL     1      38.762 -13.749  -2.343  1.00  0.00     0.047 C 
HETATM   24  C   UNL     1      39.784 -14.028  -3.452  1.00  0.00     0.005 C 
HETATM   25  C   UNL     1      40.560 -12.760  -3.822  1.00  0.00     0.005 C 
BRANCH  18  26
HETATM   26  C   UNL     1      41.998 -10.596   0.103  1.00  0.00     0.296 C 
HETATM   27  O   UNL     1      43.171 -10.914  -0.071  1.00  0.00    -0.259 OA
BRANCH  26  28
HETATM   28  O   UNL     1      41.590  -9.382   0.556  1.00  0.00    -0.322 OA
HETATM   29  C   UNL     1      41.355  -8.395  -0.450  1.00  0.00     0.213 C 
ENDBRANCH  26  28
ENDBRANCH  18  26
ENDBRANCH  14  17
ENDBRANCH  12  13
ENDBRANCH   1  12
BRANCH   3  30
HETATM   30  C   UNL     1      42.632 -15.416   5.471  1.00  0.00    -0.027 A 
HETATM   31  C   UNL     1      41.802 -16.413   6.004  1.00  0.00     0.012 A 
HETATM   32  C   UNL     1      42.135 -17.074   7.193  1.00  0.00     0.043 A 
HETATM   33  C   UNL     1      43.303 -16.747   7.864  1.00  0.00     0.116 A 
HETATM   34  F   UNL     1      43.627 -17.394   8.989  1.00  0.00    -0.206 F 
HETATM   35  C   UNL     1      44.146 -15.764   7.371  1.00  0.00     0.043 A 
HETATM   36  C   UNL     1      43.812 -15.102   6.186  1.00  0.00     0.012 A 
ENDBRANCH   3  30
BRANCH   5  37
HETATM   37  O   UNL     1      40.766 -17.198   3.453  1.00  0.00    -0.389 OA
HETATM   38  H   UNL     1      41.550 -17.687   3.766  1.00  0.00     0.210 HD
ENDBRANCH   5  37
TORSDOF 7
ENDMDL
MODEL 5
REMARK VINA RESULT:      -6.9      2.687      3.808
REMARK  7 active torsions:
REMARK  status: ('A' for Active; 'I' for Inactive)
REMARK    1  A    between atoms: O_2  and  C_3 
REMARK    2  A    between atoms: C_3  and  C_4 
REMARK    3  A    between atoms: C_5  and  N_6 
REMARK       I    between atoms: N_6  and  C_7 
REMARK    4  A    between atoms: C_7  and  C_8 
REMARK    5  A    between atoms: C_8  and  N_9 
REMARK    6  A    between atoms: C_11  and  C_12 
REMARK    7  A    between atoms: C_20  and  O_21 
ROOT
HETATM    1  N   UNL     1      40.117 -13.937   1.389  1.00  0.00    -0.054 N 
HETATM    2  H   UNL     1      39.463 -14.736   1.302  1.00  0.00     0.281 HD
HETATM    3  C   UNL     1      40.948 -13.869   0.105  1.00  0.00     0.228 C 
HETATM    4  C   UNL     1      41.654 -12.485  -0.007  1.00  0.00     0.055 C 
HETATM    5  C   UNL     1      40.723 -11.279   0.220  1.00  0.00     0.065 C 
HETATM    6  C   UNL     1      39.990 -11.439   1.555  1.00  0.00     0.066 C 
HETATM    7  C   UNL     1      39.219 -12.746   1.612  1.00  0.00     0.239 C 
HETATM    8  C   UNL     1      42.485 -12.317  -1.291  1.00  0.00     0.010 C 
HETATM    9  C   UNL     1      43.299 -11.023  -1.249  1.00  0.00     0.001 C 
HETATM   10  C   UNL     1      42.417  -9.801  -1.017  1.00  0.00     0.003 C 
HETATM   11  C   UNL     1      41.523  -9.960   0.217  1.00  0.00     0.038 C 
ENDROOT
BRANCH   1  12
HETATM   12  C   UNL     1      40.990 -14.362   2.594  1.00  0.00     0.338 C 
BRANCH  12  13
HETATM   13  C   UNL     1      40.295 -14.736   3.908  1.00  0.00     0.248 C 
HETATM   14  N   UNL     1      40.793 -15.720   4.707  1.00  0.00    -0.319 N 
HETATM   15  H   UNL     1      40.617 -15.583   5.698  1.00  0.00     0.169 HD
HETATM   16  O   UNL     1      39.391 -14.025   4.357  1.00  0.00    -0.271 OA
BRANCH  14  17
HETATM   17  C   UNL     1      41.596 -16.783   4.378  1.00  0.00     0.094 A 
HETATM   18  C   UNL     1      42.588 -17.494   5.033  1.00  0.00     0.080 A 
HETATM   19  C   UNL     1      43.165 -18.477   4.125  1.00  0.00    -0.026 A 
HETATM   20  C   UNL     1      42.565 -18.443   2.879  1.00  0.00    -0.008 A 
HETATM   21  C   UNL     1      44.270 -19.462   4.421  1.00  0.00     0.041 C 
HETATM   22  S   UNL     1      41.441 -17.185   2.734  1.00  0.00    -0.075 SA
HETATM   23  C   UNL     1      42.901 -19.327   1.715  1.00  0.00     0.047 C 
HETATM   24  C   UNL     1      43.736 -20.529   2.176  1.00  0.00     0.005 C 
HETATM   25  C   UNL     1      44.843 -20.096   3.142  1.00  0.00     0.005 C 
BRANCH  18  26
HETATM   26  C   UNL     1      43.054 -17.193   6.387  1.00  0.00     0.296 C 
HETATM   27  O   UNL     1      42.421 -17.491   7.397  1.00  0.00    -0.259 OA
BRANCH  26  28
HETATM   28  O   UNL     1      44.230 -16.513   6.389  1.00  0.00    -0.322 OA
HETATM   29  C   UNL     1      44.183 -15.203   6.957  1.00  0.00     0.213 C 
ENDBRANCH  26  28
ENDBRANCH  18  26
ENDBRANCH  14  17
ENDBRANCH  12  13
ENDBRANCH   1  12
BRANCH   3  30
HETATM   30  C   UNL     1      40.291 -14.432  -1.153  1.00  0.00    -0.027 A 
HETATM   31  C   UNL     1      39.063 -13.993  -1.669  1.00  0.00     0.012 A 
HETATM   32  C   UNL     1      38.558 -14.503  -2.871  1.00  0.00     0.043 A 
HETATM   33  C   UNL     1      39.275 -15.459  -3.574  1.00  0.00     0.116 A 
HETATM   34  F   UNL     1      38.797 -15.930  -4.731  1.00  0.00    -0.206 F 
HETATM   35  C   UNL     1      40.490 -15.921  -3.093  1.00  0.00     0.043 A 
HETATM   36  C   UNL     1      40.992 -15.414  -1.891  1.00  0.00     0.012 A 
ENDBRANCH   3  30
BRANCH   5  37
HETATM   37  O   UNL     1      39.723 -11.226  -0.794  1.00  0.00    -0.389 OA
HETATM   38  H   UNL     1      39.214 -10.397  -0.722  1.00  0.00     0.210 HD
ENDBRANCH   5  37
TORSDOF 7
ENDMDL
MODEL 6
REMARK VINA RESULT:      -6.9      2.823      6.858
REMARK  7 active torsions:
REMARK  status: ('A' for Active; 'I' for Inactive)
REMARK    1  A    between atoms: O_2  and  C_3 
REMARK    2  A    between atoms: C_3  and  C_4 
REMARK    3  A    between atoms: C_5  and  N_6 
REMARK       I    between atoms: N_6  and  C_7 
REMARK    4  A    between atoms: C_7  and  C_8 
REMARK    5  A    between atoms: C_8  and  N_9 
REMARK    6  A    between atoms: C_11  and  C_12 
REMARK    7  A    between atoms: C_20  and  O_21 
ROOT
HETATM    1  N   UNL     1      41.161 -13.920   3.802  1.00  0.00    -0.054 N 
HETATM    2  H   UNL     1      40.949 -13.527   4.738  1.00  0.00     0.281 HD
HETATM    3  C   UNL     1      42.388 -14.824   3.940  1.00  0.00     0.228 C 
HETATM    4  C   UNL     1      42.520 -15.747   2.692  1.00  0.00     0.055 C 
HETATM    5  C   UNL     1      41.223 -16.481   2.306  1.00  0.00     0.065 C 
HETATM    6  C   UNL     1      40.085 -15.467   2.148  1.00  0.00     0.066 C 
HETATM    7  C   UNL     1      39.897 -14.644   3.410  1.00  0.00     0.239 C 
HETATM    8  C   UNL     1      43.713 -16.717   2.764  1.00  0.00     0.010 C 
HETATM    9  C   UNL     1      43.897 -17.454   1.437  1.00  0.00     0.001 C 
HETATM   10  C   UNL     1      42.632 -18.189   1.010  1.00  0.00     0.003 C 
HETATM   11  C   UNL     1      41.407 -17.270   0.993  1.00  0.00     0.038 C 
ENDROOT
BRANCH   1  12
HETATM   12  C   UNL     1      41.495 -12.650   2.984  1.00  0.00     0.338 C 
BRANCH  12  13
HETATM   13  C   UNL     1      40.518 -11.469   3.030  1.00  0.00     0.248 C 
HETATM   14  N   UNL     1      39.945 -10.991   1.892  1.00  0.00    -0.319 N 
HETATM   15  H   UNL     1      39.015 -10.601   2.023  1.00  0.00     0.169 HD
HETATM   16  O   UNL     1      40.088 -11.062   4.113  1.00  0.00    -0.271 OA
BRANCH  14  17
HETATM   17  C   UNL     1      40.384 -11.078   0.595  1.00  0.00     0.094 A 
HETATM   18  C   UNL     1      40.104 -11.910  -0.476  1.00  0.00     0.080 A 
HETATM   19  C   UNL     1      40.972 -11.575  -1.597  1.00  0.00    -0.026 A 
HETATM   20  C   UNL     1      41.818 -10.522  -1.297  1.00  0.00    -0.008 A 
HETATM   21  C   UNL     1      41.005 -12.226  -2.959  1.00  0.00     0.041 C 
HETATM   22  S   UNL     1      41.693 -10.029   0.318  1.00  0.00    -0.075 SA
HETATM   23  C   UNL     1      42.826  -9.911  -2.224  1.00  0.00     0.047 C 
HETATM   24  C   UNL     1      42.557 -10.342  -3.671  1.00  0.00     0.005 C 
HETATM   25  C   UNL     1      42.264 -11.843  -3.757  1.00  0.00     0.005 C 
BRANCH  18  26
HETATM   26  C   UNL     1      39.166 -13.033  -0.418  1.00  0.00     0.296 C 
HETATM   27  O   UNL     1      39.350 -14.093  -1.010  1.00  0.00    -0.259 OA
BRANCH  26  28
HETATM   28  O   UNL     1      38.062 -12.745   0.321  1.00  0.00    -0.322 OA
HETATM   29  C   UNL     1      37.258 -13.867   0.690  1.00  0.00     0.213 C 
ENDBRANCH  26  28
ENDBRANCH  18  26
ENDBRANCH  14  17
ENDBRANCH  12  13
ENDBRANCH   1  12
BRANCH   3  30
HETATM   30  C   UNL     1      42.610 -15.455   5.312  1.00  0.00    -0.027 A 
HETATM   31  C   UNL     1      41.767 -16.419   5.886  1.00  0.00     0.012 A 
HETATM   32  C   UNL     1      42.075 -17.009   7.117  1.00  0.00     0.043 A 
HETATM   33  C   UNL     1      43.230 -16.645   7.791  1.00  0.00     0.116 A 
HETATM   34  F   UNL     1      43.529 -17.226   8.959  1.00  0.00    -0.206 F 
HETATM   35  C   UNL     1      44.085 -15.693   7.259  1.00  0.00     0.043 A 
HETATM   36  C   UNL     1      43.775 -15.101   6.031  1.00  0.00     0.012 A 
ENDBRANCH   3  30
BRANCH   5  37
HETATM   37  O   UNL     1      40.833 -17.377   3.343  1.00  0.00    -0.389 OA
HETATM   38  H   UNL     1      39.890 -17.250   3.561  1.00  0.00     0.210 HD
ENDBRANCH   5  37
TORSDOF 7
ENDMDL
MODEL 7
REMARK VINA RESULT:      -6.9      2.729      4.522
REMARK  7 active torsions:
REMARK  status: ('A' for Active; 'I' for Inactive)
REMARK    1  A    between atoms: O_2  and  C_3 
REMARK    2  A    between atoms: C_3  and  C_4 
REMARK    3  A    between atoms: C_5  and  N_6 
REMARK       I    between atoms: N_6  and  C_7 
REMARK    4  A    between atoms: C_7  and  C_8 
REMARK    5  A    between atoms: C_8  and  N_9 
REMARK    6  A    between atoms: C_11  and  C_12 
REMARK    7  A    between atoms: C_20  and  O_21 
ROOT
HETATM    1  N   UNL     1      41.139 -12.785   1.426  1.00  0.00    -0.054 N 
HETATM    2  H   UNL     1      40.556 -13.639   1.359  1.00  0.00     0.281 HD
HETATM    3  C   UNL     1      41.901 -12.633   0.107  1.00  0.00     0.228 C 
HETATM    4  C   UNL     1      42.474 -11.190  -0.020  1.00  0.00     0.055 C 
HETATM    5  C   UNL     1      41.450 -10.075   0.261  1.00  0.00     0.065 C 
HETATM    6  C   UNL     1      40.795 -10.310   1.626  1.00  0.00     0.066 C 
HETATM    7  C   UNL     1      40.148 -11.682   1.702  1.00  0.00     0.239 C 
HETATM    8  C   UNL     1      43.228 -10.939  -1.338  1.00  0.00     0.010 C 
HETATM    9  C   UNL     1      43.923  -9.577  -1.318  1.00  0.00     0.001 C 
HETATM   10  C   UNL     1      42.946  -8.441  -1.032  1.00  0.00     0.003 C 
HETATM   11  C   UNL     1      42.127  -8.688   0.237  1.00  0.00     0.038 C 
ENDROOT
BRANCH   1  12
HETATM   12  C   UNL     1      42.100 -13.137   2.587  1.00  0.00     0.338 C 
BRANCH  12  13
HETATM   13  C   UNL     1      41.501 -13.537   3.940  1.00  0.00     0.248 C 
HETATM   14  N   UNL     1      41.806 -14.733   4.513  1.00  0.00    -0.319 N 
HETATM   15  H   UNL     1      41.802 -14.724   5.530  1.00  0.00     0.169 HD
HETATM   16  O   UNL     1      40.892 -12.705   4.619  1.00  0.00    -0.271 OA
BRANCH  14  17
HETATM   17  C   UNL     1      42.237 -15.895   3.924  1.00  0.00     0.094 A 
HETATM   18  C   UNL     1      41.887 -16.596   2.781  1.00  0.00     0.080 A 
HETATM   19  C   UNL     1      42.640 -17.842   2.721  1.00  0.00    -0.026 A 
HETATM   20  C   UNL     1      43.498 -17.978   3.799  1.00  0.00    -0.008 A 
HETATM   21  C   UNL     1      42.573 -18.905   1.652  1.00  0.00     0.041 C 
HETATM   22  S   UNL     1      43.319 -16.732   4.932  1.00  0.00    -0.075 SA
HETATM   23  C   UNL     1      44.430 -19.127   4.042  1.00  0.00     0.047 C 
HETATM   24  C   UNL     1      44.596 -19.964   2.768  1.00  0.00     0.005 C 
HETATM   25  C   UNL     1      43.246 -20.216   2.090  1.00  0.00     0.005 C 
BRANCH  18  26
HETATM   26  C   UNL     1      40.824 -16.186   1.862  1.00  0.00     0.296 C 
HETATM   27  O   UNL     1      41.000 -16.039   0.655  1.00  0.00    -0.259 OA
BRANCH  26  28
HETATM   28  O   UNL     1      39.651 -15.946   2.504  1.00  0.00    -0.322 OA
HETATM   29  C   UNL     1      38.703 -15.157   1.782  1.00  0.00     0.213 C 
ENDBRANCH  26  28
ENDBRANCH  18  26
ENDBRANCH  14  17
ENDBRANCH  12  13
ENDBRANCH   1  12
BRANCH   3  30
HETATM   30  C   UNL     1      41.242 -13.244  -1.126  1.00  0.00    -0.027 A 
HETATM   31  C   UNL     1      41.943 -13.835  -2.187  1.00  0.00     0.012 A 
HETATM   32  C   UNL     1      41.267 -14.444  -3.252  1.00  0.00     0.043 A 
HETATM   33  C   UNL     1      39.881 -14.469  -3.269  1.00  0.00     0.116 A 
HETATM   34  F   UNL     1      39.240 -15.069  -4.280  1.00  0.00    -0.206 F 
HETATM   35  C   UNL     1      39.154 -13.891  -2.242  1.00  0.00     0.043 A 
HETATM   36  C   UNL     1      39.829 -13.281  -1.181  1.00  0.00     0.012 A 
ENDBRANCH   3  30
BRANCH   5  37
HETATM   37  O   UNL     1      40.404 -10.106  -0.706  1.00  0.00    -0.389 OA
HETATM   38  H   UNL     1      39.722  -9.444  -0.486  1.00  0.00     0.210 HD
ENDBRANCH   5  37
TORSDOF 7
ENDMDL
MODEL 8
REMARK VINA RESULT:      -6.9      2.459      5.517
REMARK  7 active torsions:
REMARK  status: ('A' for Active; 'I' for Inactive)
REMARK    1  A    between atoms: O_2  and  C_3 
REMARK    2  A    between atoms: C_3  and  C_4 
REMARK    3  A    between atoms: C_5  and  N_6 
REMARK       I    between atoms: N_6  and  C_7 
REMARK    4  A    between atoms: C_7  and  C_8 
REMARK    5  A    between atoms: C_8  and  N_9 
REMARK    6  A    between atoms: C_11  and  C_12 
REMARK    7  A    between atoms: C_20  and  O_21 
ROOT
HETATM    1  N   UNL     1      43.526 -16.428   6.095  1.00  0.00    -0.054 N 
HETATM    2  H   UNL     1      44.016 -16.843   6.908  1.00  0.00     0.281 HD
HETATM    3  C   UNL     1      43.794 -17.321   4.880  1.00  0.00     0.228 C 
HETATM    4  C   UNL     1      42.785 -16.994   3.739  1.00  0.00     0.055 C 
HETATM    5  C   UNL     1      41.313 -16.947   4.189  1.00  0.00     0.065 C 
HETATM    6  C   UNL     1      41.167 -15.985   5.372  1.00  0.00     0.066 C 
HETATM    7  C   UNL     1      42.080 -16.375   6.520  1.00  0.00     0.239 C 
HETATM    8  C   UNL     1      42.962 -17.873   2.488  1.00  0.00     0.010 C 
HETATM    9  C   UNL     1      42.076 -17.378   1.345  1.00  0.00     0.001 C 
HETATM   10  C   UNL     1      40.607 -17.307   1.749  1.00  0.00     0.003 C 
HETATM   11  C   UNL     1      40.399 -16.495   3.030  1.00  0.00     0.038 C 
ENDROOT
BRANCH   1  12
HETATM   12  C   UNL     1      44.239 -15.062   5.949  1.00  0.00     0.338 C 
BRANCH  12  13
HETATM   13  C   UNL     1      43.917 -13.954   6.959  1.00  0.00     0.248 C 
HETATM   14  N   UNL     1      42.834 -13.148   6.790  1.00  0.00    -0.319 N 
HETATM   15  H   UNL     1      42.418 -12.818   7.657  1.00  0.00     0.169 HD
HETATM   16  O   UNL     1      44.518 -13.904   8.037  1.00  0.00    -0.271 OA
BRANCH  14  17
HETATM   17  C   UNL     1      42.160 -12.828   5.639  1.00  0.00     0.094 A 
HETATM   18  C   UNL     1      40.882 -12.378   5.350  1.00  0.00     0.080 A 
HETATM   19  C   UNL     1      40.702 -12.307   3.906  1.00  0.00    -0.026 A 
HETATM   20  C   UNL     1      41.846 -12.688   3.225  1.00  0.00    -0.008 A 
HETATM   21  C   UNL     1      39.469 -11.870   3.154  1.00  0.00     0.041 C 
HETATM   22  S   UNL     1      43.060 -13.253   4.261  1.00  0.00    -0.075 SA
HETATM   23  C   UNL     1      42.015 -12.715   1.736  1.00  0.00     0.047 C 
HETATM   24  C   UNL     1      40.897 -11.918   1.052  1.00  0.00     0.005 C 
HETATM   25  C   UNL     1      39.531 -12.244   1.664  1.00  0.00     0.005 C 
BRANCH  18  26
HETATM   26  C   UNL     1      39.848 -12.147   6.360  1.00  0.00     0.296 C 
HETATM   27  O   UNL     1      38.737 -12.668   6.315  1.00  0.00    -0.259 OA
BRANCH  26  28
HETATM   28  O   UNL     1      40.243 -11.260   7.310  1.00  0.00    -0.322 OA
HETATM   29  C   UNL     1      39.496 -11.286   8.527  1.00  0.00     0.213 C 
ENDBRANCH  26  28
ENDBRANCH  18  26
ENDBRANCH  14  17
ENDBRANCH  12  13
ENDBRANCH   1  12
BRANCH   3  30
HETATM   30  C   UNL     1      44.077 -18.791   5.174  1.00  0.00    -0.027 A 
HETATM   31  C   UNL     1      43.624 -19.472   6.314  1.00  0.00     0.012 A 
HETATM   32  C   UNL     1      43.858 -20.842   6.480  1.00  0.00     0.043 A 
HETATM   33  C   UNL     1      44.548 -21.551   5.508  1.00  0.00     0.116 A 
HETATM   34  F   UNL     1      44.753 -22.864   5.663  1.00  0.00    -0.206 F 
HETATM   35  C   UNL     1      45.016 -20.912   4.372  1.00  0.00     0.043 A 
HETATM   36  C   UNL     1      44.785 -19.543   4.207  1.00  0.00     0.012 A 
ENDBRANCH   3  30
BRANCH   5  37
HETATM   37  O   UNL     1      40.894 -18.229   4.648  1.00  0.00    -0.389 OA
HETATM   38  H   UNL     1      41.647 -18.849   4.651  1.00  0.00     0.210 HD
ENDBRANCH   5  37
TORSDOF 7
ENDMDL
MODEL 9
REMARK VINA RESULT:      -6.8      3.065      4.894
REMARK  7 active torsions:
REMARK  status: ('A' for Active; 'I' for Inactive)
REMARK    1  A    between atoms: O_2  and  C_3 
REMARK    2  A    between atoms: C_3  and  C_4 
REMARK    3  A    between atoms: C_5  and  N_6 
REMARK       I    between atoms: N_6  and  C_7 
REMARK    4  A    between atoms: C_7  and  C_8 
REMARK    5  A    between atoms: C_8  and  N_9 
REMARK    6  A    between atoms: C_11  and  C_12 
REMARK    7  A    between atoms: C_20  and  O_21 
ROOT
HETATM    1  N   UNL     1      41.473 -13.448   0.807  1.00  0.00    -0.054 N 
HETATM    2  H   UNL     1      42.409 -13.252   1.205  1.00  0.00     0.281 HD
HETATM    3  C   UNL     1      40.906 -12.131   0.269  1.00  0.00     0.228 C 
HETATM    4  C   UNL     1      39.707 -12.410  -0.684  1.00  0.00     0.055 C 
HETATM    5  C   UNL     1      39.987 -13.475  -1.761  1.00  0.00     0.065 C 
HETATM    6  C   UNL     1      40.498 -14.757  -1.096  1.00  0.00     0.066 C 
HETATM    7  C   UNL     1      41.731 -14.491  -0.251  1.00  0.00     0.239 C 
HETATM    8  C   UNL     1      39.097 -11.138  -1.300  1.00  0.00     0.010 C 
HETATM    9  C   UNL     1      37.816 -11.464  -2.067  1.00  0.00     0.001 C 
HETATM   10  C   UNL     1      38.045 -12.523  -3.140  1.00  0.00     0.003 C 
HETATM   11  C   UNL     1      38.714 -13.780  -2.577  1.00  0.00     0.038 C 
ENDROOT
BRANCH   1  12
HETATM   12  C   UNL     1      40.684 -13.926   2.050  1.00  0.00     0.338 C 
BRANCH  12  13
HETATM   13  C   UNL     1      39.515 -14.897   1.849  1.00  0.00     0.248 C 
HETATM   14  N   UNL     1      39.531 -16.135   2.413  1.00  0.00    -0.319 N 
HETATM   15  H   UNL     1      38.612 -16.496   2.658  1.00  0.00     0.169 HD
HETATM   16  O   UNL     1      38.461 -14.502   1.341  1.00  0.00    -0.271 OA
BRANCH  14  17
HETATM   17  C   UNL     1      40.601 -16.897   2.807  1.00  0.00     0.094 A 
HETATM   18  C   UNL     1      41.278 -17.084   4.002  1.00  0.00     0.080 A 
HETATM   19  C   UNL     1      42.422 -17.959   3.785  1.00  0.00    -0.026 A 
HETATM   20  C   UNL     1      42.513 -18.372   2.467  1.00  0.00    -0.008 A 
HETATM   21  C   UNL     1      43.428 -18.427   4.809  1.00  0.00     0.041 C 
HETATM   22  S   UNL     1      41.358 -17.632   1.474  1.00  0.00    -0.075 SA
HETATM   23  C   UNL     1      43.556 -19.289   1.901  1.00  0.00     0.047 C 
HETATM   24  C   UNL     1      44.300 -20.017   3.027  1.00  0.00     0.005 C 
HETATM   25  C   UNL     1      44.673 -19.054   4.159  1.00  0.00     0.005 C 
BRANCH  18  26
HETATM   26  C   UNL     1      40.948 -16.390   5.248  1.00  0.00     0.296 C 
HETATM   27  O   UNL     1      40.515 -16.965   6.243  1.00  0.00    -0.259 OA
BRANCH  26  28
HETATM   28  O   UNL     1      41.131 -15.047   5.154  1.00  0.00    -0.322 OA
HETATM   29  C   UNL     1      40.097 -14.242   5.723  1.00  0.00     0.213 C 
ENDBRANCH  26  28
ENDBRANCH  18  26
ENDBRANCH  14  17
ENDBRANCH  12  13
ENDBRANCH   1  12
BRANCH   3  30
HETATM   30  C   UNL     1      41.930 -11.086  -0.169  1.00  0.00    -0.027 A 
HETATM   31  C   UNL     1      42.909 -11.300  -1.150  1.00  0.00     0.012 A 
HETATM   32  C   UNL     1      43.766 -10.270  -1.555  1.00  0.00     0.043 A 
HETATM   33  C   UNL     1      43.655  -9.012  -0.984  1.00  0.00     0.116 A 
HETATM   34  F   UNL     1      44.464  -8.025  -1.388  1.00  0.00    -0.206 F 
HETATM   35  C   UNL     1      42.704  -8.763  -0.009  1.00  0.00     0.043 A 
HETATM   36  C   UNL     1      41.850  -9.793   0.398  1.00  0.00     0.012 A 
ENDBRANCH   3  30
BRANCH   5  37
HETATM   37  O   UNL     1      41.017 -13.031  -2.641  1.00  0.00    -0.389 OA
HETATM   38  H   UNL     1      40.719 -12.247  -3.139  1.00  0.00     0.210 HD
ENDBRANCH   5  37
TORSDOF 7
ENDMDL
MODEL 10
REMARK VINA RESULT:      -6.7      2.680      6.747
REMARK  7 active torsions:
REMARK  status: ('A' for Active; 'I' for Inactive)
REMARK    1  A    between atoms: O_2  and  C_3 
REMARK    2  A    between atoms: C_3  and  C_4 
REMARK    3  A    between atoms: C_5  and  N_6 
REMARK       I    between atoms: N_6  and  C_7 
REMARK    4  A    between atoms: C_7  and  C_8 
REMARK    5  A    between atoms: C_8  and  N_9 
REMARK    6  A    between atoms: C_11  and  C_12 
REMARK    7  A    between atoms: C_20  and  O_21 
ROOT
HETATM    1  N   UNL     1      42.943 -17.402   1.324  1.00  0.00    -0.054 N 
HETATM    2  H   UNL     1      43.479 -18.012   0.679  1.00  0.00     0.281 HD
HETATM    3  C   UNL     1      42.439 -18.270   2.480  1.00  0.00     0.228 C 
HETATM    4  C   UNL     1      41.983 -17.371   3.668  1.00  0.00     0.055 C 
HETATM    5  C   UNL     1      43.002 -16.291   4.073  1.00  0.00     0.065 C 
HETATM    6  C   UNL     1      43.388 -15.460   2.846  1.00  0.00     0.066 C 
HETATM    7  C   UNL     1      43.930 -16.336   1.731  1.00  0.00     0.239 C 
HETATM    8  C   UNL     1      41.492 -18.167   4.891  1.00  0.00     0.010 C 
HETATM    9  C   UNL     1      40.885 -17.235   5.939  1.00  0.00     0.001 C 
HETATM   10  C   UNL     1      41.858 -16.141   6.365  1.00  0.00     0.003 C 
HETATM   11  C   UNL     1      42.421 -15.371   5.167  1.00  0.00     0.038 C 
ENDROOT
BRANCH   1  12
HETATM   12  C   UNL     1      41.771 -16.932   0.429  1.00  0.00     0.338 C 
BRANCH  12  13
HETATM   13  C   UNL     1      40.577 -16.235   1.090  1.00  0.00     0.248 C 
HETATM   14  N   UNL     1      40.064 -15.086   0.570  1.00  0.00    -0.319 N 
HETATM   15  H   UNL     1      39.065 -14.967   0.722  1.00  0.00     0.169 HD
HETATM   16  O   UNL     1      39.942 -16.804   1.983  1.00  0.00    -0.271 OA
BRANCH  14  17
HETATM   17  C   UNL     1      40.669 -14.145  -0.224  1.00  0.00     0.094 A 
HETATM   18  C   UNL     1      41.407 -12.998   0.013  1.00  0.00     0.080 A 
HETATM   19  C   UNL     1      41.709 -12.339  -1.251  1.00  0.00    -0.026 A 
HETATM   20  C   UNL     1      41.196 -13.036  -2.330  1.00  0.00    -0.008 A 
HETATM   21  C   UNL     1      42.489 -11.063  -1.459  1.00  0.00     0.041 C 
HETATM   22  S   UNL     1      40.257 -14.364  -1.859  1.00  0.00    -0.075 SA
HETATM   23  C   UNL     1      41.336 -12.652  -3.773  1.00  0.00     0.047 C 
HETATM   24  C   UNL     1      42.431 -11.592  -3.944  1.00  0.00     0.005 C 
HETATM   25  C   UNL     1      42.315 -10.498  -2.878  1.00  0.00     0.005 C 
BRANCH  18  26
HETATM   26  C   UNL     1      41.709 -12.479   1.349  1.00  0.00     0.296 C 
HETATM   27  O   UNL     1      42.849 -12.410   1.800  1.00  0.00    -0.259 OA
BRANCH  26  28
HETATM   28  O   UNL     1      40.588 -12.136   2.035  1.00  0.00    -0.322 OA
HETATM   29  C   UNL     1      40.593 -12.459   3.426  1.00  0.00     0.213 C 
ENDBRANCH  26  28
ENDBRANCH  18  26
ENDBRANCH  14  17
ENDBRANCH  12  13
ENDBRANCH   1  12
BRANCH   3  30
HETATM   30  C   UNL     1      43.273 -19.506   2.807  1.00  0.00    -0.027 A 
HETATM   31  C   UNL     1      44.020 -19.668   3.983  1.00  0.00     0.012 A 
HETATM   32  C   UNL     1      44.701 -20.862   4.250  1.00  0.00     0.043 A 
HETATM   33  C   UNL     1      44.642 -21.911   3.345  1.00  0.00     0.116 A 
HETATM   34  F   UNL     1      45.278 -23.056   3.614  1.00  0.00    -0.206 F 
HETATM   35  C   UNL     1      43.918 -21.786   2.171  1.00  0.00     0.043 A 
HETATM   36  C   UNL     1      43.242 -20.593   1.903  1.00  0.00     0.012 A 
ENDBRANCH   3  30
BRANCH   5  37
HETATM   37  O   UNL     1      44.201 -16.895   4.553  1.00  0.00    -0.389 OA
HETATM   38  H   UNL     1      44.785 -17.123   3.806  1.00  0.00     0.210 HD
ENDBRANCH   5  37
TORSDOF 7
ENDMDL
