MODEL 1
REMARK VINA RESULT:      -9.2      0.000      0.000
REMARK  4 active torsions:
REMARK  status: ('A' for Active; 'I' for Inactive)
REMARK    1  A    between atoms: C_6  and  N_7 
REMARK       I    between atoms: N_7  and  C_8 
REMARK    2  A    between atoms: C_8  and  C_9 
REMARK    3  A    between atoms: C_10  and  C_11 
REMARK    4  A    between atoms: C_14  and  O_15 
ROOT
HETATM    1  C   UNL     1      42.096 -15.192   5.422  1.00  0.00     0.062 C 
HETATM    2  C   UNL     1      40.829 -14.527   4.897  1.00  0.00     0.202 C 
HETATM    3  N   UNL     1      40.662 -13.196   5.493  1.00  0.00    -0.084 N 
HETATM    4  C   UNL     1      41.634 -12.552   6.214  1.00  0.00     0.725 A 
HETATM    5  N   UNL     1      42.811 -13.170   6.438  1.00  0.00    -0.192 N 
HETATM    6  N   UNL     1      39.513 -12.489   5.481  1.00  0.00    -0.149 NA
HETATM    7  C   UNL     1      39.896 -11.386   6.136  1.00  0.00     0.275 A 
HETATM    8  N   UNL     1      41.185 -11.388   6.608  1.00  0.00    -0.054 NA
HETATM    9  C   UNL     1      43.033 -14.507   6.121  1.00  0.00     0.037 C 
HETATM   10  C   UNL     1      44.337 -15.092   6.599  1.00  0.00     0.070 C 
HETATM   11  H   UNL     1      43.504 -12.698   7.012  1.00  0.00     0.184 HD
ENDROOT
BRANCH   1  12
HETATM   12  C   UNL     1      42.191 -16.650   5.172  1.00  0.00     0.256 C 
HETATM   13  N   UNL     1      42.998 -16.934   4.088  1.00  0.00    -0.323 N 
HETATM   14  H   UNL     1      43.375 -16.141   3.588  1.00  0.00     0.169 HD
HETATM   15  O   UNL     1      41.616 -17.434   5.911  1.00  0.00    -0.267 OA
BRANCH  13  16
HETATM   16  C   UNL     1      43.372 -18.208   3.598  1.00  0.00     0.041 A 
HETATM   17  C   UNL     1      42.850 -18.641   2.360  1.00  0.00    -0.035 A 
HETATM   18  C   UNL     1      43.236 -19.894   1.846  1.00  0.00     0.015 A 
HETATM   19  C   UNL     1      41.890 -17.808   1.551  1.00  0.00     0.050 C 
HETATM   20  C   UNL     1      44.115 -20.728   2.545  1.00  0.00    -0.061 A 
HETATM   21  C   UNL     1      44.551 -22.041   1.968  1.00  0.00     0.048 C 
HETATM   22  C   UNL     1      44.629 -20.288   3.764  1.00  0.00     0.009 A 
HETATM   23  C   UNL     1      44.256 -19.045   4.286  1.00  0.00     0.030 A 
ENDBRANCH  13  16
ENDBRANCH   1  12
BRANCH   2  24
HETATM   24  C   UNL     1      40.779 -14.421   3.377  1.00  0.00    -0.028 A 
HETATM   25  C   UNL     1      39.665 -14.905   2.678  1.00  0.00     0.012 A 
HETATM   26  C   UNL     1      39.607 -14.821   1.284  1.00  0.00     0.037 A 
HETATM   27  C   UNL     1      40.656 -14.252   0.559  1.00  0.00     0.068 A 
HETATM   28  C   UNL     1      41.770 -13.767   1.244  1.00  0.00     0.037 A 
HETATM   29  C   UNL     1      41.832 -13.851   2.639  1.00  0.00     0.012 A 
BRANCH  27  30
HETATM   30  O   UNL     1      40.469 -14.231  -0.796  1.00  0.00    -0.356 OA
HETATM   31  C   UNL     1      40.985 -15.334  -1.530  1.00  0.00     0.210 C 
ENDBRANCH  27  30
ENDBRANCH   2  24
TORSDOF 4
ENDMDL
MODEL 2
REMARK VINA RESULT:      -8.8      0.596      1.388
REMARK  4 active torsions:
REMARK  status: ('A' for Active; 'I' for Inactive)
REMARK    1  A    between atoms: C_6  and  N_7 
REMARK       I    between atoms: N_7  and  C_8 
REMARK    2  A    between atoms: C_8  and  C_9 
REMARK    3  A    between atoms: C_10  and  C_11 
REMARK    4  A    between atoms: C_14  and  O_15 
ROOT
HETATM    1  C   UNL     1      41.844 -15.292   5.130  1.00  0.00     0.062 C 
HETATM    2  C   UNL     1      40.714 -14.549   4.427  1.00  0.00     0.202 C 
HETATM    3  N   UNL     1      40.492 -13.240   5.054  1.00  0.00    -0.084 N 
HETATM    4  C   UNL     1      41.344 -12.673   5.966  1.00  0.00     0.725 A 
HETATM    5  N   UNL     1      42.439 -13.352   6.360  1.00  0.00    -0.192 N 
HETATM    6  N   UNL     1      39.390 -12.482   4.878  1.00  0.00    -0.149 NA
HETATM    7  C   UNL     1      39.690 -11.429   5.646  1.00  0.00     0.275 A 
HETATM    8  N   UNL     1      40.874 -11.509   6.336  1.00  0.00    -0.054 NA
HETATM    9  C   UNL     1      42.666 -14.682   6.018  1.00  0.00     0.037 C 
HETATM   10  C   UNL     1      43.843 -15.345   6.686  1.00  0.00     0.070 C 
HETATM   11  H   UNL     1      43.036 -12.938   7.071  1.00  0.00     0.184 HD
ENDROOT
BRANCH   1  12
HETATM   12  C   UNL     1      41.929 -16.741   4.825  1.00  0.00     0.256 C 
HETATM   13  N   UNL     1      42.929 -17.015   3.912  1.00  0.00    -0.323 N 
HETATM   14  H   UNL     1      43.432 -16.220   3.543  1.00  0.00     0.169 HD
HETATM   15  O   UNL     1      41.184 -17.527   5.389  1.00  0.00    -0.267 OA
BRANCH  13  16
HETATM   16  C   UNL     1      43.344 -18.282   3.439  1.00  0.00     0.041 A 
HETATM   17  C   UNL     1      44.255 -19.033   4.213  1.00  0.00    -0.035 A 
HETATM   18  C   UNL     1      44.656 -20.308   3.769  1.00  0.00     0.015 A 
HETATM   19  C   UNL     1      44.821 -18.525   5.514  1.00  0.00     0.050 C 
HETATM   20  C   UNL     1      44.181 -20.841   2.567  1.00  0.00    -0.061 A 
HETATM   21  C   UNL     1      44.582 -22.217   2.126  1.00  0.00     0.048 C 
HETATM   22  C   UNL     1      43.277 -20.094   1.812  1.00  0.00     0.009 A 
HETATM   23  C   UNL     1      42.869 -18.827   2.242  1.00  0.00     0.030 A 
ENDBRANCH  13  16
ENDBRANCH   1  12
BRANCH   2  24
HETATM   24  C   UNL     1      40.938 -14.372   2.929  1.00  0.00    -0.028 A 
HETATM   25  C   UNL     1      40.221 -15.159   2.018  1.00  0.00     0.012 A 
HETATM   26  C   UNL     1      40.420 -15.012   0.642  1.00  0.00     0.037 A 
HETATM   27  C   UNL     1      41.334 -14.080   0.147  1.00  0.00     0.068 A 
HETATM   28  C   UNL     1      42.053 -13.293   1.045  1.00  0.00     0.037 A 
HETATM   29  C   UNL     1      41.858 -13.437   2.424  1.00  0.00     0.012 A 
BRANCH  27  30
HETATM   30  O   UNL     1      41.429 -14.040  -1.217  1.00  0.00    -0.356 OA
HETATM   31  C   UNL     1      40.906 -15.154  -1.928  1.00  0.00     0.210 C 
ENDBRANCH  27  30
ENDBRANCH   2  24
TORSDOF 4
ENDMDL
MODEL 3
REMARK VINA RESULT:      -7.9      3.484      5.517
REMARK  4 active torsions:
REMARK  status: ('A' for Active; 'I' for Inactive)
REMARK    1  A    between atoms: C_6  and  N_7 
REMARK       I    between atoms: N_7  and  C_8 
REMARK    2  A    between atoms: C_8  and  C_9 
REMARK    3  A    between atoms: C_10  and  C_11 
REMARK    4  A    between atoms: C_14  and  O_15 
ROOT
HETATM    1  C   UNL     1      41.597 -14.500  -0.137  1.00  0.00     0.062 C 
HETATM    2  C   UNL     1      42.020 -13.201   0.538  1.00  0.00     0.202 C 
HETATM    3  N   UNL     1      42.302 -12.168  -0.467  1.00  0.00    -0.084 N 
HETATM    4  C   UNL     1      41.985 -12.284  -1.795  1.00  0.00     0.725 A 
HETATM    5  N   UNL     1      41.414 -13.420  -2.242  1.00  0.00    -0.192 N 
HETATM    6  N   UNL     1      42.982 -11.028  -0.224  1.00  0.00    -0.149 NA
HETATM    7  C   UNL     1      42.956 -10.463  -1.437  1.00  0.00     0.275 A 
HETATM    8  N   UNL     1      42.361 -11.203  -2.429  1.00  0.00    -0.054 NA
HETATM    9  C   UNL     1      41.283 -14.559  -1.454  1.00  0.00     0.037 C 
HETATM   10  C   UNL     1      40.787 -15.797  -2.157  1.00  0.00     0.070 C 
HETATM   11  H   UNL     1      41.225 -13.509  -3.237  1.00  0.00     0.184 HD
ENDROOT
BRANCH   1  12
HETATM   12  C   UNL     1      41.624 -15.699   0.735  1.00  0.00     0.256 C 
HETATM   13  N   UNL     1      42.915 -16.081   1.042  1.00  0.00    -0.323 N 
HETATM   14  H   UNL     1      43.657 -15.544   0.616  1.00  0.00     0.169 HD
HETATM   15  O   UNL     1      40.577 -16.202   1.112  1.00  0.00    -0.267 OA
BRANCH  13  16
HETATM   16  C   UNL     1      43.326 -17.131   1.897  1.00  0.00     0.041 A 
HETATM   17  C   UNL     1      43.433 -16.879   3.282  1.00  0.00    -0.035 A 
HETATM   18  C   UNL     1      43.813 -17.922   4.148  1.00  0.00     0.015 A 
HETATM   19  C   UNL     1      43.149 -15.527   3.881  1.00  0.00     0.050 C 
HETATM   20  C   UNL     1      44.104 -19.201   3.663  1.00  0.00    -0.061 A 
HETATM   21  C   UNL     1      44.467 -20.313   4.600  1.00  0.00     0.048 C 
HETATM   22  C   UNL     1      43.991 -19.441   2.294  1.00  0.00     0.009 A 
HETATM   23  C   UNL     1      43.612 -18.415   1.422  1.00  0.00     0.030 A 
ENDBRANCH  13  16
ENDBRANCH   1  12
BRANCH   2  24
HETATM   24  C   UNL     1      41.003 -12.675   1.545  1.00  0.00    -0.028 A 
HETATM   25  C   UNL     1      41.412 -12.346   2.845  1.00  0.00     0.012 A 
HETATM   26  C   UNL     1      40.489 -11.869   3.781  1.00  0.00     0.037 A 
HETATM   27  C   UNL     1      39.145 -11.710   3.442  1.00  0.00     0.068 A 
HETATM   28  C   UNL     1      38.727 -12.035   2.152  1.00  0.00     0.037 A 
HETATM   29  C   UNL     1      39.646 -12.514   1.212  1.00  0.00     0.012 A 
BRANCH  27  30
HETATM   30  O   UNL     1      38.353 -11.234   4.451  1.00  0.00    -0.356 OA
HETATM   31  C   UNL     1      38.547  -9.879   4.832  1.00  0.00     0.210 C 
ENDBRANCH  27  30
ENDBRANCH   2  24
TORSDOF 4
ENDMDL
MODEL 4
REMARK VINA RESULT:      -7.8      2.761      5.055
REMARK  4 active torsions:
REMARK  status: ('A' for Active; 'I' for Inactive)
REMARK    1  A    between atoms: C_6  and  N_7 
REMARK       I    between atoms: N_7  and  C_8 
REMARK    2  A    between atoms: C_8  and  C_9 
REMARK    3  A    between atoms: C_10  and  C_11 
REMARK    4  A    between atoms: C_14  and  O_15 
ROOT
HETATM    1  C   UNL     1      42.337 -16.121   1.512  1.00  0.00     0.062 C 
HETATM    2  C   UNL     1      42.794 -14.688   1.756  1.00  0.00     0.202 C 
HETATM    3  N   UNL     1      41.896 -13.742   1.081  1.00  0.00    -0.084 N 
HETATM    4  C   UNL     1      40.689 -14.089   0.533  1.00  0.00     0.725 A 
HETATM    5  N   UNL     1      40.293 -15.377   0.565  1.00  0.00    -0.192 N 
HETATM    6  N   UNL     1      42.187 -12.446   0.843  1.00  0.00    -0.149 NA
HETATM    7  C   UNL     1      41.066 -12.052   0.226  1.00  0.00     0.275 A 
HETATM    8  N   UNL     1      40.127 -13.029   0.011  1.00  0.00    -0.054 NA
HETATM    9  C   UNL     1      41.127 -16.412   0.976  1.00  0.00     0.037 C 
HETATM   10  C   UNL     1      40.593 -17.808   0.782  1.00  0.00     0.070 C 
HETATM   11  H   UNL     1      39.416 -15.625   0.115  1.00  0.00     0.184 HD
ENDROOT
BRANCH   1  12
HETATM   12  C   UNL     1      43.339 -17.165   1.838  1.00  0.00     0.256 C 
HETATM   13  N   UNL     1      42.909 -17.988   2.860  1.00  0.00    -0.323 N 
HETATM   14  H   UNL     1      42.016 -17.761   3.275  1.00  0.00     0.169 HD
HETATM   15  O   UNL     1      44.380 -17.230   1.202  1.00  0.00    -0.267 OA
BRANCH  13  16
HETATM   16  C   UNL     1      43.565 -19.125   3.388  1.00  0.00     0.041 A 
HETATM   17  C   UNL     1      43.893 -19.146   4.762  1.00  0.00    -0.035 A 
HETATM   18  C   UNL     1      44.520 -20.282   5.307  1.00  0.00     0.015 A 
HETATM   19  C   UNL     1      43.591 -17.991   5.681  1.00  0.00     0.050 C 
HETATM   20  C   UNL     1      44.840 -21.388   4.513  1.00  0.00    -0.061 A 
HETATM   21  C   UNL     1      45.470 -22.608   5.115  1.00  0.00     0.048 C 
HETATM   22  C   UNL     1      44.508 -21.360   3.159  1.00  0.00     0.009 A 
HETATM   23  C   UNL     1      43.883 -20.239   2.604  1.00  0.00     0.030 A 
ENDBRANCH  13  16
ENDBRANCH   1  12
BRANCH   2  24
HETATM   24  C   UNL     1      42.910 -14.325   3.232  1.00  0.00    -0.028 A 
HETATM   25  C   UNL     1      44.165 -14.033   3.783  1.00  0.00     0.012 A 
HETATM   26  C   UNL     1      44.288 -13.705   5.137  1.00  0.00     0.037 A 
HETATM   27  C   UNL     1      43.166 -13.661   5.966  1.00  0.00     0.068 A 
HETATM   28  C   UNL     1      41.913 -13.951   5.428  1.00  0.00     0.037 A 
HETATM   29  C   UNL     1      41.784 -14.281   4.074  1.00  0.00     0.012 A 
BRANCH  27  30
HETATM   30  O   UNL     1      43.428 -13.326   7.266  1.00  0.00    -0.356 OA
HETATM   31  C   UNL     1      44.721 -13.649   7.762  1.00  0.00     0.210 C 
ENDBRANCH  27  30
ENDBRANCH   2  24
TORSDOF 4
ENDMDL
MODEL 5
REMARK VINA RESULT:      -7.8      2.122      3.066
REMARK  4 active torsions:
REMARK  status: ('A' for Active; 'I' for Inactive)
REMARK    1  A    between atoms: C_6  and  N_7 
REMARK       I    between atoms: N_7  and  C_8 
REMARK    2  A    between atoms: C_8  and  C_9 
REMARK    3  A    between atoms: C_10  and  C_11 
REMARK    4  A    between atoms: C_14  and  O_15 
ROOT
HETATM    1  C   UNL     1      42.562 -14.802   2.667  1.00  0.00     0.062 C 
HETATM    2  C   UNL     1      41.229 -14.657   1.944  1.00  0.00     0.202 C 
HETATM    3  N   UNL     1      40.414 -13.611   2.574  1.00  0.00    -0.084 N 
HETATM    4  C   UNL     1      40.888 -12.729   3.509  1.00  0.00     0.725 A 
HETATM    5  N   UNL     1      42.167 -12.828   3.924  1.00  0.00    -0.192 N 
HETATM    6  N   UNL     1      39.088 -13.449   2.378  1.00  0.00    -0.149 NA
HETATM    7  C   UNL     1      38.851 -12.390   3.160  1.00  0.00     0.275 A 
HETATM    8  N   UNL     1      39.925 -11.922   3.876  1.00  0.00    -0.054 NA
HETATM    9  C   UNL     1      42.991 -13.894   3.577  1.00  0.00     0.037 C 
HETATM   10  C   UNL     1      44.330 -13.946   4.267  1.00  0.00     0.070 C 
HETATM   11  H   UNL     1      42.491 -12.196   4.650  1.00  0.00     0.184 HD
ENDROOT
BRANCH   1  12
HETATM   12  C   UNL     1      43.316 -16.040   2.354  1.00  0.00     0.256 C 
HETATM   13  N   UNL     1      42.917 -17.098   3.147  1.00  0.00    -0.323 N 
HETATM   14  H   UNL     1      42.218 -16.896   3.848  1.00  0.00     0.169 HD
HETATM   15  O   UNL     1      44.150 -16.037   1.462  1.00  0.00    -0.267 OA
BRANCH  13  16
HETATM   16  C   UNL     1      43.363 -18.439   3.088  1.00  0.00     0.041 A 
HETATM   17  C   UNL     1      44.093 -18.964   4.177  1.00  0.00    -0.035 A 
HETATM   18  C   UNL     1      44.518 -20.306   4.144  1.00  0.00     0.015 A 
HETATM   19  C   UNL     1      44.436 -18.140   5.390  1.00  0.00     0.050 C 
HETATM   20  C   UNL     1      44.246 -21.128   3.046  1.00  0.00    -0.061 A 
HETATM   21  C   UNL     1      44.667 -22.567   3.041  1.00  0.00     0.048 C 
HETATM   22  C   UNL     1      43.519 -20.602   1.978  1.00  0.00     0.009 A 
HETATM   23  C   UNL     1      43.089 -19.272   1.998  1.00  0.00     0.030 A 
ENDBRANCH  13  16
ENDBRANCH   1  12
BRANCH   2  24
HETATM   24  C   UNL     1      41.370 -14.371   0.452  1.00  0.00    -0.028 A 
HETATM   25  C   UNL     1      41.886 -13.141   0.022  1.00  0.00     0.012 A 
HETATM   26  C   UNL     1      42.016 -12.862  -1.341  1.00  0.00     0.037 A 
HETATM   27  C   UNL     1      41.635 -13.801  -2.302  1.00  0.00     0.068 A 
HETATM   28  C   UNL     1      41.119 -15.027  -1.885  1.00  0.00     0.037 A 
HETATM   29  C   UNL     1      40.987 -15.311  -0.521  1.00  0.00     0.012 A 
BRANCH  27  30
HETATM   30  O   UNL     1      41.816 -13.400  -3.597  1.00  0.00    -0.356 OA
HETATM   31  C   UNL     1      42.066 -12.016  -3.810  1.00  0.00     0.210 C 
ENDBRANCH  27  30
ENDBRANCH   2  24
TORSDOF 4
ENDMDL
MODEL 6
REMARK VINA RESULT:      -7.7      2.829      6.238
REMARK  4 active torsions:
REMARK  status: ('A' for Active; 'I' for Inactive)
REMARK    1  A    between atoms: C_6  and  N_7 
REMARK       I    between atoms: N_7  and  C_8 
REMARK    2  A    between atoms: C_8  and  C_9 
REMARK    3  A    between atoms: C_10  and  C_11 
REMARK    4  A    between atoms: C_14  and  O_15 
ROOT
HETATM    1  C   UNL     1      42.167 -17.110   3.105  1.00  0.00     0.062 C 
HETATM    2  C   UNL     1      41.696 -16.880   4.536  1.00  0.00     0.202 C 
HETATM    3  N   UNL     1      42.609 -17.527   5.486  1.00  0.00    -0.084 N 
HETATM    4  C   UNL     1      43.834 -18.038   5.146  1.00  0.00     0.725 A 
HETATM    5  N   UNL     1      44.235 -17.994   3.859  1.00  0.00    -0.192 N 
HETATM    6  N   UNL     1      42.319 -17.774   6.781  1.00  0.00    -0.149 NA
HETATM    7  C   UNL     1      43.455 -18.356   7.181  1.00  0.00     0.275 A 
HETATM    8  N   UNL     1      44.406 -18.543   6.209  1.00  0.00    -0.054 NA
HETATM    9  C   UNL     1      43.394 -17.609   2.820  1.00  0.00     0.037 C 
HETATM   10  C   UNL     1      43.940 -17.787   1.427  1.00  0.00     0.070 C 
HETATM   11  H   UNL     1      45.126 -18.418   3.615  1.00  0.00     0.184 HD
ENDROOT
BRANCH   1  12
HETATM   12  C   UNL     1      41.160 -16.814   2.056  1.00  0.00     0.256 C 
HETATM   13  N   UNL     1      41.403 -15.604   1.438  1.00  0.00    -0.323 N 
HETATM   14  H   UNL     1      42.182 -15.066   1.792  1.00  0.00     0.169 HD
HETATM   15  O   UNL     1      40.276 -17.622   1.816  1.00  0.00    -0.267 OA
BRANCH  13  16
HETATM   16  C   UNL     1      40.697 -15.029   0.354  1.00  0.00     0.041 A 
HETATM   17  C   UNL     1      39.623 -14.155   0.629  1.00  0.00    -0.035 A 
HETATM   18  C   UNL     1      38.930 -13.553  -0.439  1.00  0.00     0.015 A 
HETATM   19  C   UNL     1      39.184 -13.829   2.032  1.00  0.00     0.050 C 
HETATM   20  C   UNL     1      39.273 -13.816  -1.769  1.00  0.00    -0.061 A 
HETATM   21  C   UNL     1      38.555 -13.137  -2.896  1.00  0.00     0.048 C 
HETATM   22  C   UNL     1      40.339 -14.677  -2.029  1.00  0.00     0.009 A 
HETATM   23  C   UNL     1      41.038 -15.279  -0.979  1.00  0.00     0.030 A 
ENDBRANCH  13  16
ENDBRANCH   1  12
BRANCH   2  24
HETATM   24  C   UNL     1      41.533 -15.408   4.897  1.00  0.00    -0.028 A 
HETATM   25  C   UNL     1      42.603 -14.521   4.713  1.00  0.00     0.012 A 
HETATM   26  C   UNL     1      42.471 -13.170   5.046  1.00  0.00     0.037 A 
HETATM   27  C   UNL     1      41.274 -12.676   5.567  1.00  0.00     0.068 A 
HETATM   28  C   UNL     1      40.204 -13.549   5.755  1.00  0.00     0.037 A 
HETATM   29  C   UNL     1      40.331 -14.903   5.425  1.00  0.00     0.012 A 
BRANCH  27  30
HETATM   30  O   UNL     1      41.281 -11.337   5.847  1.00  0.00    -0.356 OA
HETATM   31  C   UNL     1      41.691 -10.958   7.155  1.00  0.00     0.210 C 
ENDBRANCH  27  30
ENDBRANCH   2  24
TORSDOF 4
ENDMDL
MODEL 7
REMARK VINA RESULT:      -7.5      2.285      5.964
REMARK  4 active torsions:
REMARK  status: ('A' for Active; 'I' for Inactive)
REMARK    1  A    between atoms: C_6  and  N_7 
REMARK       I    between atoms: N_7  and  C_8 
REMARK    2  A    between atoms: C_8  and  C_9 
REMARK    3  A    between atoms: C_10  and  C_11 
REMARK    4  A    between atoms: C_14  and  O_15 
ROOT
HETATM    1  C   UNL     1      42.070 -15.337   4.127  1.00  0.00     0.062 C 
HETATM    2  C   UNL     1      43.372 -16.102   4.331  1.00  0.00     0.202 C 
HETATM    3  N   UNL     1      43.567 -16.414   5.753  1.00  0.00    -0.084 N 
HETATM    4  C   UNL     1      42.598 -16.262   6.710  1.00  0.00     0.725 A 
HETATM    5  N   UNL     1      41.396 -15.761   6.362  1.00  0.00    -0.192 N 
HETATM    6  N   UNL     1      44.739 -16.799   6.300  1.00  0.00    -0.149 NA
HETATM    7  C   UNL     1      44.375 -16.950   7.579  1.00  0.00     0.275 A 
HETATM    8  N   UNL     1      43.075 -16.624   7.874  1.00  0.00    -0.054 NA
HETATM    9  C   UNL     1      41.138 -15.225   5.104  1.00  0.00     0.037 C 
HETATM   10  C   UNL     1      39.803 -14.547   4.935  1.00  0.00     0.070 C 
HETATM   11  H   UNL     1      40.704 -15.613   7.091  1.00  0.00     0.184 HD
ENDROOT
BRANCH   1  12
HETATM   12  C   UNL     1      41.933 -14.669   2.810  1.00  0.00     0.256 C 
HETATM   13  N   UNL     1      41.096 -15.369   1.964  1.00  0.00    -0.323 N 
HETATM   14  H   UNL     1      40.727 -16.241   2.316  1.00  0.00     0.169 HD
HETATM   15  O   UNL     1      42.506 -13.610   2.601  1.00  0.00    -0.267 OA
BRANCH  13  16
HETATM   16  C   UNL     1      40.679 -15.002   0.662  1.00  0.00     0.041 A 
HETATM   17  C   UNL     1      39.503 -14.235   0.514  1.00  0.00    -0.035 A 
HETATM   18  C   UNL     1      39.092 -13.839  -0.773  1.00  0.00     0.015 A 
HETATM   19  C   UNL     1      38.662 -13.811   1.690  1.00  0.00     0.050 C 
HETATM   20  C   UNL     1      39.816 -14.204  -1.912  1.00  0.00    -0.061 A 
HETATM   21  C   UNL     1      39.390 -13.741  -3.273  1.00  0.00     0.048 C 
HETATM   22  C   UNL     1      40.978 -14.958  -1.755  1.00  0.00     0.009 A 
HETATM   23  C   UNL     1      41.400 -15.356  -0.483  1.00  0.00     0.030 A 
ENDBRANCH  13  16
ENDBRANCH   1  12
BRANCH   2  24
HETATM   24  C   UNL     1      43.466 -17.381   3.506  1.00  0.00    -0.028 A 
HETATM   25  C   UNL     1      43.172 -18.617   4.097  1.00  0.00     0.012 A 
HETATM   26  C   UNL     1      43.260 -19.799   3.355  1.00  0.00     0.037 A 
HETATM   27  C   UNL     1      43.641 -19.772   2.012  1.00  0.00     0.068 A 
HETATM   28  C   UNL     1      43.937 -18.548   1.415  1.00  0.00     0.037 A 
HETATM   29  C   UNL     1      43.852 -17.363   2.154  1.00  0.00     0.012 A 
BRANCH  27  30
HETATM   30  O   UNL     1      43.685 -20.998   1.406  1.00  0.00    -0.356 OA
HETATM   31  C   UNL     1      44.355 -22.037   2.109  1.00  0.00     0.210 C 
ENDBRANCH  27  30
ENDBRANCH   2  24
TORSDOF 4
ENDMDL
MODEL 8
REMARK VINA RESULT:      -7.3      2.120      5.872
REMARK  4 active torsions:
REMARK  status: ('A' for Active; 'I' for Inactive)
REMARK    1  A    between atoms: C_6  and  N_7 
REMARK       I    between atoms: N_7  and  C_8 
REMARK    2  A    between atoms: C_8  and  C_9 
REMARK    3  A    between atoms: C_10  and  C_11 
REMARK    4  A    between atoms: C_14  and  O_15 
ROOT
HETATM    1  C   UNL     1      42.117 -13.468   3.306  1.00  0.00     0.062 C 
HETATM    2  C   UNL     1      43.401 -14.227   3.616  1.00  0.00     0.202 C 
HETATM    3  N   UNL     1      43.796 -14.017   5.015  1.00  0.00    -0.084 N 
HETATM    4  C   UNL     1      42.992 -13.435   5.959  1.00  0.00     0.725 A 
HETATM    5  N   UNL     1      41.773 -12.983   5.603  1.00  0.00    -0.192 N 
HETATM    6  N   UNL     1      45.020 -14.288   5.514  1.00  0.00    -0.149 NA
HETATM    7  C   UNL     1      44.850 -13.927   6.792  1.00  0.00     0.275 A 
HETATM    8  N   UNL     1      43.624 -13.393   7.104  1.00  0.00    -0.054 NA
HETATM    9  C   UNL     1      41.351 -12.919   4.279  1.00  0.00     0.037 C 
HETATM   10  C   UNL     1      40.035 -12.223   4.038  1.00  0.00     0.070 C 
HETATM   11  H   UNL     1      41.207 -12.513   6.304  1.00  0.00     0.184 HD
ENDROOT
BRANCH   1  12
HETATM   12  C   UNL     1      41.810 -13.314   1.863  1.00  0.00     0.256 C 
HETATM   13  N   UNL     1      40.848 -14.212   1.445  1.00  0.00    -0.323 N 
HETATM   14  H   UNL     1      40.514 -14.869   2.136  1.00  0.00     0.169 HD
HETATM   15  O   UNL     1      42.369 -12.447   1.210  1.00  0.00    -0.267 OA
BRANCH  13  16
HETATM   16  C   UNL     1      40.260 -14.314   0.162  1.00  0.00     0.041 A 
HETATM   17  C   UNL     1      38.928 -13.879  -0.013  1.00  0.00    -0.035 A 
HETATM   18  C   UNL     1      38.339 -13.948  -1.290  1.00  0.00     0.015 A 
HETATM   19  C   UNL     1      38.101 -13.332   1.120  1.00  0.00     0.050 C 
HETATM   20  C   UNL     1      39.041 -14.455  -2.389  1.00  0.00    -0.061 A 
HETATM   21  C   UNL     1      38.417 -14.484  -3.752  1.00  0.00     0.048 C 
HETATM   22  C   UNL     1      40.357 -14.877  -2.206  1.00  0.00     0.009 A 
HETATM   23  C   UNL     1      40.956 -14.812  -0.944  1.00  0.00     0.030 A 
ENDBRANCH  13  16
ENDBRANCH   1  12
BRANCH   2  24
HETATM   24  C   UNL     1      43.314 -15.721   3.324  1.00  0.00    -0.028 A 
HETATM   25  C   UNL     1      43.875 -16.238   2.148  1.00  0.00     0.012 A 
HETATM   26  C   UNL     1      43.798 -17.604   1.864  1.00  0.00     0.037 A 
HETATM   27  C   UNL     1      43.162 -18.482   2.743  1.00  0.00     0.068 A 
HETATM   28  C   UNL     1      42.599 -17.979   3.915  1.00  0.00     0.037 A 
HETATM   29  C   UNL     1      42.673 -16.612   4.204  1.00  0.00     0.012 A 
BRANCH  27  30
HETATM   30  O   UNL     1      43.159 -19.790   2.343  1.00  0.00    -0.356 OA
HETATM   31  C   UNL     1      44.315 -20.557   2.654  1.00  0.00     0.210 C 
ENDBRANCH  27  30
ENDBRANCH   2  24
TORSDOF 4
ENDMDL
MODEL 9
REMARK VINA RESULT:      -7.2      3.364      5.329
REMARK  4 active torsions:
REMARK  status: ('A' for Active; 'I' for Inactive)
REMARK    1  A    between atoms: C_6  and  N_7 
REMARK       I    between atoms: N_7  and  C_8 
REMARK    2  A    between atoms: C_8  and  C_9 
REMARK    3  A    between atoms: C_10  and  C_11 
REMARK    4  A    between atoms: C_14  and  O_15 
ROOT
HETATM    1  C   UNL     1      41.650 -14.596   1.455  1.00  0.00     0.062 C 
HETATM    2  C   UNL     1      41.893 -13.099   1.605  1.00  0.00     0.202 C 
HETATM    3  N   UNL     1      42.231 -12.501   0.307  1.00  0.00    -0.084 N 
HETATM    4  C   UNL     1      42.096 -13.148  -0.893  1.00  0.00     0.725 A 
HETATM    5  N   UNL     1      41.667 -14.426  -0.911  1.00  0.00    -0.192 N 
HETATM    6  N   UNL     1      42.794 -11.285   0.146  1.00  0.00    -0.149 NA
HETATM    7  C   UNL     1      42.886 -11.231  -1.187  1.00  0.00     0.275 A 
HETATM    8  N   UNL     1      42.476 -12.354  -1.861  1.00  0.00    -0.054 NA
HETATM    9  C   UNL     1      41.513 -15.187   0.243  1.00  0.00     0.037 C 
HETATM   10  C   UNL     1      41.199 -16.646   0.037  1.00  0.00     0.070 C 
HETATM   11  H   UNL     1      41.615 -14.907  -1.805  1.00  0.00     0.184 HD
ENDROOT
BRANCH   1  12
HETATM   12  C   UNL     1      41.647 -15.363   2.724  1.00  0.00     0.256 C 
HETATM   13  N   UNL     1      42.923 -15.726   3.108  1.00  0.00    -0.323 N 
HETATM   14  H   UNL     1      43.671 -15.474   2.477  1.00  0.00     0.169 HD
HETATM   15  O   UNL     1      40.594 -15.571   3.308  1.00  0.00    -0.267 OA
BRANCH  13  16
HETATM   16  C   UNL     1      43.312 -16.402   4.289  1.00  0.00     0.041 A 
HETATM   17  C   UNL     1      43.594 -17.784   4.221  1.00  0.00    -0.035 A 
HETATM   18  C   UNL     1      44.010 -18.463   5.382  1.00  0.00     0.015 A 
HETATM   19  C   UNL     1      43.473 -18.572   2.943  1.00  0.00     0.050 C 
HETATM   20  C   UNL     1      44.134 -17.801   6.608  1.00  0.00    -0.061 A 
HETATM   21  C   UNL     1      44.618 -18.526   7.827  1.00  0.00     0.048 C 
HETATM   22  C   UNL     1      43.858 -16.435   6.662  1.00  0.00     0.009 A 
HETATM   23  C   UNL     1      43.446 -15.747   5.517  1.00  0.00     0.030 A 
ENDBRANCH  13  16
ENDBRANCH   1  12
BRANCH   2  24
HETATM   24  C   UNL     1      40.720 -12.349   2.228  1.00  0.00    -0.028 A 
HETATM   25  C   UNL     1      40.934 -11.506   3.327  1.00  0.00     0.012 A 
HETATM   26  C   UNL     1      39.869 -10.816   3.912  1.00  0.00     0.037 A 
HETATM   27  C   UNL     1      38.571 -10.952   3.416  1.00  0.00     0.068 A 
HETATM   28  C   UNL     1      38.346 -11.788   2.323  1.00  0.00     0.037 A 
HETATM   29  C   UNL     1      39.410 -12.482   1.734  1.00  0.00     0.012 A 
BRANCH  27  30
HETATM   30  O   UNL     1      37.625 -10.221   4.081  1.00  0.00    -0.356 OA
HETATM   31  C   UNL     1      38.063  -9.020   4.703  1.00  0.00     0.210 C 
ENDBRANCH  27  30
ENDBRANCH   2  24
TORSDOF 4
ENDMDL
MODEL 10
REMARK VINA RESULT:      -7.1      1.969      6.606
REMARK  4 active torsions:
REMARK  status: ('A' for Active; 'I' for Inactive)
REMARK    1  A    between atoms: C_6  and  N_7 
REMARK       I    between atoms: N_7  and  C_8 
REMARK    2  A    between atoms: C_8  and  C_9 
REMARK    3  A    between atoms: C_10  and  C_11 
REMARK    4  A    between atoms: C_14  and  O_15 
ROOT
HETATM    1  C   UNL     1      43.149 -15.589   4.577  1.00  0.00     0.062 C 
HETATM    2  C   UNL     1      43.190 -15.893   3.084  1.00  0.00     0.202 C 
HETATM    3  N   UNL     1      43.407 -17.327   2.857  1.00  0.00    -0.084 N 
HETATM    4  C   UNL     1      43.328 -18.279   3.840  1.00  0.00     0.725 A 
HETATM    5  N   UNL     1      43.075 -17.900   5.109  1.00  0.00    -0.192 N 
HETATM    6  N   UNL     1      43.795 -17.868   1.684  1.00  0.00    -0.149 NA
HETATM    7  C   UNL     1      43.841 -19.164   2.013  1.00  0.00     0.275 A 
HETATM    8  N   UNL     1      43.568 -19.458   3.325  1.00  0.00    -0.054 NA
HETATM    9  C   UNL     1      43.059 -16.568   5.510  1.00  0.00     0.037 C 
HETATM   10  C   UNL     1      42.939 -16.325   6.992  1.00  0.00     0.070 C 
HETATM   11  H   UNL     1      43.063 -18.613   5.833  1.00  0.00     0.184 HD
ENDROOT
BRANCH   1  12
HETATM   12  C   UNL     1      43.286 -14.156   4.932  1.00  0.00     0.256 C 
HETATM   13  N   UNL     1      42.059 -13.566   5.167  1.00  0.00    -0.323 N 
HETATM   14  H   UNL     1      41.245 -14.150   5.031  1.00  0.00     0.169 HD
HETATM   15  O   UNL     1      44.395 -13.651   5.013  1.00  0.00    -0.267 OA
BRANCH  13  16
HETATM   16  C   UNL     1      41.804 -12.241   5.591  1.00  0.00     0.041 A 
HETATM   17  C   UNL     1      41.292 -11.313   4.657  1.00  0.00    -0.035 A 
HETATM   18  C   UNL     1      41.007  -9.999   5.071  1.00  0.00     0.015 A 
HETATM   19  C   UNL     1      41.029 -11.677   3.219  1.00  0.00     0.050 C 
HETATM   20  C   UNL     1      41.235  -9.585   6.388  1.00  0.00    -0.061 A 
HETATM   21  C   UNL     1      40.887  -8.195   6.827  1.00  0.00     0.048 C 
HETATM   22  C   UNL     1      41.736 -10.510   7.304  1.00  0.00     0.009 A 
HETATM   23  C   UNL     1      42.022 -11.820   6.907  1.00  0.00     0.030 A 
ENDBRANCH  13  16
ENDBRANCH   1  12
BRANCH   2  24
HETATM   24  C   UNL     1      41.945 -15.435   2.332  1.00  0.00    -0.028 A 
HETATM   25  C   UNL     1      42.074 -14.647   1.180  1.00  0.00     0.012 A 
HETATM   26  C   UNL     1      40.942 -14.214   0.484  1.00  0.00     0.037 A 
HETATM   27  C   UNL     1      39.661 -14.558   0.920  1.00  0.00     0.068 A 
HETATM   28  C   UNL     1      39.520 -15.341   2.065  1.00  0.00     0.037 A 
HETATM   29  C   UNL     1      40.651 -15.775   2.766  1.00  0.00     0.012 A 
BRANCH  27  30
HETATM   30  O   UNL     1      38.644 -14.070   0.146  1.00  0.00    -0.356 OA
HETATM   31  C   UNL     1      37.344 -14.069   0.723  1.00  0.00     0.210 C 
ENDBRANCH  27  30
ENDBRANCH   2  24
TORSDOF 4
ENDMDL
