MODEL 1
REMARK VINA RESULT:      -8.4      0.000      0.000
REMARK  2 active torsions:
REMARK  status: ('A' for Active; 'I' for Inactive)
REMARK    1  A    between atoms: C_5  and  C_6 
REMARK    2  A    between atoms: C_15  and  C_16 
ROOT
HETATM    1  C   UNL     1      41.394 -15.312   1.600  1.00  0.00     0.190 A 
HETATM    2  N   UNL     1      42.101 -14.322   0.829  1.00  0.00    -0.308 N 
HETATM    3  C   UNL     1      42.125 -13.101   1.458  1.00  0.00     0.320 A 
HETATM    4  O   UNL     1      42.583 -12.077   0.986  1.00  0.00    -0.247 OA
HETATM    5  N   UNL     1      41.558 -13.212   2.705  1.00  0.00    -0.308 N 
HETATM    6  N   UNL     1      40.093 -15.488   1.005  1.00  0.00    -0.308 N 
HETATM    7  C   UNL     1      39.090 -14.971   1.787  1.00  0.00     0.320 A 
HETATM    8  O   UNL     1      37.908 -14.957   1.494  1.00  0.00    -0.247 OA
HETATM    9  N   UNL     1      39.622 -14.480   2.955  1.00  0.00    -0.308 N 
HETATM   10  C   UNL     1      41.060 -14.540   2.960  1.00  0.00     0.190 A 
HETATM   11  H   UNL     1      42.375 -14.422  -0.135  1.00  0.00     0.167 HD
HETATM   12  H   UNL     1      41.420 -12.411   3.301  1.00  0.00     0.167 HD
HETATM   13  H   UNL     1      39.917 -15.838   0.076  1.00  0.00     0.167 HD
HETATM   14  H   UNL     1      39.058 -13.964   3.613  1.00  0.00     0.167 HD
ENDROOT
BRANCH   1  15
HETATM   15  C   UNL     1      42.162 -16.622   1.702  1.00  0.00    -0.005 A 
HETATM   16  C   UNL     1      43.566 -16.648   1.616  1.00  0.00     0.012 A 
HETATM   17  C   UNL     1      44.277 -17.843   1.764  1.00  0.00     0.007 A 
HETATM   18  C   UNL     1      43.607 -19.046   1.997  1.00  0.00    -0.062 A 
HETATM   19  C   UNL     1      44.363 -20.324   2.196  1.00  0.00     0.048 C 
HETATM   20  C   UNL     1      42.213 -19.033   2.095  1.00  0.00     0.007 A 
HETATM   21  C   UNL     1      41.501 -17.839   1.951  1.00  0.00     0.012 A 
ENDBRANCH   1  15
BRANCH  10  22
HETATM   22  C   UNL     1      41.611 -15.121   4.254  1.00  0.00    -0.005 A 
HETATM   23  C   UNL     1      42.931 -14.862   4.668  1.00  0.00     0.012 A 
HETATM   24  C   UNL     1      43.453 -15.438   5.829  1.00  0.00     0.007 A 
HETATM   25  C   UNL     1      42.672 -16.295   6.609  1.00  0.00    -0.062 A 
HETATM   26  C   UNL     1      43.228 -16.937   7.844  1.00  0.00     0.048 C 
HETATM   27  C   UNL     1      41.361 -16.565   6.208  1.00  0.00     0.007 A 
HETATM   28  C   UNL     1      40.838 -15.989   5.048  1.00  0.00     0.012 A 
ENDBRANCH  10  22
TORSDOF 2
ENDMDL
MODEL 2
REMARK VINA RESULT:      -8.4      0.078      4.532
REMARK  2 active torsions:
REMARK  status: ('A' for Active; 'I' for Inactive)
REMARK    1  A    between atoms: C_5  and  C_6 
REMARK    2  A    between atoms: C_15  and  C_16 
ROOT
HETATM    1  C   UNL     1      41.052 -14.594   3.021  1.00  0.00     0.190 A 
HETATM    2  N   UNL     1      39.613 -14.550   3.013  1.00  0.00    -0.308 N 
HETATM    3  C   UNL     1      39.089 -15.039   1.842  1.00  0.00     0.320 A 
HETATM    4  O   UNL     1      37.908 -15.035   1.545  1.00  0.00    -0.247 OA
HETATM    5  N   UNL     1      40.100 -15.538   1.056  1.00  0.00    -0.308 N 
HETATM    6  N   UNL     1      41.537 -13.260   2.777  1.00  0.00    -0.308 N 
HETATM    7  C   UNL     1      42.104 -13.132   1.533  1.00  0.00     0.320 A 
HETATM    8  O   UNL     1      42.552 -12.100   1.068  1.00  0.00    -0.247 OA
HETATM    9  N   UNL     1      42.095 -14.349   0.894  1.00  0.00    -0.308 N 
HETATM   10  C   UNL     1      41.397 -15.351   1.655  1.00  0.00     0.190 A 
HETATM   11  H   UNL     1      39.043 -14.047   3.674  1.00  0.00     0.167 HD
HETATM   12  H   UNL     1      39.930 -15.883   0.125  1.00  0.00     0.167 HD
HETATM   13  H   UNL     1      41.388 -12.464   3.379  1.00  0.00     0.167 HD
HETATM   14  H   UNL     1      42.371 -14.438  -0.071  1.00  0.00     0.167 HD
ENDROOT
BRANCH   1  15
HETATM   15  C   UNL     1      41.606 -15.181   4.312  1.00  0.00    -0.005 A 
HETATM   16  C   UNL     1      40.837 -16.057   5.099  1.00  0.00     0.012 A 
HETATM   17  C   UNL     1      41.362 -16.639   6.257  1.00  0.00     0.007 A 
HETATM   18  C   UNL     1      42.669 -16.359   6.664  1.00  0.00    -0.062 A 
HETATM   19  C   UNL     1      43.253 -17.009   7.881  1.00  0.00     0.048 C 
HETATM   20  C   UNL     1      43.448 -15.498   5.886  1.00  0.00     0.007 A 
HETATM   21  C   UNL     1      42.925 -14.918   4.727  1.00  0.00     0.012 A 
ENDBRANCH   1  15
BRANCH  10  22
HETATM   22  C   UNL     1      42.178 -16.655   1.749  1.00  0.00    -0.005 A 
HETATM   23  C   UNL     1      41.528 -17.881   1.982  1.00  0.00     0.012 A 
HETATM   24  C   UNL     1      42.250 -19.069   2.121  1.00  0.00     0.007 A 
HETATM   25  C   UNL     1      43.645 -19.067   2.034  1.00  0.00    -0.062 A 
HETATM   26  C   UNL     1      44.432 -20.331   2.205  1.00  0.00     0.048 C 
HETATM   27  C   UNL     1      44.305 -17.856   1.808  1.00  0.00     0.007 A 
HETATM   28  C   UNL     1      43.583 -16.668   1.669  1.00  0.00     0.012 A 
ENDBRANCH  10  22
TORSDOF 2
ENDMDL
MODEL 3
REMARK VINA RESULT:      -8.0      1.089      1.840
REMARK  2 active torsions:
REMARK  status: ('A' for Active; 'I' for Inactive)
REMARK    1  A    between atoms: C_5  and  C_6 
REMARK    2  A    between atoms: C_15  and  C_16 
ROOT
HETATM    1  C   UNL     1      41.352 -15.263   0.959  1.00  0.00     0.190 A 
HETATM    2  N   UNL     1      41.932 -14.606  -0.184  1.00  0.00    -0.308 N 
HETATM    3  C   UNL     1      42.086 -13.257   0.021  1.00  0.00     0.320 A 
HETATM    4  O   UNL     1      42.474 -12.460  -0.813  1.00  0.00    -0.247 OA
HETATM    5  N   UNL     1      41.743 -12.944   1.314  1.00  0.00    -0.308 N 
HETATM    6  N   UNL     1      39.965 -15.520   0.665  1.00  0.00    -0.308 N 
HETATM    7  C   UNL     1      39.122 -14.720   1.397  1.00  0.00     0.320 A 
HETATM    8  O   UNL     1      37.908 -14.712   1.307  1.00  0.00    -0.247 OA
HETATM    9  N   UNL     1      39.857 -13.936   2.253  1.00  0.00    -0.308 N 
HETATM   10  C   UNL     1      41.273 -14.093   2.046  1.00  0.00     0.190 A 
HETATM   11  H   UNL     1      42.033 -15.014  -1.099  1.00  0.00     0.167 HD
HETATM   12  H   UNL     1      41.725 -11.992   1.645  1.00  0.00     0.167 HD
HETATM   13  H   UNL     1      39.624 -16.122  -0.069  1.00  0.00     0.167 HD
HETATM   14  H   UNL     1      39.426 -13.206   2.798  1.00  0.00     0.167 HD
ENDROOT
BRANCH   1  15
HETATM   15  C   UNL     1      42.103 -16.531   1.341  1.00  0.00    -0.005 A 
HETATM   16  C   UNL     1      41.414 -17.689   1.743  1.00  0.00     0.012 A 
HETATM   17  C   UNL     1      42.099 -18.872   2.041  1.00  0.00     0.007 A 
HETATM   18  C   UNL     1      43.491 -18.928   1.951  1.00  0.00    -0.062 A 
HETATM   19  C   UNL     1      44.231 -20.202   2.231  1.00  0.00     0.048 C 
HETATM   20  C   UNL     1      44.189 -17.788   1.543  1.00  0.00     0.007 A 
HETATM   21  C   UNL     1      43.505 -16.607   1.241  1.00  0.00     0.012 A 
ENDBRANCH   1  15
BRANCH  10  22
HETATM   22  C   UNL     1      42.030 -14.291   3.352  1.00  0.00    -0.005 A 
HETATM   23  C   UNL     1      41.437 -14.942   4.449  1.00  0.00     0.012 A 
HETATM   24  C   UNL     1      42.114 -15.076   5.665  1.00  0.00     0.007 A 
HETATM   25  C   UNL     1      43.403 -14.559   5.820  1.00  0.00    -0.062 A 
HETATM   26  C   UNL     1      44.131 -14.676   7.126  1.00  0.00     0.048 C 
HETATM   27  C   UNL     1      44.003 -13.905   4.740  1.00  0.00     0.007 A 
HETATM   28  C   UNL     1      43.327 -13.772   3.525  1.00  0.00     0.012 A 
ENDBRANCH  10  22
TORSDOF 2
ENDMDL
MODEL 4
REMARK VINA RESULT:      -6.8      2.955      5.035
REMARK  2 active torsions:
REMARK  status: ('A' for Active; 'I' for Inactive)
REMARK    1  A    between atoms: C_5  and  C_6 
REMARK    2  A    between atoms: C_15  and  C_16 
ROOT
HETATM    1  C   UNL     1      42.924 -17.330   5.349  1.00  0.00     0.190 A 
HETATM    2  N   UNL     1      41.938 -17.818   6.278  1.00  0.00    -0.308 N 
HETATM    3  C   UNL     1      40.868 -16.965   6.388  1.00  0.00     0.320 A 
HETATM    4  O   UNL     1      39.940 -17.099   7.164  1.00  0.00    -0.247 OA
HETATM    5  N   UNL     1      41.000 -15.938   5.484  1.00  0.00    -0.308 N 
HETATM    6  N   UNL     1      44.018 -16.785   6.113  1.00  0.00    -0.308 N 
HETATM    7  C   UNL     1      44.076 -15.415   6.032  1.00  0.00     0.320 A 
HETATM    8  O   UNL     1      44.880 -14.711   6.615  1.00  0.00    -0.247 OA
HETATM    9  N   UNL     1      43.093 -14.961   5.187  1.00  0.00    -0.308 N 
HETATM   10  C   UNL     1      42.232 -16.024   4.740  1.00  0.00     0.190 A 
HETATM   11  H   UNL     1      42.075 -18.575   6.928  1.00  0.00     0.167 HD
HETATM   12  H   UNL     1      40.350 -15.169   5.452  1.00  0.00     0.167 HD
HETATM   13  H   UNL     1      44.615 -17.307   6.736  1.00  0.00     0.167 HD
HETATM   14  H   UNL     1      42.905 -13.976   5.080  1.00  0.00     0.167 HD
ENDROOT
BRANCH   1  15
HETATM   15  C   UNL     1      43.383 -18.405   4.374  1.00  0.00    -0.005 A 
HETATM   16  C   UNL     1      44.505 -19.207   4.654  1.00  0.00     0.012 A 
HETATM   17  C   UNL     1      44.896 -20.232   3.786  1.00  0.00     0.007 A 
HETATM   18  C   UNL     1      44.181 -20.481   2.612  1.00  0.00    -0.062 A 
HETATM   19  C   UNL     1      44.569 -21.602   1.697  1.00  0.00     0.048 C 
HETATM   20  C   UNL     1      43.059 -19.699   2.327  1.00  0.00     0.007 A 
HETATM   21  C   UNL     1      42.665 -18.677   3.195  1.00  0.00     0.012 A 
ENDBRANCH   1  15
BRANCH  10  22
HETATM   22  C   UNL     1      41.997 -15.987   3.236  1.00  0.00    -0.005 A 
HETATM   23  C   UNL     1      43.007 -15.572   2.349  1.00  0.00     0.012 A 
HETATM   24  C   UNL     1      42.774 -15.487   0.973  1.00  0.00     0.007 A 
HETATM   25  C   UNL     1      41.521 -15.811   0.445  1.00  0.00    -0.062 A 
HETATM   26  C   UNL     1      41.251 -15.702  -1.026  1.00  0.00     0.048 C 
HETATM   27  C   UNL     1      40.506 -16.219   1.315  1.00  0.00     0.007 A 
HETATM   28  C   UNL     1      40.739 -16.305   2.690  1.00  0.00     0.012 A 
ENDBRANCH  10  22
TORSDOF 2
ENDMDL
MODEL 5
REMARK VINA RESULT:      -6.8      2.951      4.961
REMARK  2 active torsions:
REMARK  status: ('A' for Active; 'I' for Inactive)
REMARK    1  A    between atoms: C_5  and  C_6 
REMARK    2  A    between atoms: C_15  and  C_16 
ROOT
HETATM    1  C   UNL     1      42.220 -16.011   4.735  1.00  0.00     0.190 A 
HETATM    2  N   UNL     1      43.076 -14.937   5.169  1.00  0.00    -0.308 N 
HETATM    3  C   UNL     1      44.065 -15.376   6.015  1.00  0.00     0.320 A 
HETATM    4  O   UNL     1      44.867 -14.662   6.588  1.00  0.00    -0.247 OA
HETATM    5  N   UNL     1      44.016 -16.746   6.111  1.00  0.00    -0.308 N 
HETATM    6  N   UNL     1      40.991 -15.925   5.483  1.00  0.00    -0.308 N 
HETATM    7  C   UNL     1      40.868 -16.942   6.397  1.00  0.00     0.320 A 
HETATM    8  O   UNL     1      39.944 -17.075   7.179  1.00  0.00    -0.247 OA
HETATM    9  N   UNL     1      41.943 -17.791   6.292  1.00  0.00    -0.308 N 
HETATM   10  C   UNL     1      42.923 -17.306   5.356  1.00  0.00     0.190 A 
HETATM   11  H   UNL     1      42.883 -13.955   5.052  1.00  0.00     0.167 HD
HETATM   12  H   UNL     1      44.618 -17.258   6.736  1.00  0.00     0.167 HD
HETATM   13  H   UNL     1      40.336 -15.160   5.446  1.00  0.00     0.167 HD
HETATM   14  H   UNL     1      42.088 -18.540   6.951  1.00  0.00     0.167 HD
ENDROOT
BRANCH   1  15
HETATM   15  C   UNL     1      41.982 -15.989   3.232  1.00  0.00    -0.005 A 
HETATM   16  C   UNL     1      40.728 -16.327   2.691  1.00  0.00     0.012 A 
HETATM   17  C   UNL     1      40.491 -16.256   1.315  1.00  0.00     0.007 A 
HETATM   18  C   UNL     1      41.501 -15.850   0.440  1.00  0.00    -0.062 A 
HETATM   19  C   UNL     1      41.244 -15.733  -1.033  1.00  0.00     0.048 C 
HETATM   20  C   UNL     1      42.749 -15.501   0.963  1.00  0.00     0.007 A 
HETATM   21  C   UNL     1      42.986 -15.569   2.339  1.00  0.00     0.012 A 
ENDBRANCH   1  15
BRANCH  10  22
HETATM   22  C   UNL     1      43.387 -18.387   4.391  1.00  0.00    -0.005 A 
HETATM   23  C   UNL     1      42.676 -18.667   3.209  1.00  0.00     0.012 A 
HETATM   24  C   UNL     1      43.073 -19.695   2.350  1.00  0.00     0.007 A 
HETATM   25  C   UNL     1      44.192 -20.478   2.649  1.00  0.00    -0.062 A 
HETATM   26  C   UNL     1      44.614 -21.599   1.748  1.00  0.00     0.048 C 
HETATM   27  C   UNL     1      44.905 -20.215   3.822  1.00  0.00     0.007 A 
HETATM   28  C   UNL     1      44.509 -19.187   4.681  1.00  0.00     0.012 A 
ENDBRANCH  10  22
TORSDOF 2
ENDMDL
MODEL 6
REMARK VINA RESULT:      -6.7      2.563      5.210
REMARK  2 active torsions:
REMARK  status: ('A' for Active; 'I' for Inactive)
REMARK    1  A    between atoms: C_5  and  C_6 
REMARK    2  A    between atoms: C_15  and  C_16 
ROOT
HETATM    1  C   UNL     1      40.580 -13.118   0.304  1.00  0.00     0.190 A 
HETATM    2  N   UNL     1      39.227 -12.958  -0.163  1.00  0.00    -0.308 N 
HETATM    3  C   UNL     1      38.826 -14.011  -0.948  1.00  0.00     0.320 A 
HETATM    4  O   UNL     1      37.762 -14.084  -1.536  1.00  0.00    -0.247 OA
HETATM    5  N   UNL     1      39.806 -14.974  -0.966  1.00  0.00    -0.308 N 
HETATM    6  N   UNL     1      41.424 -12.259  -0.487  1.00  0.00    -0.308 N 
HETATM    7  C   UNL     1      42.228 -12.969  -1.345  1.00  0.00     0.320 A 
HETATM    8  O   UNL     1      43.003 -12.480  -2.147  1.00  0.00    -0.247 OA
HETATM    9  N   UNL     1      42.031 -14.315  -1.155  1.00  0.00    -0.308 N 
HETATM   10  C   UNL     1      40.972 -14.578  -0.217  1.00  0.00     0.190 A 
HETATM   11  H   UNL     1      38.689 -12.108  -0.109  1.00  0.00     0.167 HD
HETATM   12  H   UNL     1      39.732 -15.799  -1.540  1.00  0.00     0.167 HD
HETATM   13  H   UNL     1      41.371 -11.253  -0.516  1.00  0.00     0.167 HD
HETATM   14  H   UNL     1      42.452 -14.999  -1.764  1.00  0.00     0.167 HD
ENDROOT
BRANCH   1  15
HETATM   15  C   UNL     1      40.713 -12.841   1.795  1.00  0.00    -0.005 A 
HETATM   16  C   UNL     1      39.577 -12.726   2.617  1.00  0.00     0.012 A 
HETATM   17  C   UNL     1      39.698 -12.526   3.995  1.00  0.00     0.007 A 
HETATM   18  C   UNL     1      40.958 -12.430   4.592  1.00  0.00    -0.062 A 
HETATM   19  C   UNL     1      41.097 -12.255   6.074  1.00  0.00     0.048 C 
HETATM   20  C   UNL     1      42.096 -12.553   3.790  1.00  0.00     0.007 A 
HETATM   21  C   UNL     1      41.975 -12.756   2.412  1.00  0.00     0.012 A 
ENDBRANCH   1  15
BRANCH  10  22
HETATM   22  C   UNL     1      41.364 -15.617   0.824  1.00  0.00    -0.005 A 
HETATM   23  C   UNL     1      40.413 -16.163   1.706  1.00  0.00     0.012 A 
HETATM   24  C   UNL     1      40.784 -17.077   2.696  1.00  0.00     0.007 A 
HETATM   25  C   UNL     1      42.118 -17.469   2.837  1.00  0.00    -0.062 A 
HETATM   26  C   UNL     1      42.531 -18.431   3.910  1.00  0.00     0.048 C 
HETATM   27  C   UNL     1      43.074 -16.931   1.972  1.00  0.00     0.007 A 
HETATM   28  C   UNL     1      42.704 -16.018   0.982  1.00  0.00     0.012 A 
ENDBRANCH  10  22
TORSDOF 2
ENDMDL
MODEL 7
REMARK VINA RESULT:      -6.7      2.559      3.193
REMARK  2 active torsions:
REMARK  status: ('A' for Active; 'I' for Inactive)
REMARK    1  A    between atoms: C_5  and  C_6 
REMARK    2  A    between atoms: C_15  and  C_16 
ROOT
HETATM    1  C   UNL     1      40.965 -14.564  -0.205  1.00  0.00     0.190 A 
HETATM    2  N   UNL     1      42.028 -14.297  -1.139  1.00  0.00    -0.308 N 
HETATM    3  C   UNL     1      42.223 -12.951  -1.326  1.00  0.00     0.320 A 
HETATM    4  O   UNL     1      43.000 -12.458  -2.123  1.00  0.00    -0.247 OA
HETATM    5  N   UNL     1      41.412 -12.243  -0.472  1.00  0.00    -0.308 N 
HETATM    6  N   UNL     1      39.804 -14.962  -0.960  1.00  0.00    -0.308 N 
HETATM    7  C   UNL     1      38.822 -14.002  -0.947  1.00  0.00     0.320 A 
HETATM    8  O   UNL     1      37.761 -14.076  -1.539  1.00  0.00    -0.247 OA
HETATM    9  N   UNL     1      39.216 -12.949  -0.158  1.00  0.00    -0.308 N 
HETATM   10  C   UNL     1      40.566 -13.105   0.315  1.00  0.00     0.190 A 
HETATM   11  H   UNL     1      42.455 -14.979  -1.745  1.00  0.00     0.167 HD
HETATM   12  H   UNL     1      41.358 -11.237  -0.500  1.00  0.00     0.167 HD
HETATM   13  H   UNL     1      39.735 -15.787  -1.536  1.00  0.00     0.167 HD
HETATM   14  H   UNL     1      38.676 -12.099  -0.107  1.00  0.00     0.167 HD
ENDROOT
BRANCH   1  15
HETATM   15  C   UNL     1      41.357 -15.601   0.837  1.00  0.00    -0.005 A 
HETATM   16  C   UNL     1      42.698 -15.993   1.003  1.00  0.00     0.012 A 
HETATM   17  C   UNL     1      43.068 -16.905   1.996  1.00  0.00     0.007 A 
HETATM   18  C   UNL     1      42.109 -17.457   2.848  1.00  0.00    -0.062 A 
HETATM   19  C   UNL     1      42.502 -18.405   3.941  1.00  0.00     0.048 C 
HETATM   20  C   UNL     1      40.774 -17.070   2.702  1.00  0.00     0.007 A 
HETATM   21  C   UNL     1      40.404 -16.155   1.712  1.00  0.00     0.012 A 
ENDBRANCH   1  15
BRANCH  10  22
HETATM   22  C   UNL     1      40.694 -12.828   1.806  1.00  0.00    -0.005 A 
HETATM   23  C   UNL     1      41.954 -12.720   2.424  1.00  0.00     0.012 A 
HETATM   24  C   UNL     1      42.071 -12.518   3.802  1.00  0.00     0.007 A 
HETATM   25  C   UNL     1      40.931 -12.423   4.605  1.00  0.00    -0.062 A 
HETATM   26  C   UNL     1      41.043 -12.230   6.087  1.00  0.00     0.048 C 
HETATM   27  C   UNL     1      39.672 -12.534   4.005  1.00  0.00     0.007 A 
HETATM   28  C   UNL     1      39.556 -12.734   2.628  1.00  0.00     0.012 A 
ENDBRANCH  10  22
TORSDOF 2
ENDMDL
MODEL 8
REMARK VINA RESULT:      -6.7      4.440      7.477
REMARK  2 active torsions:
REMARK  status: ('A' for Active; 'I' for Inactive)
REMARK    1  A    between atoms: C_5  and  C_6 
REMARK    2  A    between atoms: C_15  and  C_16 
ROOT
HETATM    1  C   UNL     1      41.242 -14.028  -1.797  1.00  0.00     0.190 A 
HETATM    2  N   UNL     1      41.203 -14.662  -3.089  1.00  0.00    -0.308 N 
HETATM    3  C   UNL     1      39.970 -15.206  -3.358  1.00  0.00     0.320 A 
HETATM    4  O   UNL     1      39.695 -15.869  -4.341  1.00  0.00    -0.247 OA
HETATM    5  N   UNL     1      39.093 -14.884  -2.351  1.00  0.00    -0.308 N 
HETATM    6  N   UNL     1      41.937 -14.909  -0.893  1.00  0.00    -0.308 N 
HETATM    7  C   UNL     1      41.094 -15.476   0.031  1.00  0.00     0.320 A 
HETATM    8  O   UNL     1      41.424 -16.285   0.878  1.00  0.00    -0.247 OA
HETATM    9  N   UNL     1      39.822 -14.986  -0.143  1.00  0.00    -0.308 N 
HETATM   10  C   UNL     1      39.726 -14.132  -1.297  1.00  0.00     0.190 A 
HETATM   11  H   UNL     1      42.006 -14.876  -3.657  1.00  0.00     0.167 HD
HETATM   12  H   UNL     1      38.152 -15.244  -2.329  1.00  0.00     0.167 HD
HETATM   13  H   UNL     1      42.903 -15.188  -0.975  1.00  0.00     0.167 HD
HETATM   14  H   UNL     1      39.040 -15.361   0.370  1.00  0.00     0.167 HD
ENDROOT
BRANCH   1  15
HETATM   15  C   UNL     1      41.873 -12.644  -1.851  1.00  0.00    -0.005 A 
HETATM   16  C   UNL     1      41.922 -11.915  -3.053  1.00  0.00     0.012 A 
HETATM   17  C   UNL     1      42.452 -10.622  -3.094  1.00  0.00     0.007 A 
HETATM   18  C   UNL     1      42.955 -10.022  -1.937  1.00  0.00    -0.062 A 
HETATM   19  C   UNL     1      43.489  -8.622  -1.963  1.00  0.00     0.048 C 
HETATM   20  C   UNL     1      42.904 -10.731  -0.733  1.00  0.00     0.007 A 
HETATM   21  C   UNL     1      42.371 -12.022  -0.691  1.00  0.00     0.012 A 
ENDBRANCH   1  15
BRANCH  10  22
HETATM   22  C   UNL     1      38.992 -12.833  -0.997  1.00  0.00    -0.005 A 
HETATM   23  C   UNL     1      38.904 -12.329   0.313  1.00  0.00     0.012 A 
HETATM   24  C   UNL     1      38.184 -11.165   0.596  1.00  0.00     0.007 A 
HETATM   25  C   UNL     1      37.527 -10.471  -0.425  1.00  0.00    -0.062 A 
HETATM   26  C   UNL     1      36.733  -9.234  -0.131  1.00  0.00     0.048 C 
HETATM   27  C   UNL     1      37.601 -10.963  -1.731  1.00  0.00     0.007 A 
HETATM   28  C   UNL     1      38.321 -12.127  -2.013  1.00  0.00     0.012 A 
ENDBRANCH  10  22
TORSDOF 2
ENDMDL
MODEL 9
REMARK VINA RESULT:      -6.7      4.415      7.692
REMARK  2 active torsions:
REMARK  status: ('A' for Active; 'I' for Inactive)
REMARK    1  A    between atoms: C_5  and  C_6 
REMARK    2  A    between atoms: C_15  and  C_16 
ROOT
HETATM    1  C   UNL     1      39.721 -14.166  -1.237  1.00  0.00     0.190 A 
HETATM    2  N   UNL     1      39.835 -15.059  -0.113  1.00  0.00    -0.308 N 
HETATM    3  C   UNL     1      41.120 -15.516   0.052  1.00  0.00     0.320 A 
HETATM    4  O   UNL     1      41.470 -16.345   0.872  1.00  0.00    -0.247 OA
HETATM    5  N   UNL     1      41.952 -14.891  -0.845  1.00  0.00    -0.308 N 
HETATM    6  N   UNL     1      39.117 -14.896  -2.322  1.00  0.00    -0.308 N 
HETATM    7  C   UNL     1      40.010 -15.156  -3.333  1.00  0.00     0.320 A 
HETATM    8  O   UNL     1      39.762 -15.791  -4.342  1.00  0.00    -0.247 OA
HETATM    9  N   UNL     1      41.223 -14.585  -3.035  1.00  0.00    -0.308 N 
HETATM   10  C   UNL     1      41.235 -13.998  -1.721  1.00  0.00     0.190 A 
HETATM   11  H   UNL     1      39.062 -15.475   0.381  1.00  0.00     0.167 HD
HETATM   12  H   UNL     1      42.925 -15.137  -0.930  1.00  0.00     0.167 HD
HETATM   13  H   UNL     1      38.187 -15.287  -2.320  1.00  0.00     0.167 HD
HETATM   14  H   UNL     1      42.038 -14.755  -3.604  1.00  0.00     0.167 HD
ENDROOT
BRANCH   1  15
HETATM   15  C   UNL     1      38.946 -12.901  -0.894  1.00  0.00    -0.005 A 
HETATM   16  C   UNL     1      38.315 -12.142  -1.896  1.00  0.00     0.012 A 
HETATM   17  C   UNL     1      37.558 -11.010  -1.578  1.00  0.00     0.007 A 
HETATM   18  C   UNL     1      37.413 -10.603  -0.250  1.00  0.00    -0.062 A 
HETATM   19  C   UNL     1      36.570  -9.415   0.104  1.00  0.00     0.048 C 
HETATM   20  C   UNL     1      38.025 -11.353   0.758  1.00  0.00     0.007 A 
HETATM   21  C   UNL     1      38.780 -12.486   0.441  1.00  0.00     0.012 A 
ENDBRANCH   1  15
BRANCH  10  22
HETATM   22  C   UNL     1      41.826 -12.595  -1.718  1.00  0.00    -0.005 A 
HETATM   23  C   UNL     1      41.980 -11.865  -2.911  1.00  0.00     0.012 A 
HETATM   24  C   UNL     1      42.571 -10.598  -2.915  1.00  0.00     0.007 A 
HETATM   25  C   UNL     1      43.029 -10.026  -1.725  1.00  0.00    -0.062 A 
HETATM   26  C   UNL     1      43.685  -8.678  -1.719  1.00  0.00     0.048 C 
HETATM   27  C   UNL     1      42.887 -10.742  -0.533  1.00  0.00     0.007 A 
HETATM   28  C   UNL     1      42.296 -12.008  -0.529  1.00  0.00     0.012 A 
ENDBRANCH  10  22
TORSDOF 2
ENDMDL
MODEL 10
REMARK VINA RESULT:      -6.6      2.918      6.522
REMARK  2 active torsions:
REMARK  status: ('A' for Active; 'I' for Inactive)
REMARK    1  A    between atoms: C_5  and  C_6 
REMARK    2  A    between atoms: C_15  and  C_16 
ROOT
HETATM    1  C   UNL     1      40.470 -14.208   2.678  1.00  0.00     0.190 A 
HETATM    2  N   UNL     1      40.971 -13.498   3.827  1.00  0.00    -0.308 N 
HETATM    3  C   UNL     1      42.334 -13.336   3.777  1.00  0.00     0.320 A 
HETATM    4  O   UNL     1      43.016 -12.847   4.659  1.00  0.00    -0.247 OA
HETATM    5  N   UNL     1      42.812 -13.805   2.577  1.00  0.00    -0.308 N 
HETATM    6  N   UNL     1      40.189 -15.562   3.083  1.00  0.00    -0.308 N 
HETATM    7  C   UNL     1      41.083 -16.458   2.550  1.00  0.00     0.320 A 
HETATM    8  O   UNL     1      41.090 -17.656   2.769  1.00  0.00    -0.247 OA
HETATM    9  N   UNL     1      41.963 -15.799   1.727  1.00  0.00    -0.308 N 
HETATM   10  C   UNL     1      41.769 -14.374   1.761  1.00  0.00     0.190 A 
HETATM   11  H   UNL     1      40.450 -13.311   4.668  1.00  0.00     0.167 HD
HETATM   12  H   UNL     1      43.798 -13.837   2.372  1.00  0.00     0.167 HD
HETATM   13  H   UNL     1      39.502 -15.838   3.768  1.00  0.00     0.167 HD
HETATM   14  H   UNL     1      42.759 -16.269   1.325  1.00  0.00     0.167 HD
ENDROOT
BRANCH   1  15
HETATM   15  C   UNL     1      39.254 -13.528   2.064  1.00  0.00    -0.005 A 
HETATM   16  C   UNL     1      39.019 -12.154   2.252  1.00  0.00     0.012 A 
HETATM   17  C   UNL     1      37.933 -11.516   1.644  1.00  0.00     0.007 A 
HETATM   18  C   UNL     1      37.049 -12.233   0.836  1.00  0.00    -0.062 A 
HETATM   19  C   UNL     1      35.905 -11.550   0.149  1.00  0.00     0.048 C 
HETATM   20  C   UNL     1      37.275 -13.597   0.631  1.00  0.00     0.007 A 
HETATM   21  C   UNL     1      38.362 -14.235   1.236  1.00  0.00     0.012 A 
ENDBRANCH   1  15
BRANCH  10  22
HETATM   22  C   UNL     1      41.732 -13.760   0.368  1.00  0.00    -0.005 A 
HETATM   23  C   UNL     1      41.399 -14.531  -0.761  1.00  0.00     0.012 A 
HETATM   24  C   UNL     1      41.417 -13.980  -2.045  1.00  0.00     0.007 A 
HETATM   25  C   UNL     1      41.773 -12.642  -2.239  1.00  0.00    -0.062 A 
HETATM   26  C   UNL     1      41.818 -12.046  -3.614  1.00  0.00     0.048 C 
HETATM   27  C   UNL     1      42.111 -11.866  -1.127  1.00  0.00     0.007 A 
HETATM   28  C   UNL     1      42.092 -12.416   0.157  1.00  0.00     0.012 A 
ENDBRANCH  10  22
TORSDOF 2
ENDMDL
