MODEL 1
REMARK VINA RESULT:      -8.4      0.000      0.000
REMARK  3 active torsions:
REMARK  status: ('A' for Active; 'I' for Inactive)
REMARK    1  A    between atoms: C_5  and  N_6 
REMARK    2  A    between atoms: C_10  and  C_11 
REMARK    3  A    between atoms: C_21  and  O_22 
ROOT
HETATM    1  N   UNL     1      41.734 -13.557   5.671  1.00  0.00    -0.231 N 
HETATM    2  N   UNL     1      40.765 -14.343   6.278  1.00  0.00    -0.257 N 
HETATM    3  C   UNL     1      40.902 -15.630   5.789  1.00  0.00     0.275 C 
HETATM    4  O   UNL     1      40.395 -16.644   6.236  1.00  0.00    -0.266 OA
HETATM    5  C   UNL     1      41.844 -15.570   4.632  1.00  0.00     0.087 C 
HETATM    6  C   UNL     1      42.310 -14.307   4.663  1.00  0.00     0.178 C 
HETATM    7  H   UNL     1      40.467 -14.181   7.228  1.00  0.00     0.191 HD
ENDROOT
BRANCH   5   8
HETATM    8  C   UNL     1      42.224 -16.696   3.827  1.00  0.00     0.035 C 
HETATM    9  C   UNL     1      43.114 -17.638   4.161  1.00  0.00    -0.005 A 
HETATM   10  C   UNL     1      43.466 -18.845   3.426  1.00  0.00     0.004 A 
HETATM   11  C   UNL     1      43.966 -17.705   5.380  1.00  0.00     0.129 A 
HETATM   12  C   UNL     1      44.411 -19.486   4.245  1.00  0.00     0.067 A 
HETATM   13  C   UNL     1      43.042 -19.399   2.231  1.00  0.00     0.014 A 
HETATM   14  C   UNL     1      44.954 -20.703   3.875  1.00  0.00     0.032 A 
HETATM   15  N   UNL     1      44.706 -18.775   5.433  1.00  0.00    -0.259 NA
HETATM   16  C   UNL     1      44.536 -21.277   2.671  1.00  0.00     0.002 A 
HETATM   17  C   UNL     1      43.589 -20.631   1.857  1.00  0.00     0.001 A 
ENDBRANCH   5   8
BRANCH   6  18
HETATM   18  O   UNL     1      43.305 -13.806   3.865  1.00  0.00    -0.344 OA
HETATM   19  H   UNL     1      43.286 -12.836   3.913  1.00  0.00     0.219 HD
ENDBRANCH   6  18
BRANCH   1  20
HETATM   20  C   UNL     1      41.614 -12.151   5.805  1.00  0.00     0.059 A 
HETATM   21  C   UNL     1      41.784 -11.526   7.053  1.00  0.00     0.032 A 
HETATM   22  C   UNL     1      41.718 -10.133   7.192  1.00  0.00     0.009 A 
HETATM   23  C   UNL     1      41.469  -9.321   6.085  1.00  0.00    -0.062 A 
HETATM   24  C   UNL     1      41.438  -7.828   6.209  1.00  0.00     0.048 C 
HETATM   25  C   UNL     1      41.293  -9.924   4.838  1.00  0.00     0.009 A 
HETATM   26  C   UNL     1      41.365 -11.317   4.704  1.00  0.00     0.032 A 
ENDBRANCH   1  20
TORSDOF 3
ENDMDL
MODEL 2
REMARK VINA RESULT:      -8.2      4.919      8.153
REMARK  3 active torsions:
REMARK  status: ('A' for Active; 'I' for Inactive)
REMARK    1  A    between atoms: C_5  and  N_6 
REMARK    2  A    between atoms: C_10  and  C_11 
REMARK    3  A    between atoms: C_21  and  O_22 
ROOT
HETATM    1  N   UNL     1      41.601 -17.125   2.224  1.00  0.00    -0.231 N 
HETATM    2  N   UNL     1      40.424 -16.478   2.573  1.00  0.00    -0.257 N 
HETATM    3  C   UNL     1      40.096 -15.618   1.540  1.00  0.00     0.275 C 
HETATM    4  O   UNL     1      39.032 -15.049   1.368  1.00  0.00    -0.266 OA
HETATM    5  C   UNL     1      41.272 -15.552   0.623  1.00  0.00     0.087 C 
HETATM    6  C   UNL     1      42.099 -16.505   1.093  1.00  0.00     0.178 C 
HETATM    7  H   UNL     1      39.704 -16.937   3.111  1.00  0.00     0.191 HD
ENDROOT
BRANCH   5   8
HETATM    8  C   UNL     1      41.345 -14.738  -0.557  1.00  0.00     0.035 C 
HETATM    9  C   UNL     1      41.759 -13.467  -0.613  1.00  0.00    -0.005 A 
HETATM   10  C   UNL     1      41.939 -12.629  -1.790  1.00  0.00     0.004 A 
HETATM   11  C   UNL     1      42.158 -12.582   0.516  1.00  0.00     0.129 A 
HETATM   12  C   UNL     1      42.427 -11.414  -1.280  1.00  0.00     0.067 A 
HETATM   13  C   UNL     1      41.765 -12.832  -3.148  1.00  0.00     0.014 A 
HETATM   14  C   UNL     1      42.749 -10.372  -2.129  1.00  0.00     0.032 A 
HETATM   15  N   UNL     1      42.553 -11.402   0.130  1.00  0.00    -0.259 NA
HETATM   16  C   UNL     1      42.581 -10.560  -3.503  1.00  0.00     0.002 A 
HETATM   17  C   UNL     1      42.093 -11.779  -4.008  1.00  0.00     0.001 A 
ENDBRANCH   5   8
BRANCH   6  18
HETATM   18  O   UNL     1      43.266 -16.910   0.499  1.00  0.00    -0.344 OA
HETATM   19  H   UNL     1      43.973 -16.905   1.165  1.00  0.00     0.219 HD
ENDBRANCH   6  18
BRANCH   1  20
HETATM   20  C   UNL     1      42.277 -17.846   3.239  1.00  0.00     0.059 A 
HETATM   21  C   UNL     1      41.943 -17.674   4.594  1.00  0.00     0.032 A 
HETATM   22  C   UNL     1      42.567 -18.416   5.606  1.00  0.00     0.009 A 
HETATM   23  C   UNL     1      43.556 -19.350   5.291  1.00  0.00    -0.062 A 
HETATM   24  C   UNL     1      44.203 -20.183   6.356  1.00  0.00     0.048 C 
HETATM   25  C   UNL     1      43.904 -19.532   3.951  1.00  0.00     0.009 A 
HETATM   26  C   UNL     1      43.272 -18.791   2.945  1.00  0.00     0.032 A 
ENDBRANCH   1  20
TORSDOF 3
ENDMDL
MODEL 3
REMARK VINA RESULT:      -8.2      4.511      5.890
REMARK  3 active torsions:
REMARK  status: ('A' for Active; 'I' for Inactive)
REMARK    1  A    between atoms: C_5  and  N_6 
REMARK    2  A    between atoms: C_10  and  C_11 
REMARK    3  A    between atoms: C_21  and  O_22 
ROOT
HETATM    1  N   UNL     1      41.228 -14.966   0.399  1.00  0.00    -0.231 N 
HETATM    2  N   UNL     1      41.973 -13.994   1.052  1.00  0.00    -0.257 N 
HETATM    3  C   UNL     1      42.566 -14.589   2.152  1.00  0.00     0.275 C 
HETATM    4  O   UNL     1      43.464 -14.134   2.839  1.00  0.00    -0.266 OA
HETATM    5  C   UNL     1      41.946 -15.938   2.319  1.00  0.00     0.087 C 
HETATM    6  C   UNL     1      41.192 -16.082   1.213  1.00  0.00     0.178 C 
HETATM    7  H   UNL     1      42.442 -13.256   0.550  1.00  0.00     0.191 HD
ENDROOT
BRANCH   5   8
HETATM    8  C   UNL     1      42.266 -16.861   3.370  1.00  0.00     0.035 C 
HETATM    9  C   UNL     1      42.986 -17.980   3.242  1.00  0.00    -0.005 A 
HETATM   10  C   UNL     1      43.417 -18.899   4.287  1.00  0.00     0.004 A 
HETATM   11  C   UNL     1      43.551 -18.571   1.997  1.00  0.00     0.129 A 
HETATM   12  C   UNL     1      44.173 -19.869   3.607  1.00  0.00     0.067 A 
HETATM   13  C   UNL     1      43.251 -18.936   5.661  1.00  0.00     0.014 A 
HETATM   14  C   UNL     1      44.779 -20.902   4.298  1.00  0.00     0.032 A 
HETATM   15  N   UNL     1      44.243 -19.655   2.210  1.00  0.00    -0.259 NA
HETATM   16  C   UNL     1      44.622 -20.953   5.685  1.00  0.00     0.002 A 
HETATM   17  C   UNL     1      43.865 -19.979   6.360  1.00  0.00     0.001 A 
ENDBRANCH   5   8
BRANCH   6  18
HETATM   18  O   UNL     1      40.521 -17.221   0.850  1.00  0.00    -0.344 OA
HETATM   19  H   UNL     1      40.489 -17.822   1.614  1.00  0.00     0.219 HD
ENDBRANCH   6  18
BRANCH   1  20
HETATM   20  C   UNL     1      40.314 -14.532  -0.593  1.00  0.00     0.059 A 
HETATM   21  C   UNL     1      40.556 -14.776  -1.956  1.00  0.00     0.032 A 
HETATM   22  C   UNL     1      39.637 -14.397  -2.945  1.00  0.00     0.009 A 
HETATM   23  C   UNL     1      38.450 -13.750  -2.599  1.00  0.00    -0.062 A 
HETATM   24  C   UNL     1      37.438 -13.377  -3.639  1.00  0.00     0.048 C 
HETATM   25  C   UNL     1      38.195 -13.495  -1.250  1.00  0.00     0.009 A 
HETATM   26  C   UNL     1      39.114 -13.881  -0.266  1.00  0.00     0.032 A 
ENDBRANCH   1  20
TORSDOF 3
ENDMDL
MODEL 4
REMARK VINA RESULT:      -8.2      4.022      8.658
REMARK  3 active torsions:
REMARK  status: ('A' for Active; 'I' for Inactive)
REMARK    1  A    between atoms: C_5  and  N_6 
REMARK    2  A    between atoms: C_10  and  C_11 
REMARK    3  A    between atoms: C_21  and  O_22 
ROOT
HETATM    1  N   UNL     1      42.705 -16.756   3.080  1.00  0.00    -0.231 N 
HETATM    2  N   UNL     1      43.610 -15.719   2.904  1.00  0.00    -0.257 N 
HETATM    3  C   UNL     1      42.884 -14.554   2.724  1.00  0.00     0.275 C 
HETATM    4  O   UNL     1      43.307 -13.412   2.764  1.00  0.00    -0.266 OA
HETATM    5  C   UNL     1      41.456 -14.944   2.529  1.00  0.00     0.087 C 
HETATM    6  C   UNL     1      41.446 -16.264   2.792  1.00  0.00     0.178 C 
HETATM    7  H   UNL     1      44.501 -15.704   3.378  1.00  0.00     0.191 HD
ENDROOT
BRANCH   5   8
HETATM    8  C   UNL     1      40.384 -14.024   2.277  1.00  0.00     0.035 C 
HETATM    9  C   UNL     1      39.834 -13.764   1.085  1.00  0.00    -0.005 A 
HETATM   10  C   UNL     1      38.690 -12.913   0.788  1.00  0.00     0.004 A 
HETATM   11  C   UNL     1      40.240 -14.290  -0.247  1.00  0.00     0.129 A 
HETATM   12  C   UNL     1      38.519 -13.034  -0.602  1.00  0.00     0.067 A 
HETATM   13  C   UNL     1      37.839 -12.144   1.562  1.00  0.00     0.014 A 
HETATM   14  C   UNL     1      37.487 -12.378  -1.245  1.00  0.00     0.032 A 
HETATM   15  N   UNL     1      39.476 -13.876  -1.219  1.00  0.00    -0.259 NA
HETATM   16  C   UNL     1      36.618 -11.597  -0.478  1.00  0.00     0.002 A 
HETATM   17  C   UNL     1      36.793 -11.482   0.913  1.00  0.00     0.001 A 
ENDBRANCH   5   8
BRANCH   6  18
HETATM   18  O   UNL     1      40.326 -17.052   2.866  1.00  0.00    -0.344 OA
HETATM   19  H   UNL     1      39.991 -17.035   3.778  1.00  0.00     0.219 HD
ENDBRANCH   6  18
BRANCH   1  20
HETATM   20  C   UNL     1      43.205 -18.079   3.007  1.00  0.00     0.059 A 
HETATM   21  C   UNL     1      43.955 -18.629   4.062  1.00  0.00     0.032 A 
HETATM   22  C   UNL     1      44.414 -19.953   4.026  1.00  0.00     0.009 A 
HETATM   23  C   UNL     1      44.143 -20.767   2.925  1.00  0.00    -0.062 A 
HETATM   24  C   UNL     1      44.589 -22.198   2.889  1.00  0.00     0.048 C 
HETATM   25  C   UNL     1      43.403 -20.237   1.866  1.00  0.00     0.009 A 
HETATM   26  C   UNL     1      42.943 -18.915   1.910  1.00  0.00     0.032 A 
ENDBRANCH   1  20
TORSDOF 3
ENDMDL
MODEL 5
REMARK VINA RESULT:      -8.2      3.482      4.580
REMARK  3 active torsions:
REMARK  status: ('A' for Active; 'I' for Inactive)
REMARK    1  A    between atoms: C_5  and  N_6 
REMARK    2  A    between atoms: C_10  and  C_11 
REMARK    3  A    between atoms: C_21  and  O_22 
ROOT
HETATM    1  N   UNL     1      40.472 -14.065   1.935  1.00  0.00    -0.231 N 
HETATM    2  N   UNL     1      41.614 -13.325   2.211  1.00  0.00    -0.257 N 
HETATM    3  C   UNL     1      42.515 -14.164   2.843  1.00  0.00     0.275 C 
HETATM    4  O   UNL     1      43.699 -13.956   3.038  1.00  0.00    -0.266 OA
HETATM    5  C   UNL     1      41.785 -15.418   3.196  1.00  0.00     0.087 C 
HETATM    6  C   UNL     1      40.593 -15.278   2.587  1.00  0.00     0.178 C 
HETATM    7  H   UNL     1      41.934 -12.592   1.596  1.00  0.00     0.191 HD
ENDROOT
BRANCH   5   8
HETATM    8  C   UNL     1      42.362 -16.530   3.896  1.00  0.00     0.035 C 
HETATM    9  C   UNL     1      42.868 -17.635   3.337  1.00  0.00    -0.005 A 
HETATM   10  C   UNL     1      43.546 -18.746   3.990  1.00  0.00     0.004 A 
HETATM   11  C   UNL     1      42.883 -18.009   1.895  1.00  0.00     0.129 A 
HETATM   12  C   UNL     1      43.902 -19.604   2.935  1.00  0.00     0.067 A 
HETATM   13  C   UNL     1      43.880 -19.028   5.303  1.00  0.00     0.014 A 
HETATM   14  C   UNL     1      44.604 -20.770   3.181  1.00  0.00     0.032 A 
HETATM   15  N   UNL     1      43.488 -19.140   1.664  1.00  0.00    -0.259 NA
HETATM   16  C   UNL     1      44.951 -21.068   4.502  1.00  0.00     0.002 A 
HETATM   17  C   UNL     1      44.592 -20.205   5.553  1.00  0.00     0.001 A 
ENDBRANCH   5   8
BRANCH   6  18
HETATM   18  O   UNL     1      39.617 -16.237   2.518  1.00  0.00    -0.344 OA
HETATM   19  H   UNL     1      40.039 -17.112   2.488  1.00  0.00     0.219 HD
ENDBRANCH   6  18
BRANCH   1  20
HETATM   20  C   UNL     1      39.312 -13.354   1.542  1.00  0.00     0.059 A 
HETATM   21  C   UNL     1      38.492 -13.825   0.501  1.00  0.00     0.032 A 
HETATM   22  C   UNL     1      37.314 -13.160   0.134  1.00  0.00     0.009 A 
HETATM   23  C   UNL     1      36.925 -11.993   0.793  1.00  0.00    -0.062 A 
HETATM   24  C   UNL     1      35.646 -11.293   0.442  1.00  0.00     0.048 C 
HETATM   25  C   UNL     1      37.728 -11.507   1.826  1.00  0.00     0.009 A 
HETATM   26  C   UNL     1      38.901 -12.180   2.192  1.00  0.00     0.032 A 
ENDBRANCH   1  20
TORSDOF 3
ENDMDL
MODEL 6
REMARK VINA RESULT:      -8.1      4.776      8.251
REMARK  3 active torsions:
REMARK  status: ('A' for Active; 'I' for Inactive)
REMARK    1  A    between atoms: C_5  and  N_6 
REMARK    2  A    between atoms: C_10  and  C_11 
REMARK    3  A    between atoms: C_21  and  O_22 
ROOT
HETATM    1  N   UNL     1      42.746 -16.619   3.161  1.00  0.00    -0.231 N 
HETATM    2  N   UNL     1      43.529 -15.473   3.166  1.00  0.00    -0.257 N 
HETATM    3  C   UNL     1      42.822 -14.479   2.512  1.00  0.00     0.275 C 
HETATM    4  O   UNL     1      43.068 -13.286   2.505  1.00  0.00    -0.266 OA
HETATM    5  C   UNL     1      41.649 -15.126   1.852  1.00  0.00     0.087 C 
HETATM    6  C   UNL     1      41.671 -16.386   2.324  1.00  0.00     0.178 C 
HETATM    7  H   UNL     1      44.141 -15.249   3.936  1.00  0.00     0.191 HD
ENDROOT
BRANCH   5   8
HETATM    8  C   UNL     1      40.684 -14.438   1.043  1.00  0.00     0.035 C 
HETATM    9  C   UNL     1      40.480 -14.623  -0.266  1.00  0.00    -0.005 A 
HETATM   10  C   UNL     1      39.457 -14.022  -1.112  1.00  0.00     0.004 A 
HETATM   11  C   UNL     1      41.236 -15.505  -1.198  1.00  0.00     0.129 A 
HETATM   12  C   UNL     1      39.674 -14.594  -2.378  1.00  0.00     0.067 A 
HETATM   13  C   UNL     1      38.425 -13.130  -0.883  1.00  0.00     0.014 A 
HETATM   14  C   UNL     1      38.854 -14.276  -3.444  1.00  0.00     0.032 A 
HETATM   15  N   UNL     1      40.765 -15.496  -2.413  1.00  0.00    -0.259 NA
HETATM   16  C   UNL     1      37.806 -13.377  -3.230  1.00  0.00     0.002 A 
HETATM   17  C   UNL     1      37.594 -12.809  -1.961  1.00  0.00     0.001 A 
ENDBRANCH   5   8
BRANCH   6  18
HETATM   18  O   UNL     1      40.710 -17.337   2.099  1.00  0.00    -0.344 OA
HETATM   19  H   UNL     1      40.764 -18.009   2.799  1.00  0.00     0.219 HD
ENDBRANCH   6  18
BRANCH   1  20
HETATM   20  C   UNL     1      43.369 -17.838   3.527  1.00  0.00     0.059 A 
HETATM   21  C   UNL     1      43.574 -18.168   4.878  1.00  0.00     0.032 A 
HETATM   22  C   UNL     1      44.143 -19.392   5.258  1.00  0.00     0.009 A 
HETATM   23  C   UNL     1      44.534 -20.321   4.293  1.00  0.00    -0.062 A 
HETATM   24  C   UNL     1      45.104 -21.651   4.682  1.00  0.00     0.048 C 
HETATM   25  C   UNL     1      44.342 -20.008   2.946  1.00  0.00     0.009 A 
HETATM   26  C   UNL     1      43.768 -18.786   2.573  1.00  0.00     0.032 A 
ENDBRANCH   1  20
TORSDOF 3
ENDMDL
MODEL 7
REMARK VINA RESULT:      -8.0      2.290      3.209
REMARK  3 active torsions:
REMARK  status: ('A' for Active; 'I' for Inactive)
REMARK    1  A    between atoms: C_5  and  N_6 
REMARK    2  A    between atoms: C_10  and  C_11 
REMARK    3  A    between atoms: C_21  and  O_22 
ROOT
HETATM    1  N   UNL     1      41.024 -13.080   3.465  1.00  0.00    -0.231 N 
HETATM    2  N   UNL     1      42.323 -12.593   3.495  1.00  0.00    -0.257 N 
HETATM    3  C   UNL     1      43.169 -13.667   3.707  1.00  0.00     0.275 C 
HETATM    4  O   UNL     1      44.380 -13.686   3.572  1.00  0.00    -0.266 OA
HETATM    5  C   UNL     1      42.320 -14.838   4.077  1.00  0.00     0.087 C 
HETATM    6  C   UNL     1      41.064 -14.401   3.872  1.00  0.00     0.178 C 
HETATM    7  H   UNL     1      42.613 -11.813   2.924  1.00  0.00     0.191 HD
ENDROOT
BRANCH   5   8
HETATM    8  C   UNL     1      42.823 -16.141   4.410  1.00  0.00     0.035 C 
HETATM    9  C   UNL     1      43.037 -17.144   3.551  1.00  0.00    -0.005 A 
HETATM   10  C   UNL     1      43.630 -18.448   3.818  1.00  0.00     0.004 A 
HETATM   11  C   UNL     1      42.740 -17.184   2.092  1.00  0.00     0.129 A 
HETATM   12  C   UNL     1      43.653 -19.082   2.565  1.00  0.00     0.067 A 
HETATM   13  C   UNL     1      44.139 -19.056   4.953  1.00  0.00     0.014 A 
HETATM   14  C   UNL     1      44.189 -20.349   2.426  1.00  0.00     0.032 A 
HETATM   15  N   UNL     1      43.104 -18.298   1.522  1.00  0.00    -0.259 NA
HETATM   16  C   UNL     1      44.708 -20.977   3.562  1.00  0.00     0.002 A 
HETATM   17  C   UNL     1      44.683 -20.336   4.813  1.00  0.00     0.001 A 
ENDBRANCH   5   8
BRANCH   6  18
HETATM   18  O   UNL     1      39.930 -15.166   3.957  1.00  0.00    -0.344 OA
HETATM   19  H   UNL     1      40.151 -16.005   4.394  1.00  0.00     0.219 HD
ENDBRANCH   6  18
BRANCH   1  20
HETATM   20  C   UNL     1      39.970 -12.136   3.537  1.00  0.00     0.059 A 
HETATM   21  C   UNL     1      39.855 -11.262   4.632  1.00  0.00     0.032 A 
HETATM   22  C   UNL     1      38.847 -10.289   4.693  1.00  0.00     0.009 A 
HETATM   23  C   UNL     1      37.915 -10.168   3.661  1.00  0.00    -0.062 A 
HETATM   24  C   UNL     1      36.858  -9.106   3.690  1.00  0.00     0.048 C 
HETATM   25  C   UNL     1      38.012 -11.030   2.567  1.00  0.00     0.009 A 
HETATM   26  C   UNL     1      39.024 -11.997   2.509  1.00  0.00     0.032 A 
ENDBRANCH   1  20
TORSDOF 3
ENDMDL
MODEL 8
REMARK VINA RESULT:      -8.0      1.888      2.648
REMARK  3 active torsions:
REMARK  status: ('A' for Active; 'I' for Inactive)
REMARK    1  A    between atoms: C_5  and  N_6 
REMARK    2  A    between atoms: C_10  and  C_11 
REMARK    3  A    between atoms: C_21  and  O_22 
ROOT
HETATM    1  N   UNL     1      40.757 -14.397   3.364  1.00  0.00    -0.231 N 
HETATM    2  N   UNL     1      41.322 -13.971   2.170  1.00  0.00    -0.257 N 
HETATM    3  C   UNL     1      41.822 -15.086   1.521  1.00  0.00     0.275 C 
HETATM    4  O   UNL     1      42.185 -15.160   0.361  1.00  0.00    -0.266 OA
HETATM    5  C   UNL     1      41.783 -16.221   2.491  1.00  0.00     0.087 C 
HETATM    6  C   UNL     1      41.104 -15.723   3.541  1.00  0.00     0.178 C 
HETATM    7  H   UNL     1      40.940 -13.198   1.646  1.00  0.00     0.191 HD
ENDROOT
BRANCH   5   8
HETATM    8  C   UNL     1      42.249 -17.550   2.214  1.00  0.00     0.035 C 
HETATM    9  C   UNL     1      43.082 -18.267   2.976  1.00  0.00    -0.005 A 
HETATM   10  C   UNL     1      43.512 -19.647   2.791  1.00  0.00     0.004 A 
HETATM   11  C   UNL     1      43.777 -17.846   4.225  1.00  0.00     0.129 A 
HETATM   12  C   UNL     1      44.343 -19.903   3.895  1.00  0.00     0.067 A 
HETATM   13  C   UNL     1      43.234 -20.619   1.847  1.00  0.00     0.014 A 
HETATM   14  C   UNL     1      44.917 -21.148   4.071  1.00  0.00     0.032 A 
HETATM   15  N   UNL     1      44.496 -18.792   4.759  1.00  0.00    -0.259 NA
HETATM   16  C   UNL     1      44.645 -22.142   3.127  1.00  0.00     0.002 A 
HETATM   17  C   UNL     1      43.811 -21.880   2.025  1.00  0.00     0.001 A 
ENDBRANCH   5   8
BRANCH   6  18
HETATM   18  O   UNL     1      40.702 -16.436   4.641  1.00  0.00    -0.344 OA
HETATM   19  H   UNL     1      40.511 -15.815   5.363  1.00  0.00     0.219 HD
ENDBRANCH   6  18
BRANCH   1  20
HETATM   20  C   UNL     1      40.428 -13.405   4.321  1.00  0.00     0.059 A 
HETATM   21  C   UNL     1      41.274 -13.145   5.414  1.00  0.00     0.032 A 
HETATM   22  C   UNL     1      40.987 -12.134   6.341  1.00  0.00     0.009 A 
HETATM   23  C   UNL     1      39.836 -11.356   6.208  1.00  0.00    -0.062 A 
HETATM   24  C   UNL     1      39.536 -10.243   7.166  1.00  0.00     0.048 C 
HETATM   25  C   UNL     1      38.982 -11.603   5.132  1.00  0.00     0.009 A 
HETATM   26  C   UNL     1      39.276 -12.611   4.206  1.00  0.00     0.032 A 
ENDBRANCH   1  20
TORSDOF 3
ENDMDL
MODEL 9
REMARK VINA RESULT:      -8.0      1.479      2.467
REMARK  3 active torsions:
REMARK  status: ('A' for Active; 'I' for Inactive)
REMARK    1  A    between atoms: C_5  and  N_6 
REMARK    2  A    between atoms: C_10  and  C_11 
REMARK    3  A    between atoms: C_21  and  O_22 
ROOT
HETATM    1  N   UNL     1      41.208 -12.920   5.064  1.00  0.00    -0.231 N 
HETATM    2  N   UNL     1      41.989 -12.279   4.113  1.00  0.00    -0.257 N 
HETATM    3  C   UNL     1      42.435 -13.238   3.220  1.00  0.00     0.275 C 
HETATM    4  O   UNL     1      42.951 -13.047   2.133  1.00  0.00    -0.266 OA
HETATM    5  C   UNL     1      42.112 -14.575   3.804  1.00  0.00     0.087 C 
HETATM    6  C   UNL     1      41.356 -14.281   4.878  1.00  0.00     0.178 C 
HETATM    7  H   UNL     1      41.788 -11.340   3.803  1.00  0.00     0.191 HD
ENDROOT
BRANCH   5   8
HETATM    8  C   UNL     1      42.443 -15.833   3.198  1.00  0.00     0.035 C 
HETATM    9  C   UNL     1      43.129 -16.827   3.772  1.00  0.00    -0.005 A 
HETATM   10  C   UNL     1      43.411 -18.153   3.239  1.00  0.00     0.004 A 
HETATM   11  C   UNL     1      43.772 -16.842   5.116  1.00  0.00     0.129 A 
HETATM   12  C   UNL     1      44.123 -18.796   4.266  1.00  0.00     0.067 A 
HETATM   13  C   UNL     1      43.095 -18.799   2.057  1.00  0.00     0.014 A 
HETATM   14  C   UNL     1      44.535 -20.108   4.123  1.00  0.00     0.032 A 
HETATM   15  N   UNL     1      44.336 -17.981   5.404  1.00  0.00    -0.259 NA
HETATM   16  C   UNL     1      44.223 -20.775   2.936  1.00  0.00     0.002 A 
HETATM   17  C   UNL     1      43.510 -20.126   1.912  1.00  0.00     0.001 A 
ENDBRANCH   5   8
BRANCH   6  18
HETATM   18  O   UNL     1      40.712 -15.195   5.672  1.00  0.00    -0.344 OA
HETATM   19  H   UNL     1      41.339 -15.531   6.333  1.00  0.00     0.219 HD
ENDBRANCH   6  18
BRANCH   1  20
HETATM   20  C   UNL     1      40.870 -12.191   6.231  1.00  0.00     0.059 A 
HETATM   21  C   UNL     1      39.603 -12.322   6.825  1.00  0.00     0.032 A 
HETATM   22  C   UNL     1      39.271 -11.646   8.008  1.00  0.00     0.009 A 
HETATM   23  C   UNL     1      40.198 -10.808   8.628  1.00  0.00    -0.062 A 
HETATM   24  C   UNL     1      39.876 -10.112   9.916  1.00  0.00     0.048 C 
HETATM   25  C   UNL     1      41.461 -10.662   8.051  1.00  0.00     0.009 A 
HETATM   26  C   UNL     1      41.788 -11.344   6.872  1.00  0.00     0.032 A 
ENDBRANCH   1  20
TORSDOF 3
ENDMDL
MODEL 10
REMARK VINA RESULT:      -7.9      1.268      2.002
REMARK  3 active torsions:
REMARK  status: ('A' for Active; 'I' for Inactive)
REMARK    1  A    between atoms: C_5  and  N_6 
REMARK    2  A    between atoms: C_10  and  C_11 
REMARK    3  A    between atoms: C_21  and  O_22 
ROOT
HETATM    1  N   UNL     1      41.521 -13.987   5.742  1.00  0.00    -0.231 N 
HETATM    2  N   UNL     1      40.401 -14.683   6.174  1.00  0.00    -0.257 N 
HETATM    3  C   UNL     1      40.722 -16.030   6.183  1.00  0.00     0.275 C 
HETATM    4  O   UNL     1      40.092 -16.931   6.708  1.00  0.00    -0.266 OA
HETATM    5  C   UNL     1      42.029 -16.182   5.478  1.00  0.00     0.087 C 
HETATM    6  C   UNL     1      42.439 -14.914   5.285  1.00  0.00     0.178 C 
HETATM    7  H   UNL     1      39.767 -14.299   6.858  1.00  0.00     0.191 HD
ENDROOT
BRANCH   5   8
HETATM    8  C   UNL     1      42.692 -17.433   5.246  1.00  0.00     0.035 C 
HETATM    9  C   UNL     1      42.755 -18.086   4.080  1.00  0.00    -0.005 A 
HETATM   10  C   UNL     1      43.488 -19.306   3.768  1.00  0.00     0.004 A 
HETATM   11  C   UNL     1      42.102 -17.727   2.790  1.00  0.00     0.129 A 
HETATM   12  C   UNL     1      43.239 -19.521   2.402  1.00  0.00     0.067 A 
HETATM   13  C   UNL     1      44.309 -20.145   4.500  1.00  0.00     0.014 A 
HETATM   14  C   UNL     1      43.812 -20.592   1.741  1.00  0.00     0.032 A 
HETATM   15  N   UNL     1      42.389 -18.549   1.821  1.00  0.00    -0.259 NA
HETATM   16  C   UNL     1      44.645 -21.448   2.466  1.00  0.00     0.002 A 
HETATM   17  C   UNL     1      44.891 -21.227   3.833  1.00  0.00     0.001 A 
ENDBRANCH   5   8
BRANCH   6  18
HETATM   18  O   UNL     1      43.657 -14.539   4.781  1.00  0.00    -0.344 OA
HETATM   19  H   UNL     1      44.273 -15.286   4.862  1.00  0.00     0.219 HD
ENDBRANCH   6  18
BRANCH   1  20
HETATM   20  C   UNL     1      41.348 -12.626   5.388  1.00  0.00     0.059 A 
HETATM   21  C   UNL     1      41.022 -12.256   4.072  1.00  0.00     0.032 A 
HETATM   22  C   UNL     1      40.798 -10.918   3.718  1.00  0.00     0.009 A 
HETATM   23  C   UNL     1      40.906  -9.905   4.673  1.00  0.00    -0.062 A 
HETATM   24  C   UNL     1      40.628  -8.475   4.322  1.00  0.00     0.048 C 
HETATM   25  C   UNL     1      41.233 -10.253   5.984  1.00  0.00     0.009 A 
HETATM   26  C   UNL     1      41.450 -11.593   6.333  1.00  0.00     0.032 A 
ENDBRANCH   1  20
TORSDOF 3
ENDMDL
