MODEL 1
REMARK VINA RESULT:      -9.6      0.000      0.000
REMARK  5 active torsions:
REMARK  status: ('A' for Active; 'I' for Inactive)
REMARK    1  A    between atoms: C_5  and  C_6 
REMARK    2  A    between atoms: C_11  and  C_12 
REMARK       I    between atoms: C_12  and  N_13 
REMARK    3  A    between atoms: N_13  and  C_14 
REMARK    4  A    between atoms: C_16  and  O_17 
REMARK    5  A    between atoms: C_23  and  C_24 
ROOT
HETATM    1  C   UNL     1      42.781 -16.900   3.639  1.00  0.00     0.118 C 
HETATM    2  N   UNL     1      41.321 -16.879   3.497  1.00  0.00    -0.366 N 
HETATM    3  C   UNL     1      40.686 -15.950   2.754  1.00  0.00     0.123 A 
HETATM    4  N   UNL     1      41.316 -14.797   2.382  1.00  0.00    -0.240 N 
HETATM    5  N   UNL     1      40.615 -14.043   1.516  1.00  0.00    -0.165 NA
HETATM    6  C   UNL     1      39.437 -14.705   1.413  1.00  0.00     0.148 A 
HETATM    7  C   UNL     1      39.433 -15.886   2.209  1.00  0.00     0.089 A 
HETATM    8  C   UNL     1      42.691 -14.508   2.733  1.00  0.00     0.221 C 
HETATM    9  C   UNL     1      43.472 -15.828   2.767  1.00  0.00     0.066 C 
HETATM   10  H   UNL     1      40.855 -17.749   3.756  1.00  0.00     0.161 HD
ENDROOT
BRANCH   6  11
HETATM   11  C   UNL     1      38.356 -14.241   0.523  1.00  0.00     0.276 C 
HETATM   12  N   UNL     1      38.814 -14.017  -0.760  1.00  0.00    -0.322 N 
HETATM   13  H   UNL     1      39.815 -14.170  -0.862  1.00  0.00     0.169 HD
HETATM   14  O   UNL     1      37.205 -14.114   0.925  1.00  0.00    -0.266 OA
BRANCH  12  15
HETATM   15  C   UNL     1      38.079 -13.658  -1.902  1.00  0.00     0.037 A 
HETATM   16  C   UNL     1      37.831 -14.525  -2.969  1.00  0.00     0.066 A 
HETATM   17  C   UNL     1      37.107 -14.076  -4.072  1.00  0.00     0.067 A 
HETATM   18  C   UNL     1      36.621 -12.776  -4.132  1.00  0.00     0.036 A 
HETATM   19  C   UNL     1      36.863 -11.907  -3.071  1.00  0.00     0.005 A 
HETATM   20  C   UNL     1      37.589 -12.347  -1.961  1.00  0.00     0.029 A 
BRANCH  17  21
HETATM   21  O   UNL     1      36.853 -14.895  -5.134  1.00  0.00    -0.361 OA
HETATM   22  H   UNL     1      36.363 -15.671  -4.810  1.00  0.00     0.217 HD
ENDBRANCH  17  21
ENDBRANCH  12  15
ENDBRANCH   6  11
BRANCH   8  23
HETATM   23  C   UNL     1      42.751 -13.754   4.041  1.00  0.00     0.409 C 
HETATM   24  F   UNL     1      42.585 -12.423   3.873  1.00  0.00    -0.169 F 
HETATM   25  F   UNL     1      41.850 -14.170   4.953  1.00  0.00    -0.169 F 
HETATM   26  F   UNL     1      43.976 -13.921   4.606  1.00  0.00    -0.169 F 
ENDBRANCH   8  23
BRANCH   1  27
HETATM   27  C   UNL     1      43.303 -18.281   3.275  1.00  0.00    -0.035 A 
HETATM   28  C   UNL     1      44.188 -18.967   4.126  1.00  0.00     0.010 A 
HETATM   29  C   UNL     1      44.648 -20.245   3.804  1.00  0.00     0.007 A 
HETATM   30  C   UNL     1      44.236 -20.866   2.622  1.00  0.00    -0.062 A 
HETATM   31  C   UNL     1      44.699 -22.255   2.295  1.00  0.00     0.048 C 
HETATM   32  C   UNL     1      43.340 -20.199   1.780  1.00  0.00     0.007 A 
HETATM   33  C   UNL     1      42.881 -18.917   2.100  1.00  0.00     0.010 A 
ENDBRANCH   1  27
TORSDOF 5
ENDMDL
MODEL 2
REMARK VINA RESULT:      -9.1      3.945      6.877
REMARK  5 active torsions:
REMARK  status: ('A' for Active; 'I' for Inactive)
REMARK    1  A    between atoms: C_5  and  C_6 
REMARK    2  A    between atoms: C_11  and  C_12 
REMARK       I    between atoms: C_12  and  N_13 
REMARK    3  A    between atoms: N_13  and  C_14 
REMARK    4  A    between atoms: C_16  and  O_17 
REMARK    5  A    between atoms: C_23  and  C_24 
ROOT
HETATM    1  C   UNL     1      43.093 -17.091   1.894  1.00  0.00     0.118 C 
HETATM    2  N   UNL     1      43.613 -15.846   2.468  1.00  0.00    -0.366 N 
HETATM    3  C   UNL     1      42.805 -14.828   2.828  1.00  0.00     0.123 A 
HETATM    4  N   UNL     1      41.520 -14.756   2.371  1.00  0.00    -0.240 N 
HETATM    5  N   UNL     1      40.790 -13.778   2.936  1.00  0.00    -0.165 NA
HETATM    6  C   UNL     1      41.690 -13.134   3.719  1.00  0.00     0.148 A 
HETATM    7  C   UNL     1      42.975 -13.743   3.643  1.00  0.00     0.089 A 
HETATM    8  C   UNL     1      40.940 -15.761   1.504  1.00  0.00     0.221 C 
HETATM    9  C   UNL     1      41.548 -17.123   1.863  1.00  0.00     0.066 C 
HETATM   10  H   UNL     1      44.567 -15.907   2.826  1.00  0.00     0.161 HD
ENDROOT
BRANCH   6  11
HETATM   11  C   UNL     1      41.308 -11.989   4.567  1.00  0.00     0.276 C 
HETATM   12  N   UNL     1      41.122 -12.367   5.880  1.00  0.00    -0.322 N 
HETATM   13  H   UNL     1      41.239 -13.367   6.032  1.00  0.00     0.169 HD
HETATM   14  O   UNL     1      41.210 -10.856   4.107  1.00  0.00    -0.266 OA
BRANCH  12  15
HETATM   15  C   UNL     1      40.842 -11.558   6.994  1.00  0.00     0.037 A 
HETATM   16  C   UNL     1      39.587 -11.478   7.601  1.00  0.00     0.066 A 
HETATM   17  C   UNL     1      39.397 -10.632   8.692  1.00  0.00     0.067 A 
HETATM   18  C   UNL     1      40.439  -9.862   9.193  1.00  0.00     0.036 A 
HETATM   19  C   UNL     1      41.693  -9.937   8.594  1.00  0.00     0.005 A 
HETATM   20  C   UNL     1      41.894 -10.782   7.500  1.00  0.00     0.029 A 
BRANCH  17  21
HETATM   21  O   UNL     1      38.181 -10.526   9.303  1.00  0.00    -0.361 OA
HETATM   22  H   UNL     1      37.927  -9.587   9.318  1.00  0.00     0.217 HD
ENDBRANCH  17  21
ENDBRANCH  12  15
ENDBRANCH   6  11
BRANCH   8  23
HETATM   23  C   UNL     1      41.148 -15.387   0.055  1.00  0.00     0.409 C 
HETATM   24  F   UNL     1      42.171 -14.518  -0.108  1.00  0.00    -0.169 F 
HETATM   25  F   UNL     1      41.370 -16.442  -0.755  1.00  0.00    -0.169 F 
HETATM   26  F   UNL     1      40.036 -14.765  -0.419  1.00  0.00    -0.169 F 
ENDBRANCH   8  23
BRANCH   1  27
HETATM   27  C   UNL     1      43.622 -18.273   2.689  1.00  0.00    -0.035 A 
HETATM   28  C   UNL     1      43.865 -18.165   4.070  1.00  0.00     0.010 A 
HETATM   29  C   UNL     1      44.327 -19.258   4.806  1.00  0.00     0.007 A 
HETATM   30  C   UNL     1      44.562 -20.483   4.177  1.00  0.00    -0.062 A 
HETATM   31  C   UNL     1      45.022 -21.668   4.973  1.00  0.00     0.048 C 
HETATM   32  C   UNL     1      44.305 -20.604   2.807  1.00  0.00     0.007 A 
HETATM   33  C   UNL     1      43.843 -19.510   2.068  1.00  0.00     0.010 A 
ENDBRANCH   1  27
TORSDOF 5
ENDMDL
MODEL 3
REMARK VINA RESULT:      -9.0      1.472      1.721
REMARK  5 active torsions:
REMARK  status: ('A' for Active; 'I' for Inactive)
REMARK    1  A    between atoms: C_5  and  C_6 
REMARK    2  A    between atoms: C_11  and  C_12 
REMARK       I    between atoms: C_12  and  N_13 
REMARK    3  A    between atoms: N_13  and  C_14 
REMARK    4  A    between atoms: C_16  and  O_17 
REMARK    5  A    between atoms: C_23  and  C_24 
ROOT
HETATM    1  C   UNL     1      42.433 -16.877   4.712  1.00  0.00     0.118 C 
HETATM    2  N   UNL     1      41.328 -16.993   3.755  1.00  0.00    -0.366 N 
HETATM    3  C   UNL     1      41.169 -16.126   2.734  1.00  0.00     0.123 A 
HETATM    4  N   UNL     1      41.807 -14.919   2.732  1.00  0.00    -0.240 N 
HETATM    5  N   UNL     1      41.679 -14.232   1.582  1.00  0.00    -0.165 NA
HETATM    6  C   UNL     1      40.833 -15.002   0.855  1.00  0.00     0.148 A 
HETATM    7  C   UNL     1      40.461 -16.179   1.565  1.00  0.00     0.089 A 
HETATM    8  C   UNL     1      42.699 -14.503   3.794  1.00  0.00     0.221 C 
HETATM    9  C   UNL     1      43.415 -15.744   4.341  1.00  0.00     0.066 C 
HETATM   10  H   UNL     1      40.866 -17.903   3.744  1.00  0.00     0.161 HD
ENDROOT
BRANCH   6  11
HETATM   11  C   UNL     1      40.433 -14.640  -0.518  1.00  0.00     0.276 C 
HETATM   12  N   UNL     1      39.081 -14.377  -0.603  1.00  0.00    -0.322 N 
HETATM   13  H   UNL     1      38.589 -14.514   0.278  1.00  0.00     0.169 HD
HETATM   14  O   UNL     1      41.254 -14.573  -1.427  1.00  0.00    -0.266 OA
BRANCH  12  15
HETATM   15  C   UNL     1      38.345 -13.919  -1.708  1.00  0.00     0.037 A 
HETATM   16  C   UNL     1      38.047 -14.707  -2.822  1.00  0.00     0.066 A 
HETATM   17  C   UNL     1      37.326 -14.161  -3.883  1.00  0.00     0.067 A 
HETATM   18  C   UNL     1      36.894 -12.841  -3.855  1.00  0.00     0.036 A 
HETATM   19  C   UNL     1      37.187 -12.050  -2.747  1.00  0.00     0.005 A 
HETATM   20  C   UNL     1      37.910 -12.588  -1.678  1.00  0.00     0.029 A 
BRANCH  17  21
HETATM   21  O   UNL     1      37.023 -14.902  -4.989  1.00  0.00    -0.361 OA
HETATM   22  H   UNL     1      37.065 -14.320  -5.767  1.00  0.00     0.217 HD
ENDBRANCH  17  21
ENDBRANCH  12  15
ENDBRANCH   6  11
BRANCH   8  23
HETATM   23  C   UNL     1      41.934 -13.748   4.856  1.00  0.00     0.409 C 
HETATM   24  F   UNL     1      40.608 -14.011   4.816  1.00  0.00    -0.169 F 
HETATM   25  F   UNL     1      42.364 -13.985   6.112  1.00  0.00    -0.169 F 
HETATM   26  F   UNL     1      42.066 -12.411   4.649  1.00  0.00    -0.169 F 
ENDBRANCH   8  23
BRANCH   1  27
HETATM   27  C   UNL     1      43.174 -18.202   4.789  1.00  0.00    -0.035 A 
HETATM   28  C   UNL     1      43.326 -18.876   6.014  1.00  0.00     0.010 A 
HETATM   29  C   UNL     1      43.985 -20.105   6.080  1.00  0.00     0.007 A 
HETATM   30  C   UNL     1      44.511 -20.688   4.924  1.00  0.00    -0.062 A 
HETATM   31  C   UNL     1      45.184 -22.027   4.989  1.00  0.00     0.048 C 
HETATM   32  C   UNL     1      44.347 -20.033   3.698  1.00  0.00     0.007 A 
HETATM   33  C   UNL     1      43.689 -18.801   3.631  1.00  0.00     0.010 A 
ENDBRANCH   1  27
TORSDOF 5
ENDMDL
MODEL 4
REMARK VINA RESULT:      -9.0      4.530      8.294
REMARK  5 active torsions:
REMARK  status: ('A' for Active; 'I' for Inactive)
REMARK    1  A    between atoms: C_5  and  C_6 
REMARK    2  A    between atoms: C_11  and  C_12 
REMARK       I    between atoms: C_12  and  N_13 
REMARK    3  A    between atoms: N_13  and  C_14 
REMARK    4  A    between atoms: C_16  and  O_17 
REMARK    5  A    between atoms: C_23  and  C_24 
ROOT
HETATM    1  C   UNL     1      42.764 -17.424   3.078  1.00  0.00     0.118 C 
HETATM    2  N   UNL     1      43.567 -16.269   3.492  1.00  0.00    -0.366 N 
HETATM    3  C   UNL     1      43.050 -15.258   4.219  1.00  0.00     0.123 A 
HETATM    4  N   UNL     1      41.700 -15.082   4.315  1.00  0.00    -0.240 N 
HETATM    5  N   UNL     1      41.330 -14.134   5.196  1.00  0.00    -0.165 NA
HETATM    6  C   UNL     1      42.514 -13.615   5.604  1.00  0.00     0.148 A 
HETATM    7  C   UNL     1      43.613 -14.270   4.979  1.00  0.00     0.089 A 
HETATM    8  C   UNL     1      40.747 -15.965   3.676  1.00  0.00     0.221 C 
HETATM    9  C   UNL     1      41.333 -17.383   3.660  1.00  0.00     0.066 C 
HETATM   10  H   UNL     1      44.577 -16.410   3.437  1.00  0.00     0.161 HD
ENDROOT
BRANCH   6  11
HETATM   11  C   UNL     1      42.589 -12.546   6.618  1.00  0.00     0.276 C 
HETATM   12  N   UNL     1      43.544 -12.819   7.576  1.00  0.00    -0.322 N 
HETATM   13  H   UNL     1      44.002 -13.718   7.444  1.00  0.00     0.169 HD
HETATM   14  O   UNL     1      41.880 -11.548   6.550  1.00  0.00    -0.266 OA
BRANCH  12  15
HETATM   15  C   UNL     1      43.970 -12.010   8.644  1.00  0.00     0.037 A 
HETATM   16  C   UNL     1      43.100 -11.294   9.470  1.00  0.00     0.066 A 
HETATM   17  C   UNL     1      43.614 -10.501  10.494  1.00  0.00     0.067 A 
HETATM   18  C   UNL     1      44.983 -10.408  10.713  1.00  0.00     0.036 A 
HETATM   19  C   UNL     1      45.856 -11.120   9.895  1.00  0.00     0.005 A 
HETATM   20  C   UNL     1      45.350 -11.918   8.864  1.00  0.00     0.029 A 
BRANCH  17  21
HETATM   21  O   UNL     1      42.792  -9.785  11.315  1.00  0.00    -0.361 OA
HETATM   22  H   UNL     1      42.129 -10.391  11.688  1.00  0.00     0.217 HD
ENDBRANCH  17  21
ENDBRANCH  12  15
ENDBRANCH   6  11
BRANCH   8  23
HETATM   23  C   UNL     1      40.403 -15.455   2.296  1.00  0.00     0.409 C 
HETATM   24  F   UNL     1      40.479 -16.425   1.357  1.00  0.00    -0.169 F 
HETATM   25  F   UNL     1      39.180 -14.893   2.210  1.00  0.00    -0.169 F 
HETATM   26  F   UNL     1      41.294 -14.495   1.930  1.00  0.00    -0.169 F 
ENDBRANCH   8  23
BRANCH   1  27
HETATM   27  C   UNL     1      43.463 -18.704   3.507  1.00  0.00    -0.035 A 
HETATM   28  C   UNL     1      43.776 -18.940   4.857  1.00  0.00     0.010 A 
HETATM   29  C   UNL     1      44.396 -20.126   5.254  1.00  0.00     0.007 A 
HETATM   30  C   UNL     1      44.721 -21.103   4.309  1.00  0.00    -0.062 A 
HETATM   31  C   UNL     1      45.351 -22.394   4.740  1.00  0.00     0.048 C 
HETATM   32  C   UNL     1      44.395 -20.884   2.966  1.00  0.00     0.007 A 
HETATM   33  C   UNL     1      43.776 -19.695   2.567  1.00  0.00     0.010 A 
ENDBRANCH   1  27
TORSDOF 5
ENDMDL
MODEL 5
REMARK VINA RESULT:      -8.9      2.797      3.069
REMARK  5 active torsions:
REMARK  status: ('A' for Active; 'I' for Inactive)
REMARK    1  A    between atoms: C_5  and  C_6 
REMARK    2  A    between atoms: C_11  and  C_12 
REMARK       I    between atoms: C_12  and  N_13 
REMARK    3  A    between atoms: N_13  and  C_14 
REMARK    4  A    between atoms: C_16  and  O_17 
REMARK    5  A    between atoms: C_23  and  C_24 
ROOT
HETATM    1  C   UNL     1      42.414 -17.037   3.808  1.00  0.00     0.118 C 
HETATM    2  N   UNL     1      41.629 -16.520   2.683  1.00  0.00    -0.366 N 
HETATM    3  C   UNL     1      41.804 -15.275   2.197  1.00  0.00     0.123 A 
HETATM    4  N   UNL     1      42.459 -14.323   2.924  1.00  0.00    -0.240 N 
HETATM    5  N   UNL     1      42.695 -13.182   2.251  1.00  0.00    -0.165 NA
HETATM    6  C   UNL     1      42.067 -13.388   1.067  1.00  0.00     0.148 A 
HETATM    7  C   UNL     1      41.462 -14.676   1.016  1.00  0.00     0.089 A 
HETATM    8  C   UNL     1      43.022 -14.587   4.232  1.00  0.00     0.221 C 
HETATM    9  C   UNL     1      43.503 -16.043   4.270  1.00  0.00     0.066 C 
HETATM   10  H   UNL     1      41.156 -17.235   2.129  1.00  0.00     0.161 HD
ENDROOT
BRANCH   6  11
HETATM   11  C   UNL     1      42.095 -12.385  -0.015  1.00  0.00     0.276 C 
HETATM   12  N   UNL     1      41.502 -12.862  -1.167  1.00  0.00    -0.322 N 
HETATM   13  H   UNL     1      41.186 -13.827  -1.087  1.00  0.00     0.169 HD
HETATM   14  O   UNL     1      42.577 -11.271   0.156  1.00  0.00    -0.266 OA
BRANCH  12  15
HETATM   15  C   UNL     1      41.257 -12.183  -2.372  1.00  0.00     0.037 A 
HETATM   16  C   UNL     1      42.249 -11.882  -3.308  1.00  0.00     0.066 A 
HETATM   17  C   UNL     1      41.916 -11.186  -4.470  1.00  0.00     0.067 A 
HETATM   18  C   UNL     1      40.609 -10.785  -4.717  1.00  0.00     0.036 A 
HETATM   19  C   UNL     1      39.616 -11.083  -3.789  1.00  0.00     0.005 A 
HETATM   20  C   UNL     1      39.939 -11.780  -2.621  1.00  0.00     0.029 A 
BRANCH  17  21
HETATM   21  O   UNL     1      42.862 -10.871  -5.402  1.00  0.00    -0.361 OA
HETATM   22  H   UNL     1      42.408 -10.606  -6.220  1.00  0.00     0.217 HD
ENDBRANCH  17  21
ENDBRANCH  12  15
ENDBRANCH   6  11
BRANCH   8  23
HETATM   23  C   UNL     1      42.011 -14.272   5.310  1.00  0.00     0.409 C 
HETATM   24  F   UNL     1      41.980 -15.218   6.275  1.00  0.00    -0.169 F 
HETATM   25  F   UNL     1      42.204 -13.079   5.908  1.00  0.00    -0.169 F 
HETATM   26  F   UNL     1      40.765 -14.234   4.769  1.00  0.00    -0.169 F 
ENDBRANCH   8  23
BRANCH   1  27
HETATM   27  C   UNL     1      43.051 -18.360   3.414  1.00  0.00    -0.035 A 
HETATM   28  C   UNL     1      43.931 -19.027   4.284  1.00  0.00     0.010 A 
HETATM   29  C   UNL     1      44.496 -20.254   3.933  1.00  0.00     0.007 A 
HETATM   30  C   UNL     1      44.199 -20.840   2.700  1.00  0.00    -0.062 A 
HETATM   31  C   UNL     1      44.775 -22.177   2.338  1.00  0.00     0.048 C 
HETATM   32  C   UNL     1      43.309 -20.192   1.836  1.00  0.00     0.007 A 
HETATM   33  C   UNL     1      42.743 -18.962   2.187  1.00  0.00     0.010 A 
ENDBRANCH   1  27
TORSDOF 5
ENDMDL
MODEL 6
REMARK VINA RESULT:      -8.7      2.625      2.829
REMARK  5 active torsions:
REMARK  status: ('A' for Active; 'I' for Inactive)
REMARK    1  A    between atoms: C_5  and  C_6 
REMARK    2  A    between atoms: C_11  and  C_12 
REMARK       I    between atoms: C_12  and  N_13 
REMARK    3  A    between atoms: N_13  and  C_14 
REMARK    4  A    between atoms: C_16  and  O_17 
REMARK    5  A    between atoms: C_23  and  C_24 
ROOT
HETATM    1  C   UNL     1      42.429 -17.195   4.566  1.00  0.00     0.118 C 
HETATM    2  N   UNL     1      41.475 -17.322   3.459  1.00  0.00    -0.366 N 
HETATM    3  C   UNL     1      41.434 -16.438   2.441  1.00  0.00     0.123 A 
HETATM    4  N   UNL     1      42.025 -15.212   2.552  1.00  0.00    -0.240 N 
HETATM    5  N   UNL     1      42.040 -14.504   1.409  1.00  0.00    -0.165 NA
HETATM    6  C   UNL     1      41.331 -15.283   0.555  1.00  0.00     0.148 A 
HETATM    7  C   UNL     1      40.901 -16.486   1.183  1.00  0.00     0.089 A 
HETATM    8  C   UNL     1      42.744 -14.793   3.738  1.00  0.00     0.221 C 
HETATM    9  C   UNL     1      43.416 -16.024   4.359  1.00  0.00     0.066 C 
HETATM   10  H   UNL     1      41.049 -18.245   3.366  1.00  0.00     0.161 HD
ENDROOT
BRANCH   6  11
HETATM   11  C   UNL     1      41.118 -14.902  -0.855  1.00  0.00     0.276 C 
HETATM   12  N   UNL     1      41.068 -13.531  -1.010  1.00  0.00    -0.322 N 
HETATM   13  H   UNL     1      41.146 -13.024  -0.131  1.00  0.00     0.169 HD
HETATM   14  O   UNL     1      41.030 -15.746  -1.740  1.00  0.00    -0.266 OA
BRANCH  12  15
HETATM   15  C   UNL     1      40.970 -12.787  -2.198  1.00  0.00     0.037 A 
HETATM   16  C   UNL     1      42.056 -12.508  -3.030  1.00  0.00     0.066 A 
HETATM   17  C   UNL     1      41.868 -11.745  -4.181  1.00  0.00     0.067 A 
HETATM   18  C   UNL     1      40.614 -11.254  -4.521  1.00  0.00     0.036 A 
HETATM   19  C   UNL     1      39.526 -11.529  -3.696  1.00  0.00     0.005 A 
HETATM   20  C   UNL     1      39.705 -12.293  -2.540  1.00  0.00     0.029 A 
BRANCH  17  21
HETATM   21  O   UNL     1      42.909 -11.449  -5.013  1.00  0.00    -0.361 OA
HETATM   22  H   UNL     1      43.072 -12.220  -5.584  1.00  0.00     0.217 HD
ENDBRANCH  17  21
ENDBRANCH  12  15
ENDBRANCH   6  11
BRANCH   8  23
HETATM   23  C   UNL     1      41.811 -14.086   4.693  1.00  0.00     0.409 C 
HETATM   24  F   UNL     1      41.894 -12.741   4.589  1.00  0.00    -0.169 F 
HETATM   25  F   UNL     1      40.516 -14.433   4.549  1.00  0.00    -0.169 F 
HETATM   26  F   UNL     1      42.152 -14.394   5.973  1.00  0.00    -0.169 F 
ENDBRANCH   8  23
BRANCH   1  27
HETATM   27  C   UNL     1      43.195 -18.499   4.723  1.00  0.00    -0.035 A 
HETATM   28  C   UNL     1      43.306 -19.125   5.977  1.00  0.00     0.010 A 
HETATM   29  C   UNL     1      43.988 -20.335   6.118  1.00  0.00     0.007 A 
HETATM   30  C   UNL     1      44.579 -20.945   5.008  1.00  0.00    -0.062 A 
HETATM   31  C   UNL     1      45.278 -22.265   5.151  1.00  0.00     0.048 C 
HETATM   32  C   UNL     1      44.456 -20.338   3.753  1.00  0.00     0.007 A 
HETATM   33  C   UNL     1      43.775 -19.125   3.612  1.00  0.00     0.010 A 
ENDBRANCH   1  27
TORSDOF 5
ENDMDL
MODEL 7
REMARK VINA RESULT:      -8.5      3.880      4.566
REMARK  5 active torsions:
REMARK  status: ('A' for Active; 'I' for Inactive)
REMARK    1  A    between atoms: C_5  and  C_6 
REMARK    2  A    between atoms: C_11  and  C_12 
REMARK       I    between atoms: C_12  and  N_13 
REMARK    3  A    between atoms: N_13  and  C_14 
REMARK    4  A    between atoms: C_16  and  O_17 
REMARK    5  A    between atoms: C_23  and  C_24 
ROOT
HETATM    1  C   UNL     1      42.311 -16.819   3.700  1.00  0.00     0.118 C 
HETATM    2  N   UNL     1      41.531 -16.292   2.576  1.00  0.00    -0.366 N 
HETATM    3  C   UNL     1      41.725 -15.050   2.087  1.00  0.00     0.123 A 
HETATM    4  N   UNL     1      42.399 -14.108   2.810  1.00  0.00    -0.240 N 
HETATM    5  N   UNL     1      42.651 -12.973   2.134  1.00  0.00    -0.165 NA
HETATM    6  C   UNL     1      42.015 -13.169   0.954  1.00  0.00     0.148 A 
HETATM    7  C   UNL     1      41.389 -14.447   0.907  1.00  0.00     0.089 A 
HETATM    8  C   UNL     1      42.962 -14.379   4.117  1.00  0.00     0.221 C 
HETATM    9  C   UNL     1      43.418 -15.843   4.156  1.00  0.00     0.066 C 
HETATM   10  H   UNL     1      41.043 -16.999   2.025  1.00  0.00     0.161 HD
ENDROOT
BRANCH   6  11
HETATM   11  C   UNL     1      42.055 -12.169  -0.130  1.00  0.00     0.276 C 
HETATM   12  N   UNL     1      42.369 -10.913   0.347  1.00  0.00    -0.322 N 
HETATM   13  H   UNL     1      42.480 -10.883   1.359  1.00  0.00     0.169 HD
HETATM   14  O   UNL     1      41.851 -12.482  -1.298  1.00  0.00    -0.266 OA
BRANCH  12  15
HETATM   15  C   UNL     1      42.588  -9.730  -0.378  1.00  0.00     0.037 A 
HETATM   16  C   UNL     1      43.832  -9.102  -0.481  1.00  0.00     0.066 A 
HETATM   17  C   UNL     1      43.951  -7.918  -1.207  1.00  0.00     0.067 A 
HETATM   18  C   UNL     1      42.852  -7.347  -1.837  1.00  0.00     0.036 A 
HETATM   19  C   UNL     1      41.610  -7.969  -1.740  1.00  0.00     0.005 A 
HETATM   20  C   UNL     1      41.480  -9.155  -1.013  1.00  0.00     0.029 A 
BRANCH  17  21
HETATM   21  O   UNL     1      45.150  -7.276  -1.323  1.00  0.00    -0.361 OA
HETATM   22  H   UNL     1      45.240  -6.958  -2.238  1.00  0.00     0.217 HD
ENDBRANCH  17  21
ENDBRANCH  12  15
ENDBRANCH   6  11
BRANCH   8  23
HETATM   23  C   UNL     1      41.961 -14.046   5.198  1.00  0.00     0.409 C 
HETATM   24  F   UNL     1      42.184 -12.831   5.746  1.00  0.00    -0.169 F 
HETATM   25  F   UNL     1      40.678 -14.083   4.786  1.00  0.00    -0.169 F 
HETATM   26  F   UNL     1      42.066 -14.948   6.210  1.00  0.00    -0.169 F 
ENDBRANCH   8  23
BRANCH   1  27
HETATM   27  C   UNL     1      42.925 -18.153   3.305  1.00  0.00    -0.035 A 
HETATM   28  C   UNL     1      42.624 -18.750   2.068  1.00  0.00     0.010 A 
HETATM   29  C   UNL     1      43.207 -19.962   1.695  1.00  0.00     0.007 A 
HETATM   30  C   UNL     1      44.100 -20.610   2.552  1.00  0.00    -0.062 A 
HETATM   31  C   UNL     1      44.756 -21.893   2.136  1.00  0.00     0.048 C 
HETATM   32  C   UNL     1      44.418 -20.013   3.777  1.00  0.00     0.007 A 
HETATM   33  C   UNL     1      43.834 -18.799   4.153  1.00  0.00     0.010 A 
ENDBRANCH   1  27
TORSDOF 5
ENDMDL
MODEL 8
REMARK VINA RESULT:      -8.3      3.663      8.341
REMARK  5 active torsions:
REMARK  status: ('A' for Active; 'I' for Inactive)
REMARK    1  A    between atoms: C_5  and  C_6 
REMARK    2  A    between atoms: C_11  and  C_12 
REMARK       I    between atoms: C_12  and  N_13 
REMARK    3  A    between atoms: N_13  and  C_14 
REMARK    4  A    between atoms: C_16  and  O_17 
REMARK    5  A    between atoms: C_23  and  C_24 
ROOT
HETATM    1  C   UNL     1      41.478 -11.751   1.556  1.00  0.00     0.118 C 
HETATM    2  N   UNL     1      42.483 -12.689   2.065  1.00  0.00    -0.366 N 
HETATM    3  C   UNL     1      42.143 -13.846   2.671  1.00  0.00     0.123 A 
HETATM    4  N   UNL     1      40.879 -14.045   3.145  1.00  0.00    -0.240 N 
HETATM    5  N   UNL     1      40.646 -15.296   3.580  1.00  0.00    -0.165 NA
HETATM    6  C   UNL     1      41.858 -15.893   3.466  1.00  0.00     0.148 A 
HETATM    7  C   UNL     1      42.830 -14.998   2.937  1.00  0.00     0.089 A 
HETATM    8  C   UNL     1      39.828 -13.057   3.013  1.00  0.00     0.221 C 
HETATM    9  C   UNL     1      40.039 -12.296   1.698  1.00  0.00     0.066 C 
HETATM   10  H   UNL     1      43.423 -12.551   1.694  1.00  0.00     0.161 HD
ENDROOT
BRANCH   6  11
HETATM   11  C   UNL     1      42.064 -17.313   3.809  1.00  0.00     0.276 C 
HETATM   12  N   UNL     1      43.065 -17.881   3.047  1.00  0.00    -0.322 N 
HETATM   13  H   UNL     1      43.460 -17.241   2.360  1.00  0.00     0.169 HD
HETATM   14  O   UNL     1      41.410 -17.861   4.690  1.00  0.00    -0.266 OA
BRANCH  12  15
HETATM   15  C   UNL     1      43.609 -19.173   3.138  1.00  0.00     0.037 A 
HETATM   16  C   UNL     1      43.585 -20.100   2.094  1.00  0.00     0.066 A 
HETATM   17  C   UNL     1      44.133 -21.368   2.281  1.00  0.00     0.067 A 
HETATM   18  C   UNL     1      44.708 -21.730   3.493  1.00  0.00     0.036 A 
HETATM   19  C   UNL     1      44.737 -20.811   4.537  1.00  0.00     0.005 A 
HETATM   20  C   UNL     1      44.189 -19.537   4.360  1.00  0.00     0.029 A 
BRANCH  17  21
HETATM   21  O   UNL     1      44.120 -22.299   1.283  1.00  0.00    -0.361 OA
HETATM   22  H   UNL     1      44.891 -22.143   0.710  1.00  0.00     0.217 HD
ENDBRANCH  17  21
ENDBRANCH  12  15
ENDBRANCH   6  11
BRANCH   8  23
HETATM   23  C   UNL     1      39.806 -12.150   4.221  1.00  0.00     0.409 C 
HETATM   24  F   UNL     1      41.009 -12.082   4.833  1.00  0.00    -0.169 F 
HETATM   25  F   UNL     1      39.408 -10.890   3.951  1.00  0.00    -0.169 F 
HETATM   26  F   UNL     1      38.934 -12.640   5.142  1.00  0.00    -0.169 F 
ENDBRANCH   8  23
BRANCH   1  27
HETATM   27  C   UNL     1      41.774 -11.439   0.097  1.00  0.00    -0.035 A 
HETATM   28  C   UNL     1      41.036 -12.043  -0.936  1.00  0.00     0.010 A 
HETATM   29  C   UNL     1      41.291 -11.738  -2.274  1.00  0.00     0.007 A 
HETATM   30  C   UNL     1      42.293 -10.824  -2.611  1.00  0.00    -0.062 A 
HETATM   31  C   UNL     1      42.541 -10.466  -4.046  1.00  0.00     0.048 C 
HETATM   32  C   UNL     1      43.019 -10.204  -1.587  1.00  0.00     0.007 A 
HETATM   33  C   UNL     1      42.765 -10.510  -0.247  1.00  0.00     0.010 A 
ENDBRANCH   1  27
TORSDOF 5
ENDMDL
MODEL 9
REMARK VINA RESULT:      -8.2      4.657      8.874
REMARK  5 active torsions:
REMARK  status: ('A' for Active; 'I' for Inactive)
REMARK    1  A    between atoms: C_5  and  C_6 
REMARK    2  A    between atoms: C_11  and  C_12 
REMARK       I    between atoms: C_12  and  N_13 
REMARK    3  A    between atoms: N_13  and  C_14 
REMARK    4  A    between atoms: C_16  and  O_17 
REMARK    5  A    between atoms: C_23  and  C_24 
ROOT
HETATM    1  C   UNL     1      40.268 -11.611   6.477  1.00  0.00     0.118 C 
HETATM    2  N   UNL     1      39.767 -12.980   6.632  1.00  0.00    -0.366 N 
HETATM    3  C   UNL     1      40.231 -14.003   5.884  1.00  0.00     0.123 A 
HETATM    4  N   UNL     1      40.923 -13.771   4.731  1.00  0.00    -0.240 N 
HETATM    5  N   UNL     1      41.456 -14.876   4.178  1.00  0.00    -0.165 NA
HETATM    6  C   UNL     1      40.990 -15.872   4.971  1.00  0.00     0.148 A 
HETATM    7  C   UNL     1      40.185 -15.362   6.028  1.00  0.00     0.089 A 
HETATM    8  C   UNL     1      41.223 -12.438   4.251  1.00  0.00     0.221 C 
HETATM    9  C   UNL     1      41.430 -11.521   5.464  1.00  0.00     0.066 C 
HETATM   10  H   UNL     1      39.267 -13.156   7.504  1.00  0.00     0.161 HD
ENDROOT
BRANCH   6  11
HETATM   11  C   UNL     1      41.359 -17.283   4.749  1.00  0.00     0.276 C 
HETATM   12  N   UNL     1      42.452 -17.399   3.914  1.00  0.00    -0.322 N 
HETATM   13  H   UNL     1      42.789 -16.503   3.567  1.00  0.00     0.169 HD
HETATM   14  O   UNL     1      40.746 -18.198   5.289  1.00  0.00    -0.266 OA
BRANCH  12  15
HETATM   15  C   UNL     1      43.150 -18.559   3.540  1.00  0.00     0.037 A 
HETATM   16  C   UNL     1      43.971 -19.284   4.407  1.00  0.00     0.066 A 
HETATM   17  C   UNL     1      44.641 -20.415   3.942  1.00  0.00     0.067 A 
HETATM   18  C   UNL     1      44.506 -20.840   2.626  1.00  0.00     0.036 A 
HETATM   19  C   UNL     1      43.688 -20.123   1.757  1.00  0.00     0.005 A 
HETATM   20  C   UNL     1      43.013 -18.987   2.213  1.00  0.00     0.029 A 
BRANCH  17  21
HETATM   21  O   UNL     1      45.455 -21.142   4.762  1.00  0.00    -0.361 OA
HETATM   22  H   UNL     1      45.343 -20.815   5.671  1.00  0.00     0.217 HD
ENDBRANCH  17  21
ENDBRANCH  12  15
ENDBRANCH   6  11
BRANCH   8  23
HETATM   23  C   UNL     1      40.130 -11.955   3.327  1.00  0.00     0.409 C 
HETATM   24  F   UNL     1      40.497 -12.009   2.027  1.00  0.00    -0.169 F 
HETATM   25  F   UNL     1      38.968 -12.627   3.456  1.00  0.00    -0.169 F 
HETATM   26  F   UNL     1      39.852 -10.651   3.594  1.00  0.00    -0.169 F 
ENDBRANCH   8  23
BRANCH   1  27
HETATM   27  C   UNL     1      40.716 -11.082   7.830  1.00  0.00    -0.035 A 
HETATM   28  C   UNL     1      39.819 -11.005   8.910  1.00  0.00     0.010 A 
HETATM   29  C   UNL     1      40.237 -10.543  10.160  1.00  0.00     0.007 A 
HETATM   30  C   UNL     1      41.561 -10.143  10.357  1.00  0.00    -0.062 A 
HETATM   31  C   UNL     1      42.019  -9.683  11.710  1.00  0.00     0.048 C 
HETATM   32  C   UNL     1      42.464 -10.234   9.293  1.00  0.00     0.007 A 
HETATM   33  C   UNL     1      42.046 -10.695   8.040  1.00  0.00     0.010 A 
ENDBRANCH   1  27
TORSDOF 5
ENDMDL
MODEL 10
REMARK VINA RESULT:      -8.2      2.483      3.191
REMARK  5 active torsions:
REMARK  status: ('A' for Active; 'I' for Inactive)
REMARK    1  A    between atoms: C_5  and  C_6 
REMARK    2  A    between atoms: C_11  and  C_12 
REMARK       I    between atoms: C_12  and  N_13 
REMARK    3  A    between atoms: N_13  and  C_14 
REMARK    4  A    between atoms: C_16  and  O_17 
REMARK    5  A    between atoms: C_23  and  C_24 
ROOT
HETATM    1  C   UNL     1      42.439 -17.189   4.375  1.00  0.00     0.118 C 
HETATM    2  N   UNL     1      41.104 -16.940   3.821  1.00  0.00    -0.366 N 
HETATM    3  C   UNL     1      40.751 -15.743   3.308  1.00  0.00     0.123 A 
HETATM    4  N   UNL     1      41.479 -14.621   3.580  1.00  0.00    -0.240 N 
HETATM    5  N   UNL     1      41.102 -13.538   2.876  1.00  0.00    -0.165 NA
HETATM    6  C   UNL     1      40.014 -13.976   2.196  1.00  0.00     0.148 A 
HETATM    7  C   UNL     1      39.742 -15.345   2.475  1.00  0.00     0.089 A 
HETATM    8  C   UNL     1      42.670 -14.639   4.404  1.00  0.00     0.221 C 
HETATM    9  C   UNL     1      43.385 -15.980   4.194  1.00  0.00     0.066 C 
HETATM   10  H   UNL     1      40.570 -17.781   3.600  1.00  0.00     0.161 HD
ENDROOT
BRANCH   6  11
HETATM   11  C   UNL     1      39.283 -13.108   1.252  1.00  0.00     0.276 C 
HETATM   12  N   UNL     1      38.234 -12.457   1.868  1.00  0.00    -0.322 N 
HETATM   13  H   UNL     1      38.120 -12.712   2.847  1.00  0.00     0.169 HD
HETATM   14  O   UNL     1      39.629 -13.001   0.081  1.00  0.00    -0.266 OA
BRANCH  12  15
HETATM   15  C   UNL     1      37.368 -11.488   1.332  1.00  0.00     0.037 A 
HETATM   16  C   UNL     1      37.475 -10.121   1.596  1.00  0.00     0.066 A 
HETATM   17  C   UNL     1      36.558  -9.234   1.035  1.00  0.00     0.067 A 
HETATM   18  C   UNL     1      35.535  -9.685   0.210  1.00  0.00     0.036 A 
HETATM   19  C   UNL     1      35.424 -11.046  -0.060  1.00  0.00     0.005 A 
HETATM   20  C   UNL     1      36.338 -11.944   0.499  1.00  0.00     0.029 A 
BRANCH  17  21
HETATM   21  O   UNL     1      36.630  -7.893   1.278  1.00  0.00    -0.361 OA
HETATM   22  H   UNL     1      36.448  -7.421   0.447  1.00  0.00     0.217 HD
ENDBRANCH  17  21
ENDBRANCH  12  15
ENDBRANCH   6  11
BRANCH   8  23
HETATM   23  C   UNL     1      42.312 -14.383   5.849  1.00  0.00     0.409 C 
HETATM   24  F   UNL     1      41.012 -14.646   6.109  1.00  0.00    -0.169 F 
HETATM   25  F   UNL     1      43.058 -15.081   6.729  1.00  0.00    -0.169 F 
HETATM   26  F   UNL     1      42.503 -13.069   6.139  1.00  0.00    -0.169 F 
ENDBRANCH   8  23
BRANCH   1  27
HETATM   27  C   UNL     1      43.037 -18.420   3.714  1.00  0.00    -0.035 A 
HETATM   28  C   UNL     1      43.962 -19.230   4.396  1.00  0.00     0.010 A 
HETATM   29  C   UNL     1      44.492 -20.375   3.798  1.00  0.00     0.007 A 
HETATM   30  C   UNL     1      44.113 -20.734   2.502  1.00  0.00    -0.062 A 
HETATM   31  C   UNL     1      44.653 -21.985   1.874  1.00  0.00     0.048 C 
HETATM   32  C   UNL     1      43.178 -19.944   1.824  1.00  0.00     0.007 A 
HETATM   33  C   UNL     1      42.648 -18.796   2.421  1.00  0.00     0.010 A 
ENDBRANCH   1  27
TORSDOF 5
ENDMDL
