MODEL 1
REMARK VINA RESULT:      -9.4      0.000      0.000
REMARK  8 active torsions:
REMARK  status: ('A' for Active; 'I' for Inactive)
REMARK    1  A    between atoms: C_7  and  C_8 
REMARK    2  A    between atoms: C_8  and  O_9 
REMARK    3  A    between atoms: O_9  and  C_10 
REMARK    4  A    between atoms: C_12  and  C_13 
REMARK       I    between atoms: C_13  and  N_14 
REMARK    5  A    between atoms: N_14  and  C_15 
REMARK    6  A    between atoms: C_15  and  C_16 
REMARK    7  A    between atoms: C_19  and  C_20 
REMARK    8  A    between atoms: C_20  and  N_21 
ROOT
HETATM    1  C   UNL     1      44.088 -14.355   6.290  1.00  0.00     0.252 C 
HETATM    2  N   UNL     1      44.242 -14.105   7.639  1.00  0.00    -0.353 N 
HETATM    3  O   UNL     1      44.632 -13.693   5.416  1.00  0.00    -0.268 OA
HETATM    4  H   UNL     1      43.672 -14.593   8.314  1.00  0.00     0.163 HD
ENDROOT
BRANCH   1   5
HETATM    5  C   UNL     1      43.180 -15.477   5.926  1.00  0.00     0.034 A 
HETATM    6  C   UNL     1      43.692 -16.780   5.942  1.00  0.00     0.053 A 
HETATM    7  C   UNL     1      42.870 -17.870   5.647  1.00  0.00     0.070 A 
HETATM    8  C   UNL     1      41.532 -17.654   5.315  1.00  0.00     0.037 A 
HETATM    9  C   UNL     1      41.013 -16.356   5.308  1.00  0.00     0.004 A 
HETATM   10  C   UNL     1      41.830 -15.269   5.620  1.00  0.00     0.017 A 
BRANCH   7  11
HETATM   11  O   UNL     1      43.489 -19.087   5.696  1.00  0.00    -0.346 OA
BRANCH  11  12
HETATM   12  C   UNL     1      44.665 -19.243   4.895  1.00  0.00     0.219 C 
BRANCH  12  13
HETATM   13  C   UNL     1      44.451 -20.283   3.853  1.00  0.00     0.024 A 
HETATM   14  C   UNL     1      44.672 -21.684   3.935  1.00  0.00     0.069 A 
HETATM   15  C   UNL     1      45.169 -22.477   5.084  1.00  0.00     0.073 C 
HETATM   16  N   UNL     1      44.371 -22.296   2.784  1.00  0.00    -0.133 NA
HETATM   17  O   UNL     1      43.948 -21.301   1.926  1.00  0.00    -0.217 OA
HETATM   18  C   UNL     1      44.000 -20.102   2.562  1.00  0.00     0.085 A 
HETATM   19  C   UNL     1      43.577 -18.924   1.781  1.00  0.00     0.079 C 
ENDBRANCH  12  13
ENDBRANCH  11  12
ENDBRANCH   7  11
ENDBRANCH   1   5
BRANCH   2  20
HETATM   20  C   UNL     1      45.166 -13.104   8.118  1.00  0.00     0.161 C 
BRANCH  20  21
HETATM   21  C   UNL     1      44.570 -12.077   9.058  1.00  0.00    -0.041 A 
HETATM   22  C   UNL     1      43.356 -11.424   8.818  1.00  0.00     0.009 A 
HETATM   23  C   UNL     1      42.870 -10.463   9.712  1.00  0.00     0.009 A 
HETATM   24  C   UNL     1      43.590 -10.135  10.869  1.00  0.00    -0.033 A 
HETATM   25  C   UNL     1      44.790 -10.809  11.129  1.00  0.00     0.009 A 
HETATM   26  C   UNL     1      45.271 -11.769  10.236  1.00  0.00     0.009 A 
BRANCH  24  27
HETATM   27  C   UNL     1      43.084  -9.079  11.812  1.00  0.00     0.273 C 
BRANCH  27  28
HETATM   28  N   UNL     1      42.019  -9.586  12.748  1.00  0.00    -0.067 N 
HETATM   29  H   UNL     1      41.429 -10.221  12.196  1.00  0.00     0.280 HD
HETATM   30  C   UNL     1      41.125  -8.492  13.299  1.00  0.00     0.235 C 
HETATM   31  C   UNL     1      41.386  -8.503  14.792  1.00  0.00     0.029 C 
HETATM   32  C   UNL     1      41.656  -9.964  15.083  1.00  0.00     0.029 C 
HETATM   33  C   UNL     1      42.550 -10.376  13.929  1.00  0.00     0.235 C 
ENDBRANCH  27  28
ENDBRANCH  24  27
ENDBRANCH  20  21
ENDBRANCH   2  20
TORSDOF 8
ENDMDL
MODEL 2
REMARK VINA RESULT:      -9.3      1.285      2.274
REMARK  8 active torsions:
REMARK  status: ('A' for Active; 'I' for Inactive)
REMARK    1  A    between atoms: C_7  and  C_8 
REMARK    2  A    between atoms: C_8  and  O_9 
REMARK    3  A    between atoms: O_9  and  C_10 
REMARK    4  A    between atoms: C_12  and  C_13 
REMARK       I    between atoms: C_13  and  N_14 
REMARK    5  A    between atoms: N_14  and  C_15 
REMARK    6  A    between atoms: C_15  and  C_16 
REMARK    7  A    between atoms: C_19  and  C_20 
REMARK    8  A    between atoms: C_20  and  N_21 
ROOT
HETATM    1  C   UNL     1      44.694 -13.947   7.028  1.00  0.00     0.252 C 
HETATM    2  N   UNL     1      44.203 -13.216   8.091  1.00  0.00    -0.353 N 
HETATM    3  O   UNL     1      45.819 -13.796   6.569  1.00  0.00    -0.268 OA
HETATM    4  H   UNL     1      43.229 -13.284   8.348  1.00  0.00     0.163 HD
ENDROOT
BRANCH   1   5
HETATM    5  C   UNL     1      43.763 -14.937   6.421  1.00  0.00     0.034 A 
HETATM    6  C   UNL     1      44.104 -16.293   6.477  1.00  0.00     0.053 A 
HETATM    7  C   UNL     1      43.244 -17.264   5.959  1.00  0.00     0.070 A 
HETATM    8  C   UNL     1      42.045 -16.874   5.361  1.00  0.00     0.037 A 
HETATM    9  C   UNL     1      41.694 -15.522   5.312  1.00  0.00     0.004 A 
HETATM   10  C   UNL     1      42.546 -14.554   5.847  1.00  0.00     0.017 A 
BRANCH   7  11
HETATM   11  O   UNL     1      43.691 -18.550   6.073  1.00  0.00    -0.346 OA
BRANCH  11  12
HETATM   12  C   UNL     1      44.903 -18.873   5.383  1.00  0.00     0.219 C 
BRANCH  12  13
HETATM   13  C   UNL     1      44.619 -19.751   4.217  1.00  0.00     0.024 A 
HETATM   14  C   UNL     1      44.192 -19.387   2.911  1.00  0.00     0.069 A 
HETATM   15  C   UNL     1      43.925 -18.034   2.369  1.00  0.00     0.073 C 
HETATM   16  N   UNL     1      44.032 -20.461   2.130  1.00  0.00    -0.133 NA
HETATM   17  O   UNL     1      44.350 -21.550   2.916  1.00  0.00    -0.217 OA
HETATM   18  C   UNL     1      44.696 -21.126   4.159  1.00  0.00     0.085 A 
HETATM   19  C   UNL     1      45.068 -22.173   5.131  1.00  0.00     0.079 C 
ENDBRANCH  12  13
ENDBRANCH  11  12
ENDBRANCH   7  11
ENDBRANCH   1   5
BRANCH   2  20
HETATM   20  C   UNL     1      45.041 -12.291   8.820  1.00  0.00     0.161 C 
BRANCH  20  21
HETATM   21  C   UNL     1      44.463 -11.795  10.129  1.00  0.00    -0.041 A 
HETATM   22  C   UNL     1      44.180 -12.633  11.214  1.00  0.00     0.009 A 
HETATM   23  C   UNL     1      43.620 -12.119  12.389  1.00  0.00     0.009 A 
HETATM   24  C   UNL     1      43.335 -10.751  12.505  1.00  0.00    -0.033 A 
HETATM   25  C   UNL     1      43.646  -9.905  11.433  1.00  0.00     0.009 A 
HETATM   26  C   UNL     1      44.206 -10.422  10.263  1.00  0.00     0.009 A 
BRANCH  24  27
HETATM   27  C   UNL     1      42.703 -10.205  13.756  1.00  0.00     0.273 C 
BRANCH  27  28
HETATM   28  N   UNL     1      41.199 -10.158  13.685  1.00  0.00    -0.067 N 
HETATM   29  H   UNL     1      40.864 -10.226  14.654  1.00  0.00     0.280 HD
HETATM   30  C   UNL     1      40.593 -11.308  12.906  1.00  0.00     0.235 C 
HETATM   31  C   UNL     1      39.920 -10.650  11.718  1.00  0.00     0.029 C 
HETATM   32  C   UNL     1      39.454  -9.324  12.279  1.00  0.00     0.029 C 
HETATM   33  C   UNL     1      40.642  -8.872  13.106  1.00  0.00     0.235 C 
ENDBRANCH  27  28
ENDBRANCH  24  27
ENDBRANCH  20  21
ENDBRANCH   2  20
TORSDOF 8
ENDMDL
MODEL 3
REMARK VINA RESULT:      -8.7      5.202      9.417
REMARK  8 active torsions:
REMARK  status: ('A' for Active; 'I' for Inactive)
REMARK    1  A    between atoms: C_7  and  C_8 
REMARK    2  A    between atoms: C_8  and  O_9 
REMARK    3  A    between atoms: O_9  and  C_10 
REMARK    4  A    between atoms: C_12  and  C_13 
REMARK       I    between atoms: C_13  and  N_14 
REMARK    5  A    between atoms: N_14  and  C_15 
REMARK    6  A    between atoms: C_15  and  C_16 
REMARK    7  A    between atoms: C_19  and  C_20 
REMARK    8  A    between atoms: C_20  and  N_21 
ROOT
HETATM    1  C   UNL     1      41.369 -14.715   4.108  1.00  0.00     0.252 C 
HETATM    2  N   UNL     1      40.513 -15.497   3.359  1.00  0.00    -0.353 N 
HETATM    3  O   UNL     1      41.399 -13.492   4.039  1.00  0.00    -0.268 OA
HETATM    4  H   UNL     1      40.617 -16.501   3.354  1.00  0.00     0.163 HD
ENDROOT
BRANCH   1   5
HETATM    5  C   UNL     1      42.306 -15.438   5.011  1.00  0.00     0.034 A 
HETATM    6  C   UNL     1      42.459 -16.819   4.843  1.00  0.00     0.053 A 
HETATM    7  C   UNL     1      43.357 -17.536   5.638  1.00  0.00     0.070 A 
HETATM    8  C   UNL     1      44.089 -16.870   6.621  1.00  0.00     0.037 A 
HETATM    9  C   UNL     1      43.948 -15.489   6.786  1.00  0.00     0.004 A 
HETATM   10  C   UNL     1      43.064 -14.771   5.979  1.00  0.00     0.017 A 
BRANCH   7  11
HETATM   11  O   UNL     1      43.414 -18.875   5.377  1.00  0.00    -0.346 OA
BRANCH  11  12
HETATM   12  C   UNL     1      44.667 -19.386   4.906  1.00  0.00     0.219 C 
BRANCH  12  13
HETATM   13  C   UNL     1      44.453 -20.327   3.775  1.00  0.00     0.024 A 
HETATM   14  C   UNL     1      44.612 -21.739   3.750  1.00  0.00     0.069 A 
HETATM   15  C   UNL     1      45.028 -22.643   4.847  1.00  0.00     0.073 C 
HETATM   16  N   UNL     1      44.334 -22.242   2.542  1.00  0.00    -0.133 NA
HETATM   17  O   UNL     1      43.988 -21.163   1.754  1.00  0.00    -0.217 OA
HETATM   18  C   UNL     1      44.063 -20.023   2.488  1.00  0.00     0.085 A 
HETATM   19  C   UNL     1      43.722 -18.768   1.791  1.00  0.00     0.079 C 
ENDBRANCH  12  13
ENDBRANCH  11  12
ENDBRANCH   7  11
ENDBRANCH   1   5
BRANCH   2  20
HETATM   20  C   UNL     1      39.498 -14.909   2.516  1.00  0.00     0.161 C 
BRANCH  20  21
HETATM   21  C   UNL     1      39.859 -14.809   1.049  1.00  0.00    -0.041 A 
HETATM   22  C   UNL     1      39.171 -13.997   0.139  1.00  0.00     0.009 A 
HETATM   23  C   UNL     1      39.534 -13.968  -1.212  1.00  0.00     0.009 A 
HETATM   24  C   UNL     1      40.598 -14.751  -1.683  1.00  0.00    -0.033 A 
HETATM   25  C   UNL     1      41.307 -15.541  -0.770  1.00  0.00     0.009 A 
HETATM   26  C   UNL     1      40.944 -15.566   0.578  1.00  0.00     0.009 A 
BRANCH  24  27
HETATM   27  C   UNL     1      40.966 -14.744  -3.141  1.00  0.00     0.273 C 
BRANCH  27  28
HETATM   28  N   UNL     1      41.754 -13.526  -3.544  1.00  0.00    -0.067 N 
HETATM   29  H   UNL     1      42.215 -13.763  -4.431  1.00  0.00     0.280 HD
HETATM   30  C   UNL     1      42.835 -13.147  -2.551  1.00  0.00     0.235 C 
HETATM   31  C   UNL     1      42.419 -11.783  -2.038  1.00  0.00     0.029 C 
HETATM   32  C   UNL     1      41.749 -11.153  -3.240  1.00  0.00     0.029 C 
HETATM   33  C   UNL     1      40.910 -12.290  -3.792  1.00  0.00     0.235 C 
ENDBRANCH  27  28
ENDBRANCH  24  27
ENDBRANCH  20  21
ENDBRANCH   2  20
TORSDOF 8
ENDMDL
MODEL 4
REMARK VINA RESULT:      -8.7      5.018      9.560
REMARK  8 active torsions:
REMARK  status: ('A' for Active; 'I' for Inactive)
REMARK    1  A    between atoms: C_7  and  C_8 
REMARK    2  A    between atoms: C_8  and  O_9 
REMARK    3  A    between atoms: O_9  and  C_10 
REMARK    4  A    between atoms: C_12  and  C_13 
REMARK       I    between atoms: C_13  and  N_14 
REMARK    5  A    between atoms: N_14  and  C_15 
REMARK    6  A    between atoms: C_15  and  C_16 
REMARK    7  A    between atoms: C_19  and  C_20 
REMARK    8  A    between atoms: C_20  and  N_21 
ROOT
HETATM    1  C   UNL     1      43.065 -14.123   3.814  1.00  0.00     0.252 C 
HETATM    2  N   UNL     1      41.747 -13.919   3.455  1.00  0.00    -0.353 N 
HETATM    3  O   UNL     1      44.006 -13.561   3.268  1.00  0.00    -0.268 OA
HETATM    4  H   UNL     1      41.019 -14.500   3.844  1.00  0.00     0.163 HD
ENDROOT
BRANCH   1   5
HETATM    5  C   UNL     1      43.308 -15.105   4.906  1.00  0.00     0.034 A 
HETATM    6  C   UNL     1      43.248 -16.469   4.599  1.00  0.00     0.053 A 
HETATM    7  C   UNL     1      43.509 -17.430   5.579  1.00  0.00     0.070 A 
HETATM    8  C   UNL     1      43.811 -17.023   6.879  1.00  0.00     0.037 A 
HETATM    9  C   UNL     1      43.882 -15.662   7.188  1.00  0.00     0.004 A 
HETATM   10  C   UNL     1      43.640 -14.703   6.204  1.00  0.00     0.017 A 
BRANCH   7  11
HETATM   11  O   UNL     1      43.418 -18.725   5.154  1.00  0.00    -0.346 OA
BRANCH  11  12
HETATM   12  C   UNL     1      44.639 -19.358   4.753  1.00  0.00     0.219 C 
BRANCH  12  13
HETATM   13  C   UNL     1      44.390 -20.305   3.634  1.00  0.00     0.024 A 
HETATM   14  C   UNL     1      44.515 -21.721   3.621  1.00  0.00     0.069 A 
HETATM   15  C   UNL     1      44.921 -22.624   4.724  1.00  0.00     0.073 C 
HETATM   16  N   UNL     1      44.213 -22.229   2.421  1.00  0.00    -0.133 NA
HETATM   17  O   UNL     1      43.885 -21.150   1.626  1.00  0.00    -0.217 OA
HETATM   18  C   UNL     1      43.995 -20.005   2.348  1.00  0.00     0.085 A 
HETATM   19  C   UNL     1      43.677 -18.749   1.642  1.00  0.00     0.079 C 
ENDBRANCH  12  13
ENDBRANCH  11  12
ENDBRANCH   7  11
ENDBRANCH   1   5
BRANCH   2  20
HETATM   20  C   UNL     1      41.379 -12.925   2.474  1.00  0.00     0.161 C 
BRANCH  20  21
HETATM   21  C   UNL     1      41.316 -13.423   1.046  1.00  0.00    -0.041 A 
HETATM   22  C   UNL     1      40.845 -14.692   0.692  1.00  0.00     0.009 A 
HETATM   23  C   UNL     1      40.836 -15.107  -0.644  1.00  0.00     0.009 A 
HETATM   24  C   UNL     1      41.297 -14.256  -1.659  1.00  0.00    -0.033 A 
HETATM   25  C   UNL     1      41.740 -12.974  -1.312  1.00  0.00     0.009 A 
HETATM   26  C   UNL     1      41.746 -12.563   0.023  1.00  0.00     0.009 A 
BRANCH  24  27
HETATM   27  C   UNL     1      41.318 -14.715  -3.091  1.00  0.00     0.273 C 
BRANCH  27  28
HETATM   28  N   UNL     1      39.995 -14.536  -3.787  1.00  0.00    -0.067 N 
HETATM   29  H   UNL     1      40.212 -14.222  -4.741  1.00  0.00     0.280 HD
HETATM   30  C   UNL     1      39.111 -13.484  -3.147  1.00  0.00     0.235 C 
HETATM   31  C   UNL     1      37.899 -14.251  -2.658  1.00  0.00     0.029 C 
HETATM   32  C   UNL     1      37.747 -15.347  -3.691  1.00  0.00     0.029 C 
HETATM   33  C   UNL     1      39.176 -15.807  -3.907  1.00  0.00     0.235 C 
ENDBRANCH  27  28
ENDBRANCH  24  27
ENDBRANCH  20  21
ENDBRANCH   2  20
TORSDOF 8
ENDMDL
MODEL 5
REMARK VINA RESULT:      -8.6      4.747      9.144
REMARK  8 active torsions:
REMARK  status: ('A' for Active; 'I' for Inactive)
REMARK    1  A    between atoms: C_7  and  C_8 
REMARK    2  A    between atoms: C_8  and  O_9 
REMARK    3  A    between atoms: O_9  and  C_10 
REMARK    4  A    between atoms: C_12  and  C_13 
REMARK       I    between atoms: C_13  and  N_14 
REMARK    5  A    between atoms: N_14  and  C_15 
REMARK    6  A    between atoms: C_15  and  C_16 
REMARK    7  A    between atoms: C_19  and  C_20 
REMARK    8  A    between atoms: C_20  and  N_21 
ROOT
HETATM    1  C   UNL     1      42.878 -13.686   5.365  1.00  0.00     0.252 C 
HETATM    2  N   UNL     1      42.875 -14.383   6.557  1.00  0.00    -0.353 N 
HETATM    3  O   UNL     1      43.864 -13.585   4.646  1.00  0.00    -0.268 OA
HETATM    4  H   UNL     1      42.080 -14.328   7.176  1.00  0.00     0.163 HD
ENDROOT
BRANCH   1   5
HETATM    5  C   UNL     1      41.603 -13.014   4.990  1.00  0.00     0.034 A 
HETATM    6  C   UNL     1      41.049 -13.292   3.735  1.00  0.00     0.053 A 
HETATM    7  C   UNL     1      39.834 -12.718   3.353  1.00  0.00     0.070 A 
HETATM    8  C   UNL     1      39.180 -11.845   4.224  1.00  0.00     0.037 A 
HETATM    9  C   UNL     1      39.724 -11.573   5.482  1.00  0.00     0.004 A 
HETATM   10  C   UNL     1      40.929 -12.161   5.870  1.00  0.00     0.017 A 
BRANCH   7  11
HETATM   11  O   UNL     1      39.399 -13.067   2.106  1.00  0.00    -0.346 OA
BRANCH  11  12
HETATM   12  C   UNL     1      39.067 -14.445   1.902  1.00  0.00     0.219 C 
BRANCH  12  13
HETATM   13  C   UNL     1      40.059 -15.091   1.002  1.00  0.00     0.024 A 
HETATM   14  C   UNL     1      40.943 -16.169   1.279  1.00  0.00     0.069 A 
HETATM   15  C   UNL     1      41.104 -16.933   2.538  1.00  0.00     0.073 C 
HETATM   16  N   UNL     1      41.696 -16.470   0.216  1.00  0.00    -0.133 NA
HETATM   17  O   UNL     1      41.317 -15.591  -0.778  1.00  0.00    -0.217 OA
HETATM   18  C   UNL     1      40.345 -14.768  -0.307  1.00  0.00     0.085 A 
HETATM   19  C   UNL     1      39.822 -13.760  -1.250  1.00  0.00     0.079 C 
ENDBRANCH  12  13
ENDBRANCH  11  12
ENDBRANCH   7  11
ENDBRANCH   1   5
BRANCH   2  20
HETATM   20  C   UNL     1      44.022 -15.151   6.982  1.00  0.00     0.161 C 
BRANCH  20  21
HETATM   21  C   UNL     1      44.063 -16.579   6.480  1.00  0.00    -0.041 A 
HETATM   22  C   UNL     1      42.938 -17.261   6.002  1.00  0.00     0.009 A 
HETATM   23  C   UNL     1      43.033 -18.590   5.577  1.00  0.00     0.009 A 
HETATM   24  C   UNL     1      44.260 -19.268   5.618  1.00  0.00    -0.033 A 
HETATM   25  C   UNL     1      45.393 -18.579   6.067  1.00  0.00     0.009 A 
HETATM   26  C   UNL     1      45.295 -17.251   6.489  1.00  0.00     0.009 A 
BRANCH  24  27
HETATM   27  C   UNL     1      44.354 -20.706   5.192  1.00  0.00     0.273 C 
BRANCH  27  28
HETATM   28  N   UNL     1      44.824 -20.871   3.770  1.00  0.00    -0.067 N 
HETATM   29  H   UNL     1      45.846 -20.765   3.791  1.00  0.00     0.280 HD
HETATM   30  C   UNL     1      44.273 -19.822   2.825  1.00  0.00     0.235 C 
HETATM   31  C   UNL     1      43.423 -20.604   1.842  1.00  0.00     0.029 C 
HETATM   32  C   UNL     1      44.157 -21.923   1.728  1.00  0.00     0.029 C 
HETATM   33  C   UNL     1      44.524 -22.230   3.167  1.00  0.00     0.235 C 
ENDBRANCH  27  28
ENDBRANCH  24  27
ENDBRANCH  20  21
ENDBRANCH   2  20
TORSDOF 8
ENDMDL
MODEL 6
REMARK VINA RESULT:      -8.4      5.244      9.721
REMARK  8 active torsions:
REMARK  status: ('A' for Active; 'I' for Inactive)
REMARK    1  A    between atoms: C_7  and  C_8 
REMARK    2  A    between atoms: C_8  and  O_9 
REMARK    3  A    between atoms: O_9  and  C_10 
REMARK    4  A    between atoms: C_12  and  C_13 
REMARK       I    between atoms: C_13  and  N_14 
REMARK    5  A    between atoms: N_14  and  C_15 
REMARK    6  A    between atoms: C_15  and  C_16 
REMARK    7  A    between atoms: C_19  and  C_20 
REMARK    8  A    between atoms: C_20  and  N_21 
ROOT
HETATM    1  C   UNL     1      42.905 -13.779   4.352  1.00  0.00     0.252 C 
HETATM    2  N   UNL     1      42.506 -14.390   5.524  1.00  0.00    -0.353 N 
HETATM    3  O   UNL     1      44.079 -13.620   4.041  1.00  0.00    -0.268 OA
HETATM    4  H   UNL     1      41.533 -14.379   5.796  1.00  0.00     0.163 HD
ENDROOT
BRANCH   1   5
HETATM    5  C   UNL     1      41.820 -13.278   3.465  1.00  0.00     0.034 A 
HETATM    6  C   UNL     1      41.452 -14.053   2.359  1.00  0.00     0.053 A 
HETATM    7  C   UNL     1      40.412 -13.646   1.520  1.00  0.00     0.070 A 
HETATM    8  C   UNL     1      39.750 -12.445   1.777  1.00  0.00     0.037 A 
HETATM    9  C   UNL     1      40.106 -11.672   2.886  1.00  0.00     0.004 A 
HETATM   10  C   UNL     1      41.133 -12.089   3.734  1.00  0.00     0.017 A 
BRANCH   7  11
HETATM   11  O   UNL     1      40.151 -14.488   0.477  1.00  0.00    -0.346 OA
BRANCH  11  12
HETATM   12  C   UNL     1      41.282 -14.987  -0.246  1.00  0.00     0.219 C 
BRANCH  12  13
HETATM   13  C   UNL     1      41.378 -14.332  -1.578  1.00  0.00     0.024 A 
HETATM   14  C   UNL     1      40.922 -14.806  -2.838  1.00  0.00     0.069 A 
HETATM   15  C   UNL     1      40.227 -16.076  -3.152  1.00  0.00     0.073 C 
HETATM   16  N   UNL     1      41.197 -13.937  -3.817  1.00  0.00    -0.133 NA
HETATM   17  O   UNL     1      41.840 -12.876  -3.212  1.00  0.00    -0.217 OA
HETATM   18  C   UNL     1      41.951 -13.115  -1.879  1.00  0.00     0.085 A 
HETATM   19  C   UNL     1      42.619 -12.071  -1.077  1.00  0.00     0.079 C 
ENDBRANCH  12  13
ENDBRANCH  11  12
ENDBRANCH   7  11
ENDBRANCH   1   5
BRANCH   2  20
HETATM   20  C   UNL     1      43.461 -14.997   6.421  1.00  0.00     0.161 C 
BRANCH  20  21
HETATM   21  C   UNL     1      43.742 -16.462   6.165  1.00  0.00    -0.041 A 
HETATM   22  C   UNL     1      44.959 -17.080   6.478  1.00  0.00     0.009 A 
HETATM   23  C   UNL     1      45.169 -18.434   6.193  1.00  0.00     0.009 A 
HETATM   24  C   UNL     1      44.163 -19.201   5.588  1.00  0.00    -0.033 A 
HETATM   25  C   UNL     1      42.934 -18.594   5.302  1.00  0.00     0.009 A 
HETATM   26  C   UNL     1      42.727 -17.243   5.590  1.00  0.00     0.009 A 
BRANCH  24  27
HETATM   27  C   UNL     1      44.402 -20.647   5.252  1.00  0.00     0.273 C 
BRANCH  27  28
HETATM   28  N   UNL     1      44.882 -20.852   3.839  1.00  0.00    -0.067 N 
HETATM   29  H   UNL     1      45.907 -20.788   3.872  1.00  0.00     0.280 HD
HETATM   30  C   UNL     1      44.387 -19.797   2.871  1.00  0.00     0.235 C 
HETATM   31  C   UNL     1      43.519 -20.559   1.889  1.00  0.00     0.029 C 
HETATM   32  C   UNL     1      44.200 -21.908   1.804  1.00  0.00     0.029 C 
HETATM   33  C   UNL     1      44.535 -22.207   3.252  1.00  0.00     0.235 C 
ENDBRANCH  27  28
ENDBRANCH  24  27
ENDBRANCH  20  21
ENDBRANCH   2  20
TORSDOF 8
ENDMDL
MODEL 7
REMARK VINA RESULT:      -8.3      5.787     10.173
REMARK  8 active torsions:
REMARK  status: ('A' for Active; 'I' for Inactive)
REMARK    1  A    between atoms: C_7  and  C_8 
REMARK    2  A    between atoms: C_8  and  O_9 
REMARK    3  A    between atoms: O_9  and  C_10 
REMARK    4  A    between atoms: C_12  and  C_13 
REMARK       I    between atoms: C_13  and  N_14 
REMARK    5  A    between atoms: N_14  and  C_15 
REMARK    6  A    between atoms: C_15  and  C_16 
REMARK    7  A    between atoms: C_19  and  C_20 
REMARK    8  A    between atoms: C_20  and  N_21 
ROOT
HETATM    1  C   UNL     1      41.033 -14.081   2.960  1.00  0.00     0.252 C 
HETATM    2  N   UNL     1      40.581 -14.333   4.239  1.00  0.00    -0.353 N 
HETATM    3  O   UNL     1      42.220 -13.992   2.670  1.00  0.00    -0.268 OA
HETATM    4  H   UNL     1      39.596 -14.267   4.452  1.00  0.00     0.163 HD
ENDROOT
BRANCH   1   5
HETATM    5  C   UNL     1      39.990 -13.886   1.916  1.00  0.00     0.034 A 
HETATM    6  C   UNL     1      40.279 -13.046   0.835  1.00  0.00     0.053 A 
HETATM    7  C   UNL     1      39.349 -12.862  -0.191  1.00  0.00     0.070 A 
HETATM    8  C   UNL     1      38.113 -13.506  -0.123  1.00  0.00     0.037 A 
HETATM    9  C   UNL     1      37.823 -14.355   0.949  1.00  0.00     0.004 A 
HETATM   10  C   UNL     1      38.761 -14.552   1.964  1.00  0.00     0.017 A 
BRANCH   7  11
HETATM   11  O   UNL     1      39.750 -12.019  -1.188  1.00  0.00    -0.346 OA
BRANCH  11  12
HETATM   12  C   UNL     1      39.267 -12.304  -2.505  1.00  0.00     0.219 C 
BRANCH  12  13
HETATM   13  C   UNL     1      39.917 -13.528  -3.044  1.00  0.00     0.024 A 
HETATM   14  C   UNL     1      39.313 -14.730  -3.503  1.00  0.00     0.069 A 
HETATM   15  C   UNL     1      37.873 -15.074  -3.569  1.00  0.00     0.073 C 
HETATM   16  N   UNL     1      40.229 -15.615  -3.908  1.00  0.00    -0.133 NA
HETATM   17  O   UNL     1      41.453 -15.006  -3.720  1.00  0.00    -0.217 OA
HETATM   18  C   UNL     1      41.266 -13.765  -3.201  1.00  0.00     0.085 A 
HETATM   19  C   UNL     1      42.483 -12.972  -2.938  1.00  0.00     0.079 C 
ENDBRANCH  12  13
ENDBRANCH  11  12
ENDBRANCH   7  11
ENDBRANCH   1   5
BRANCH   2  20
HETATM   20  C   UNL     1      41.496 -14.630   5.317  1.00  0.00     0.161 C 
BRANCH  20  21
HETATM   21  C   UNL     1      42.127 -16.006   5.264  1.00  0.00    -0.041 A 
HETATM   22  C   UNL     1      41.408 -17.174   4.988  1.00  0.00     0.009 A 
HETATM   23  C   UNL     1      42.042 -18.421   4.981  1.00  0.00     0.009 A 
HETATM   24  C   UNL     1      43.415 -18.526   5.249  1.00  0.00    -0.033 A 
HETATM   25  C   UNL     1      44.143 -17.356   5.495  1.00  0.00     0.009 A 
HETATM   26  C   UNL     1      43.507 -16.113   5.499  1.00  0.00     0.009 A 
BRANCH  24  27
HETATM   27  C   UNL     1      44.089 -19.869   5.273  1.00  0.00     0.273 C 
BRANCH  27  28
HETATM   28  N   UNL     1      44.725 -20.234   3.957  1.00  0.00    -0.067 N 
HETATM   29  H   UNL     1      45.719 -19.991   4.041  1.00  0.00     0.280 HD
HETATM   30  C   UNL     1      44.161 -19.467   2.778  1.00  0.00     0.235 C 
HETATM   31  C   UNL     1      43.519 -20.527   1.906  1.00  0.00     0.029 C 
HETATM   32  C   UNL     1      44.408 -21.733   2.120  1.00  0.00     0.029 C 
HETATM   33  C   UNL     1      44.651 -21.711   3.617  1.00  0.00     0.235 C 
ENDBRANCH  27  28
ENDBRANCH  24  27
ENDBRANCH  20  21
ENDBRANCH   2  20
TORSDOF 8
ENDMDL
MODEL 8
REMARK VINA RESULT:      -8.3      2.226      2.971
REMARK  8 active torsions:
REMARK  status: ('A' for Active; 'I' for Inactive)
REMARK    1  A    between atoms: C_7  and  C_8 
REMARK    2  A    between atoms: C_8  and  O_9 
REMARK    3  A    between atoms: O_9  and  C_10 
REMARK    4  A    between atoms: C_12  and  C_13 
REMARK       I    between atoms: C_13  and  N_14 
REMARK    5  A    between atoms: N_14  and  C_15 
REMARK    6  A    between atoms: C_15  and  C_16 
REMARK    7  A    between atoms: C_19  and  C_20 
REMARK    8  A    between atoms: C_20  and  N_21 
ROOT
HETATM    1  C   UNL     1      41.787 -13.506   5.177  1.00  0.00     0.252 C 
HETATM    2  N   UNL     1      41.161 -12.763   6.157  1.00  0.00    -0.353 N 
HETATM    3  O   UNL     1      42.504 -13.015   4.314  1.00  0.00    -0.268 OA
HETATM    4  H   UNL     1      40.478 -13.194   6.763  1.00  0.00     0.163 HD
ENDROOT
BRANCH   1   5
HETATM    5  C   UNL     1      41.524 -14.971   5.189  1.00  0.00     0.034 A 
HETATM    6  C   UNL     1      42.019 -15.745   4.133  1.00  0.00     0.053 A 
HETATM    7  C   UNL     1      41.834 -17.129   4.119  1.00  0.00     0.070 A 
HETATM    8  C   UNL     1      41.132 -17.741   5.158  1.00  0.00     0.037 A 
HETATM    9  C   UNL     1      40.645 -16.974   6.221  1.00  0.00     0.004 A 
HETATM   10  C   UNL     1      40.846 -15.593   6.243  1.00  0.00     0.017 A 
BRANCH   7  11
HETATM   11  O   UNL     1      42.363 -17.770   3.034  1.00  0.00    -0.346 OA
BRANCH  11  12
HETATM   12  C   UNL     1      43.789 -17.886   2.988  1.00  0.00     0.219 C 
BRANCH  12  13
HETATM   13  C   UNL     1      44.233 -19.127   3.678  1.00  0.00     0.024 A 
HETATM   14  C   UNL     1      44.252 -20.460   3.187  1.00  0.00     0.069 A 
HETATM   15  C   UNL     1      43.840 -20.962   1.855  1.00  0.00     0.073 C 
HETATM   16  N   UNL     1      44.713 -21.314   4.108  1.00  0.00    -0.133 NA
HETATM   17  O   UNL     1      45.003 -20.551   5.220  1.00  0.00    -0.217 OA
HETATM   18  C   UNL     1      44.712 -19.250   4.965  1.00  0.00     0.085 A 
HETATM   19  C   UNL     1      44.966 -18.292   6.058  1.00  0.00     0.079 C 
ENDBRANCH  12  13
ENDBRANCH  11  12
ENDBRANCH   7  11
ENDBRANCH   1   5
BRANCH   2  20
HETATM   20  C   UNL     1      41.410 -11.348   6.304  1.00  0.00     0.161 C 
BRANCH  20  21
HETATM   21  C   UNL     1      41.062 -10.770   7.660  1.00  0.00    -0.041 A 
HETATM   22  C   UNL     1      41.825  -9.785   8.298  1.00  0.00     0.009 A 
HETATM   23  C   UNL     1      41.467  -9.310   9.564  1.00  0.00     0.009 A 
HETATM   24  C   UNL     1      40.333  -9.810  10.221  1.00  0.00    -0.033 A 
HETATM   25  C   UNL     1      39.550 -10.773   9.572  1.00  0.00     0.009 A 
HETATM   26  C   UNL     1      39.910 -11.244   8.307  1.00  0.00     0.009 A 
BRANCH  24  27
HETATM   27  C   UNL     1      39.968  -9.323  11.595  1.00  0.00     0.273 C 
BRANCH  27  28
HETATM   28  N   UNL     1      40.831  -9.913  12.679  1.00  0.00    -0.067 N 
HETATM   29  H   UNL     1      40.205 -10.111  13.469  1.00  0.00     0.280 HD
HETATM   30  C   UNL     1      41.912  -8.973  13.173  1.00  0.00     0.235 C 
HETATM   31  C   UNL     1      43.212  -9.658  12.803  1.00  0.00     0.029 C 
HETATM   32  C   UNL     1      42.876 -11.128  12.938  1.00  0.00     0.029 C 
HETATM   33  C   UNL     1      41.503 -11.219  12.300  1.00  0.00     0.235 C 
ENDBRANCH  27  28
ENDBRANCH  24  27
ENDBRANCH  20  21
ENDBRANCH   2  20
TORSDOF 8
ENDMDL
MODEL 9
REMARK VINA RESULT:      -8.3      4.836      9.025
REMARK  8 active torsions:
REMARK  status: ('A' for Active; 'I' for Inactive)
REMARK    1  A    between atoms: C_7  and  C_8 
REMARK    2  A    between atoms: C_8  and  O_9 
REMARK    3  A    between atoms: O_9  and  C_10 
REMARK    4  A    between atoms: C_12  and  C_13 
REMARK       I    between atoms: C_13  and  N_14 
REMARK    5  A    between atoms: N_14  and  C_15 
REMARK    6  A    between atoms: C_15  and  C_16 
REMARK    7  A    between atoms: C_19  and  C_20 
REMARK    8  A    between atoms: C_20  and  N_21 
ROOT
HETATM    1  C   UNL     1      43.065 -13.856   4.237  1.00  0.00     0.252 C 
HETATM    2  N   UNL     1      41.928 -13.110   4.476  1.00  0.00    -0.353 N 
HETATM    3  O   UNL     1      43.809 -13.664   3.284  1.00  0.00    -0.268 OA
HETATM    4  H   UNL     1      41.278 -13.390   5.196  1.00  0.00     0.163 HD
ENDROOT
BRANCH   1   5
HETATM    5  C   UNL     1      43.345 -14.959   5.197  1.00  0.00     0.034 A 
HETATM    6  C   UNL     1      43.228 -16.279   4.748  1.00  0.00     0.053 A 
HETATM    7  C   UNL     1      43.520 -17.348   5.598  1.00  0.00     0.070 A 
HETATM    8  C   UNL     1      43.911 -17.094   6.913  1.00  0.00     0.037 A 
HETATM    9  C   UNL     1      44.040 -15.778   7.364  1.00  0.00     0.004 A 
HETATM   10  C   UNL     1      43.766 -14.710   6.508  1.00  0.00     0.017 A 
BRANCH   7  11
HETATM   11  O   UNL     1      43.366 -18.586   5.041  1.00  0.00    -0.346 OA
BRANCH  11  12
HETATM   12  C   UNL     1      44.555 -19.364   4.865  1.00  0.00     0.219 C 
BRANCH  12  13
HETATM   13  C   UNL     1      44.384 -20.330   3.748  1.00  0.00     0.024 A 
HETATM   14  C   UNL     1      44.598 -21.735   3.745  1.00  0.00     0.069 A 
HETATM   15  C   UNL     1      45.042 -22.605   4.859  1.00  0.00     0.073 C 
HETATM   16  N   UNL     1      44.346 -22.267   2.543  1.00  0.00    -0.133 NA
HETATM   17  O   UNL     1      43.963 -21.214   1.737  1.00  0.00    -0.217 OA
HETATM   18  C   UNL     1      43.991 -20.061   2.454  1.00  0.00     0.085 A 
HETATM   19  C   UNL     1      43.605 -18.831   1.736  1.00  0.00     0.079 C 
ENDBRANCH  12  13
ENDBRANCH  11  12
ENDBRANCH   7  11
ENDBRANCH   1   5
BRANCH   2  20
HETATM   20  C   UNL     1      41.600 -11.959   3.668  1.00  0.00     0.161 C 
BRANCH  20  21
HETATM   21  C   UNL     1      40.946 -12.270   2.338  1.00  0.00    -0.041 A 
HETATM   22  C   UNL     1      41.286 -11.627   1.142  1.00  0.00     0.009 A 
HETATM   23  C   UNL     1      40.627 -11.938  -0.052  1.00  0.00     0.009 A 
HETATM   24  C   UNL     1      39.612 -12.906  -0.076  1.00  0.00    -0.033 A 
HETATM   25  C   UNL     1      39.291 -13.574   1.112  1.00  0.00     0.009 A 
HETATM   26  C   UNL     1      39.953 -13.261   2.302  1.00  0.00     0.009 A 
BRANCH  24  27
HETATM   27  C   UNL     1      38.882 -13.217  -1.353  1.00  0.00     0.273 C 
BRANCH  27  28
HETATM   28  N   UNL     1      39.096 -14.630  -1.826  1.00  0.00    -0.067 N 
HETATM   29  H   UNL     1      38.647 -15.238  -1.128  1.00  0.00     0.280 HD
HETATM   30  C   UNL     1      40.556 -15.027  -1.909  1.00  0.00     0.235 C 
HETATM   31  C   UNL     1      40.795 -15.295  -3.382  1.00  0.00     0.029 C 
HETATM   32  C   UNL     1      39.467 -15.852  -3.848  1.00  0.00     0.029 C 
HETATM   33  C   UNL     1      38.462 -14.942  -3.168  1.00  0.00     0.235 C 
ENDBRANCH  27  28
ENDBRANCH  24  27
ENDBRANCH  20  21
ENDBRANCH   2  20
TORSDOF 8
ENDMDL
MODEL 10
REMARK VINA RESULT:      -8.2      5.080      9.210
REMARK  8 active torsions:
REMARK  status: ('A' for Active; 'I' for Inactive)
REMARK    1  A    between atoms: C_7  and  C_8 
REMARK    2  A    between atoms: C_8  and  O_9 
REMARK    3  A    between atoms: O_9  and  C_10 
REMARK    4  A    between atoms: C_12  and  C_13 
REMARK       I    between atoms: C_13  and  N_14 
REMARK    5  A    between atoms: N_14  and  C_15 
REMARK    6  A    between atoms: C_15  and  C_16 
REMARK    7  A    between atoms: C_19  and  C_20 
REMARK    8  A    between atoms: C_20  and  N_21 
ROOT
HETATM    1  C   UNL     1      43.611 -15.031   5.509  1.00  0.00     0.252 C 
HETATM    2  N   UNL     1      42.911 -15.115   4.322  1.00  0.00    -0.353 N 
HETATM    3  O   UNL     1      44.217 -14.027   5.864  1.00  0.00    -0.268 OA
HETATM    4  H   UNL     1      42.540 -16.001   4.014  1.00  0.00     0.163 HD
ENDROOT
BRANCH   1   5
HETATM    5  C   UNL     1      43.628 -16.256   6.355  1.00  0.00     0.034 A 
HETATM    6  C   UNL     1      43.813 -17.494   5.729  1.00  0.00     0.053 A 
HETATM    7  C   UNL     1      43.878 -18.668   6.483  1.00  0.00     0.070 A 
HETATM    8  C   UNL     1      43.735 -18.605   7.870  1.00  0.00     0.037 A 
HETATM    9  C   UNL     1      43.561 -17.370   8.501  1.00  0.00     0.004 A 
HETATM   10  C   UNL     1      43.515 -16.195   7.748  1.00  0.00     0.017 A 
BRANCH   7  11
HETATM   11  O   UNL     1      44.060 -19.810   5.756  1.00  0.00    -0.346 OA
BRANCH  11  12
HETATM   12  C   UNL     1      44.989 -19.739   4.669  1.00  0.00     0.219 C 
BRANCH  12  13
HETATM   13  C   UNL     1      44.526 -20.578   3.532  1.00  0.00     0.024 A 
HETATM   14  C   UNL     1      43.993 -20.166   2.281  1.00  0.00     0.069 A 
HETATM   15  C   UNL     1      43.766 -18.790   1.780  1.00  0.00     0.073 C 
HETATM   16  N   UNL     1      43.678 -21.215   1.513  1.00  0.00    -0.133 NA
HETATM   17  O   UNL     1      43.999 -22.335   2.252  1.00  0.00    -0.217 OA
HETATM   18  C   UNL     1      44.500 -21.954   3.456  1.00  0.00     0.085 A 
HETATM   19  C   UNL     1      44.897 -23.038   4.376  1.00  0.00     0.079 C 
ENDBRANCH  12  13
ENDBRANCH  11  12
ENDBRANCH   7  11
ENDBRANCH   1   5
BRANCH   2  20
HETATM   20  C   UNL     1      42.746 -13.966   3.462  1.00  0.00     0.161 C 
BRANCH  20  21
HETATM   21  C   UNL     1      42.262 -14.275   2.061  1.00  0.00    -0.041 A 
HETATM   22  C   UNL     1      41.943 -15.566   1.623  1.00  0.00     0.009 A 
HETATM   23  C   UNL     1      41.527 -15.793   0.306  1.00  0.00     0.009 A 
HETATM   24  C   UNL     1      41.420 -14.730  -0.602  1.00  0.00    -0.033 A 
HETATM   25  C   UNL     1      41.709 -13.434  -0.159  1.00  0.00     0.009 A 
HETATM   26  C   UNL     1      42.122 -13.211   1.157  1.00  0.00     0.009 A 
BRANCH  24  27
HETATM   27  C   UNL     1      41.005 -14.980  -2.026  1.00  0.00     0.273 C 
BRANCH  27  28
HETATM   28  N   UNL     1      39.520 -15.174  -2.181  1.00  0.00    -0.067 N 
HETATM   29  H   UNL     1      39.290 -16.043  -1.684  1.00  0.00     0.280 HD
HETATM   30  C   UNL     1      39.077 -15.339  -3.622  1.00  0.00     0.235 C 
HETATM   31  C   UNL     1      38.190 -14.139  -3.887  1.00  0.00     0.029 C 
HETATM   32  C   UNL     1      37.530 -13.897  -2.546  1.00  0.00     0.029 C 
HETATM   33  C   UNL     1      38.678 -14.070  -1.570  1.00  0.00     0.235 C 
ENDBRANCH  27  28
ENDBRANCH  24  27
ENDBRANCH  20  21
ENDBRANCH   2  20
TORSDOF 8
ENDMDL
