MODEL 1
REMARK VINA RESULT:      -8.5      0.000      0.000
REMARK  5 active torsions:
REMARK  status: ('A' for Active; 'I' for Inactive)
REMARK    1  A    between atoms: C_8  and  C_9 
REMARK    2  A    between atoms: N_10  and  N_11 
REMARK       I    between atoms: N_11  and  C_12 
REMARK    3  A    between atoms: C_12  and  C_13 
REMARK    4  A    between atoms: C_13  and  N_14 
REMARK    5  A    between atoms: N_14  and  C_15 
ROOT
HETATM    1  N   UNL     1      44.028 -13.262   7.718  1.00  0.00    -0.246 N 
HETATM    2  C   UNL     1      44.728 -12.582   8.716  1.00  0.00     0.255 C 
HETATM    3  O   UNL     1      45.850 -12.872   9.126  1.00  0.00    -0.270 OA
HETATM    4  H   UNL     1      43.024 -13.118   7.656  1.00  0.00     0.192 HD
ENDROOT
BRANCH   1   5
HETATM    5  N   UNL     1      44.468 -14.389   7.059  1.00  0.00    -0.184 NA
HETATM    6  C   UNL     1      43.746 -15.463   7.147  1.00  0.00     0.152 C 
BRANCH   6   7
HETATM    7  C   UNL     1      44.153 -16.667   6.450  1.00  0.00     0.011 A 
HETATM    8  C   UNL     1      43.644 -17.143   5.198  1.00  0.00     0.004 A 
HETATM    9  C   UNL     1      42.681 -16.666   4.282  1.00  0.00     0.014 A 
HETATM   10  C   UNL     1      44.302 -18.338   4.904  1.00  0.00     0.043 A 
HETATM   11  C   UNL     1      42.409 -17.398   3.121  1.00  0.00     0.001 A 
HETATM   12  C   UNL     1      43.081 -18.589   2.860  1.00  0.00     0.002 A 
HETATM   13  C   UNL     1      44.043 -19.082   3.746  1.00  0.00     0.030 A 
HETATM   14  N   UNL     1      45.183 -18.577   5.934  1.00  0.00    -0.364 N 
HETATM   15  H   UNL     1      45.801 -19.376   5.984  1.00  0.00     0.165 HD
HETATM   16  C   UNL     1      45.103 -17.581   6.868  1.00  0.00     0.102 A 
ENDBRANCH   6   7
ENDBRANCH   1   5
BRANCH   2  17
HETATM   17  C   UNL     1      43.954 -11.380   9.257  1.00  0.00     0.224 C 
BRANCH  17  18
HETATM   18  N   UNL     1      42.909 -11.792  10.196  1.00  0.00    -0.381 N 
HETATM   19  H   UNL     1      42.055 -12.151   9.783  1.00  0.00     0.160 HD
BRANCH  18  20
HETATM   20  C   UNL     1      42.738 -11.116  11.402  1.00  0.00     0.028 A 
HETATM   21  C   UNL     1      41.616 -11.415  12.189  1.00  0.00     0.030 A 
HETATM   22  C   UNL     1      41.424 -10.822  13.443  1.00  0.00     0.021 A 
HETATM   23  C   UNL     1      42.374  -9.935  13.939  1.00  0.00     0.011 A 
HETATM   24 BR   UNL     1      42.132  -9.141  15.635  1.00  0.00    -0.051 Br
HETATM   25  C   UNL     1      43.512  -9.647  13.194  1.00  0.00     0.021 A 
HETATM   26  C   UNL     1      43.693 -10.242  11.940  1.00  0.00     0.030 A 
ENDBRANCH  18  20
ENDBRANCH  17  18
ENDBRANCH   2  17
TORSDOF 5
ENDMDL
MODEL 2
REMARK VINA RESULT:      -8.2      1.730      2.512
REMARK  5 active torsions:
REMARK  status: ('A' for Active; 'I' for Inactive)
REMARK    1  A    between atoms: C_8  and  C_9 
REMARK    2  A    between atoms: N_10  and  N_11 
REMARK       I    between atoms: N_11  and  C_12 
REMARK    3  A    between atoms: C_12  and  C_13 
REMARK    4  A    between atoms: C_13  and  N_14 
REMARK    5  A    between atoms: N_14  and  C_15 
ROOT
HETATM    1  N   UNL     1      43.672 -14.259   6.914  1.00  0.00    -0.246 N 
HETATM    2  C   UNL     1      44.854 -13.623   7.296  1.00  0.00     0.255 C 
HETATM    3  O   UNL     1      45.892 -13.589   6.639  1.00  0.00    -0.270 OA
HETATM    4  H   UNL     1      42.985 -14.463   7.634  1.00  0.00     0.192 HD
ENDROOT
BRANCH   1   5
HETATM    5  N   UNL     1      43.492 -14.982   5.756  1.00  0.00    -0.184 NA
HETATM    6  C   UNL     1      43.359 -16.268   5.859  1.00  0.00     0.152 C 
BRANCH   6   7
HETATM    7  C   UNL     1      43.140 -17.071   4.672  1.00  0.00     0.011 A 
HETATM    8  C   UNL     1      43.756 -18.328   4.366  1.00  0.00     0.004 A 
HETATM    9  C   UNL     1      44.685 -19.158   5.031  1.00  0.00     0.014 A 
HETATM   10  C   UNL     1      43.271 -18.742   3.123  1.00  0.00     0.043 A 
HETATM   11  C   UNL     1      45.095 -20.355   4.435  1.00  0.00     0.001 A 
HETATM   12  C   UNL     1      44.595 -20.736   3.192  1.00  0.00     0.002 A 
HETATM   13  C   UNL     1      43.671 -19.937   2.512  1.00  0.00     0.030 A 
HETATM   14  N   UNL     1      42.388 -17.777   2.694  1.00  0.00    -0.364 N 
HETATM   15  H   UNL     1      41.878 -17.816   1.822  1.00  0.00     0.165 HD
HETATM   16  C   UNL     1      42.301 -16.770   3.615  1.00  0.00     0.102 A 
ENDBRANCH   6   7
ENDBRANCH   1   5
BRANCH   2  17
HETATM   17  C   UNL     1      44.729 -12.920   8.648  1.00  0.00     0.224 C 
BRANCH  17  18
HETATM   18  N   UNL     1      43.622 -11.962   8.656  1.00  0.00    -0.381 N 
HETATM   19  H   UNL     1      43.352 -11.584   7.754  1.00  0.00     0.160 HD
BRANCH  18  20
HETATM   20  C   UNL     1      43.449 -11.092   9.730  1.00  0.00     0.028 A 
HETATM   21  C   UNL     1      42.316 -10.266   9.753  1.00  0.00     0.030 A 
HETATM   22  C   UNL     1      42.049  -9.421  10.837  1.00  0.00     0.021 A 
HETATM   23  C   UNL     1      42.908  -9.414  11.932  1.00  0.00     0.011 A 
HETATM   24 BR   UNL     1      42.549  -8.289  13.406  1.00  0.00    -0.051 Br
HETATM   25  C   UNL     1      44.020 -10.247  11.950  1.00  0.00     0.021 A 
HETATM   26  C   UNL     1      44.280 -11.085  10.859  1.00  0.00     0.030 A 
ENDBRANCH  18  20
ENDBRANCH  17  18
ENDBRANCH   2  17
TORSDOF 5
ENDMDL
MODEL 3
REMARK VINA RESULT:      -8.2      8.322     10.883
REMARK  5 active torsions:
REMARK  status: ('A' for Active; 'I' for Inactive)
REMARK    1  A    between atoms: C_8  and  C_9 
REMARK    2  A    between atoms: N_10  and  N_11 
REMARK       I    between atoms: N_11  and  C_12 
REMARK    3  A    between atoms: C_12  and  C_13 
REMARK    4  A    between atoms: C_13  and  N_14 
REMARK    5  A    between atoms: N_14  and  C_15 
ROOT
HETATM    1  N   UNL     1      42.340 -15.774   2.157  1.00  0.00    -0.246 N 
HETATM    2  C   UNL     1      41.857 -15.943   0.858  1.00  0.00     0.255 C 
HETATM    3  O   UNL     1      41.588 -17.019   0.330  1.00  0.00    -0.270 OA
HETATM    4  H   UNL     1      42.787 -14.892   2.390  1.00  0.00     0.192 HD
ENDROOT
BRANCH   1   5
HETATM    5  N   UNL     1      42.626 -16.790   3.041  1.00  0.00    -0.184 NA
HETATM    6  C   UNL     1      43.757 -17.410   2.908  1.00  0.00     0.152 C 
BRANCH   6   7
HETATM    7  C   UNL     1      44.116 -18.469   3.831  1.00  0.00     0.011 A 
HETATM    8  C   UNL     1      44.256 -19.861   3.521  1.00  0.00     0.004 A 
HETATM    9  C   UNL     1      44.121 -20.626   2.342  1.00  0.00     0.014 A 
HETATM   10  C   UNL     1      44.599 -20.522   4.702  1.00  0.00     0.043 A 
HETATM   11  C   UNL     1      44.327 -22.009   2.386  1.00  0.00     0.001 A 
HETATM   12  C   UNL     1      44.665 -22.637   3.583  1.00  0.00     0.002 A 
HETATM   13  C   UNL     1      44.809 -21.905   4.765  1.00  0.00     0.030 A 
HETATM   14  N   UNL     1      44.674 -19.567   5.691  1.00  0.00    -0.364 N 
HETATM   15  H   UNL     1      44.911 -19.759   6.655  1.00  0.00     0.165 HD
HETATM   16  C   UNL     1      44.387 -18.331   5.180  1.00  0.00     0.102 A 
ENDBRANCH   6   7
ENDBRANCH   1   5
BRANCH   2  17
HETATM   17  C   UNL     1      41.662 -14.613   0.130  1.00  0.00     0.224 C 
BRANCH  17  18
HETATM   18  N   UNL     1      41.653 -14.792  -1.323  1.00  0.00    -0.381 N 
HETATM   19  H   UNL     1      42.443 -14.400  -1.825  1.00  0.00     0.160 HD
BRANCH  18  20
HETATM   20  C   UNL     1      40.452 -14.787  -2.027  1.00  0.00     0.028 A 
HETATM   21  C   UNL     1      39.467 -13.853  -1.674  1.00  0.00     0.030 A 
HETATM   22  C   UNL     1      38.267 -13.750  -2.388  1.00  0.00     0.021 A 
HETATM   23  C   UNL     1      38.049 -14.571  -3.490  1.00  0.00     0.011 A 
HETATM   24 BR   UNL     1      36.440 -14.431  -4.469  1.00  0.00    -0.051 Br
HETATM   25  C   UNL     1      39.022 -15.483  -3.882  1.00  0.00     0.021 A 
HETATM   26  C   UNL     1      40.217 -15.580  -3.159  1.00  0.00     0.030 A 
ENDBRANCH  18  20
ENDBRANCH  17  18
ENDBRANCH   2  17
TORSDOF 5
ENDMDL
MODEL 4
REMARK VINA RESULT:      -8.1      1.127      2.117
REMARK  5 active torsions:
REMARK  status: ('A' for Active; 'I' for Inactive)
REMARK    1  A    between atoms: C_8  and  C_9 
REMARK    2  A    between atoms: N_10  and  N_11 
REMARK       I    between atoms: N_11  and  C_12 
REMARK    3  A    between atoms: C_12  and  C_13 
REMARK    4  A    between atoms: C_13  and  N_14 
REMARK    5  A    between atoms: N_14  and  C_15 
ROOT
HETATM    1  N   UNL     1      43.805 -12.902   7.786  1.00  0.00    -0.246 N 
HETATM    2  C   UNL     1      44.745 -12.456   8.717  1.00  0.00     0.255 C 
HETATM    3  O   UNL     1      45.885 -12.896   8.848  1.00  0.00    -0.270 OA
HETATM    4  H   UNL     1      42.828 -12.673   7.947  1.00  0.00     0.192 HD
ENDROOT
BRANCH   1   5
HETATM    5  N   UNL     1      43.993 -13.932   6.892  1.00  0.00    -0.184 NA
HETATM    6  C   UNL     1      42.978 -14.307   6.177  1.00  0.00     0.152 C 
BRANCH   6   7
HETATM    7  C   UNL     1      43.131 -15.369   5.202  1.00  0.00     0.011 A 
HETATM    8  C   UNL     1      43.667 -16.676   5.440  1.00  0.00     0.004 A 
HETATM    9  C   UNL     1      44.175 -17.339   6.578  1.00  0.00     0.014 A 
HETATM   10  C   UNL     1      43.641 -17.368   4.228  1.00  0.00     0.043 A 
HETATM   11  C   UNL     1      44.639 -18.655   6.463  1.00  0.00     0.001 A 
HETATM   12  C   UNL     1      44.602 -19.314   5.237  1.00  0.00     0.002 A 
HETATM   13  C   UNL     1      44.100 -18.684   4.095  1.00  0.00     0.030 A 
HETATM   14  N   UNL     1      43.102 -16.517   3.289  1.00  0.00    -0.364 N 
HETATM   15  H   UNL     1      42.956 -16.755   2.318  1.00  0.00     0.165 HD
HETATM   16  C   UNL     1      42.792 -15.314   3.862  1.00  0.00     0.102 A 
ENDBRANCH   6   7
ENDBRANCH   1   5
BRANCH   2  17
HETATM   17  C   UNL     1      44.217 -11.306   9.576  1.00  0.00     0.224 C 
BRANCH  17  18
HETATM   18  N   UNL     1      43.036 -11.707  10.343  1.00  0.00    -0.381 N 
HETATM   19  H   UNL     1      42.202 -11.913   9.803  1.00  0.00     0.160 HD
BRANCH  18  20
HETATM   20  C   UNL     1      42.797 -11.166  11.604  1.00  0.00     0.028 A 
HETATM   21  C   UNL     1      43.689 -10.207  12.107  1.00  0.00     0.030 A 
HETATM   22  C   UNL     1      43.466  -9.574  13.335  1.00  0.00     0.021 A 
HETATM   23  C   UNL     1      42.325  -9.879  14.070  1.00  0.00     0.011 A 
HETATM   24 BR   UNL     1      42.007  -9.021  15.722  1.00  0.00    -0.051 Br
HETATM   25  C   UNL     1      41.407 -10.801  13.579  1.00  0.00     0.021 A 
HETATM   26  C   UNL     1      41.641 -11.430  12.351  1.00  0.00     0.030 A 
ENDBRANCH  18  20
ENDBRANCH  17  18
ENDBRANCH   2  17
TORSDOF 5
ENDMDL
MODEL 5
REMARK VINA RESULT:      -8.0      8.462     10.803
REMARK  5 active torsions:
REMARK  status: ('A' for Active; 'I' for Inactive)
REMARK    1  A    between atoms: C_8  and  C_9 
REMARK    2  A    between atoms: N_10  and  N_11 
REMARK       I    between atoms: N_11  and  C_12 
REMARK    3  A    between atoms: C_12  and  C_13 
REMARK    4  A    between atoms: C_13  and  N_14 
REMARK    5  A    between atoms: N_14  and  C_15 
ROOT
HETATM    1  N   UNL     1      42.086 -16.194  -0.011  1.00  0.00    -0.246 N 
HETATM    2  C   UNL     1      41.043 -15.284  -0.184  1.00  0.00     0.255 C 
HETATM    3  O   UNL     1      40.349 -14.812   0.714  1.00  0.00    -0.270 OA
HETATM    4  H   UNL     1      42.399 -16.723  -0.820  1.00  0.00     0.192 HD
ENDROOT
BRANCH   1   5
HETATM    5  N   UNL     1      42.480 -16.739   1.191  1.00  0.00    -0.184 NA
HETATM    6  C   UNL     1      43.211 -17.810   1.161  1.00  0.00     0.152 C 
BRANCH   6   7
HETATM    7  C   UNL     1      43.673 -18.406   2.399  1.00  0.00     0.011 A 
HETATM    8  C   UNL     1      43.984 -19.787   2.619  1.00  0.00     0.004 A 
HETATM    9  C   UNL     1      43.967 -20.941   1.805  1.00  0.00     0.014 A 
HETATM   10  C   UNL     1      44.377 -19.923   3.951  1.00  0.00     0.043 A 
HETATM   11  C   UNL     1      44.335 -22.177   2.349  1.00  0.00     0.001 A 
HETATM   12  C   UNL     1      44.719 -22.277   3.684  1.00  0.00     0.002 A 
HETATM   13  C   UNL     1      44.749 -21.151   4.511  1.00  0.00     0.030 A 
HETATM   14  N   UNL     1      44.317 -18.671   4.519  1.00  0.00    -0.364 N 
HETATM   15  H   UNL     1      44.554 -18.466   5.480  1.00  0.00     0.165 HD
HETATM   16  C   UNL     1      43.895 -17.752   3.597  1.00  0.00     0.102 A 
ENDBRANCH   6   7
ENDBRANCH   1   5
BRANCH   2  17
HETATM   17  C   UNL     1      40.849 -14.888  -1.649  1.00  0.00     0.224 C 
BRANCH  17  18
HETATM   18  N   UNL     1      42.092 -14.388  -2.239  1.00  0.00    -0.381 N 
HETATM   19  H   UNL     1      42.951 -14.799  -1.886  1.00  0.00     0.160 HD
BRANCH  18  20
HETATM   20  C   UNL     1      42.200 -13.057  -2.635  1.00  0.00     0.028 A 
HETATM   21  C   UNL     1      41.504 -12.634  -3.776  1.00  0.00     0.030 A 
HETATM   22  C   UNL     1      41.514 -11.295  -4.185  1.00  0.00     0.021 A 
HETATM   23  C   UNL     1      42.206 -10.351  -3.434  1.00  0.00     0.011 A 
HETATM   24 BR   UNL     1      42.214  -8.539  -3.968  1.00  0.00    -0.051 Br
HETATM   25  C   UNL     1      42.877 -10.737  -2.279  1.00  0.00     0.021 A 
HETATM   26  C   UNL     1      42.863 -12.079  -1.881  1.00  0.00     0.030 A 
ENDBRANCH  18  20
ENDBRANCH  17  18
ENDBRANCH   2  17
TORSDOF 5
ENDMDL
MODEL 6
REMARK VINA RESULT:      -7.9      8.235     10.367
REMARK  5 active torsions:
REMARK  status: ('A' for Active; 'I' for Inactive)
REMARK    1  A    between atoms: C_8  and  C_9 
REMARK    2  A    between atoms: N_10  and  N_11 
REMARK       I    between atoms: N_11  and  C_12 
REMARK    3  A    between atoms: C_12  and  C_13 
REMARK    4  A    between atoms: C_13  and  N_14 
REMARK    5  A    between atoms: N_14  and  C_15 
ROOT
HETATM    1  N   UNL     1      42.065 -16.241   1.821  1.00  0.00    -0.246 N 
HETATM    2  C   UNL     1      40.758 -15.854   1.524  1.00  0.00     0.255 C 
HETATM    3  O   UNL     1      39.739 -16.382   1.964  1.00  0.00    -0.270 OA
HETATM    4  H   UNL     1      42.808 -15.931   1.201  1.00  0.00     0.192 HD
ENDROOT
BRANCH   1   5
HETATM    5  N   UNL     1      42.422 -17.300   2.625  1.00  0.00    -0.184 NA
HETATM    6  C   UNL     1      43.662 -17.390   2.996  1.00  0.00     0.152 C 
BRANCH   6   7
HETATM    7  C   UNL     1      44.082 -18.472   3.864  1.00  0.00     0.011 A 
HETATM    8  C   UNL     1      44.218 -19.852   3.504  1.00  0.00     0.004 A 
HETATM    9  C   UNL     1      44.027 -20.582   2.311  1.00  0.00     0.014 A 
HETATM   10  C   UNL     1      44.633 -20.544   4.644  1.00  0.00     0.043 A 
HETATM   11  C   UNL     1      44.249 -21.963   2.301  1.00  0.00     0.001 A 
HETATM   12  C   UNL     1      44.658 -22.623   3.457  1.00  0.00     0.002 A 
HETATM   13  C   UNL     1      44.860 -21.926   4.651  1.00  0.00     0.030 A 
HETATM   14  N   UNL     1      44.752 -19.619   5.656  1.00  0.00    -0.364 N 
HETATM   15  H   UNL     1      45.044 -19.838   6.599  1.00  0.00     0.165 HD
HETATM   16  C   UNL     1      44.424 -18.372   5.200  1.00  0.00     0.102 A 
ENDBRANCH   6   7
ENDBRANCH   1   5
BRANCH   2  17
HETATM   17  C   UNL     1      40.703 -14.649   0.585  1.00  0.00     0.224 C 
BRANCH  17  18
HETATM   18  N   UNL     1      41.686 -14.764  -0.495  1.00  0.00    -0.381 N 
HETATM   19  H   UNL     1      42.571 -15.195  -0.249  1.00  0.00     0.160 HD
BRANCH  18  20
HETATM   20  C   UNL     1      41.766 -13.785  -1.482  1.00  0.00     0.028 A 
HETATM   21  C   UNL     1      42.441 -12.590  -1.194  1.00  0.00     0.030 A 
HETATM   22  C   UNL     1      42.618 -11.597  -2.165  1.00  0.00     0.021 A 
HETATM   23  C   UNL     1      42.139 -11.802  -3.455  1.00  0.00     0.011 A 
HETATM   24 BR   UNL     1      42.384 -10.476  -4.777  1.00  0.00    -0.051 Br
HETATM   25  C   UNL     1      41.495 -12.992  -3.777  1.00  0.00     0.021 A 
HETATM   26  C   UNL     1      41.321 -13.977  -2.798  1.00  0.00     0.030 A 
ENDBRANCH  18  20
ENDBRANCH  17  18
ENDBRANCH   2  17
TORSDOF 5
ENDMDL
MODEL 7
REMARK VINA RESULT:      -7.8      8.079     10.335
REMARK  5 active torsions:
REMARK  status: ('A' for Active; 'I' for Inactive)
REMARK    1  A    between atoms: C_8  and  C_9 
REMARK    2  A    between atoms: N_10  and  N_11 
REMARK       I    between atoms: N_11  and  C_12 
REMARK    3  A    between atoms: C_12  and  C_13 
REMARK    4  A    between atoms: C_13  and  N_14 
REMARK    5  A    between atoms: N_14  and  C_15 
ROOT
HETATM    1  N   UNL     1      40.358 -16.225   1.510  1.00  0.00    -0.246 N 
HETATM    2  C   UNL     1      39.687 -15.084   1.950  1.00  0.00     0.255 C 
HETATM    3  O   UNL     1      39.647 -14.680   3.110  1.00  0.00    -0.270 OA
HETATM    4  H   UNL     1      40.098 -16.615   0.608  1.00  0.00     0.192 HD
ENDROOT
BRANCH   1   5
HETATM    5  N   UNL     1      41.052 -17.103   2.312  1.00  0.00    -0.184 NA
HETATM    6  C   UNL     1      42.347 -17.040   2.303  1.00  0.00     0.152 C 
BRANCH   6   7
HETATM    7  C   UNL     1      43.122 -17.924   3.150  1.00  0.00     0.011 A 
HETATM    8  C   UNL     1      43.494 -19.277   2.859  1.00  0.00     0.004 A 
HETATM    9  C   UNL     1      43.278 -20.144   1.765  1.00  0.00     0.014 A 
HETATM   10  C   UNL     1      44.223 -19.756   3.949  1.00  0.00     0.043 A 
HETATM   11  C   UNL     1      43.788 -21.446   1.803  1.00  0.00     0.001 A 
HETATM   12  C   UNL     1      44.508 -21.894   2.908  1.00  0.00     0.002 A 
HETATM   13  C   UNL     1      44.740 -21.056   4.003  1.00  0.00     0.030 A 
HETATM   14  N   UNL     1      44.298 -18.732   4.865  1.00  0.00    -0.364 N 
HETATM   15  H   UNL     1      44.776 -18.793   5.754  1.00  0.00     0.165 HD
HETATM   16  C   UNL     1      43.642 -17.627   4.397  1.00  0.00     0.102 A 
ENDBRANCH   6   7
ENDBRANCH   1   5
BRANCH   2  17
HETATM   17  C   UNL     1      38.998 -14.334   0.808  1.00  0.00     0.224 C 
BRANCH  17  18
HETATM   18  N   UNL     1      39.450 -14.813  -0.499  1.00  0.00    -0.381 N 
HETATM   19  H   UNL     1      39.716 -15.791  -0.548  1.00  0.00     0.160 HD
BRANCH  18  20
HETATM   20  C   UNL     1      40.157 -13.971  -1.353  1.00  0.00     0.028 A 
HETATM   21  C   UNL     1      40.389 -14.387  -2.672  1.00  0.00     0.030 A 
HETATM   22  C   UNL     1      41.031 -13.557  -3.599  1.00  0.00     0.021 A 
HETATM   23  C   UNL     1      41.430 -12.280  -3.219  1.00  0.00     0.011 A 
HETATM   24 BR   UNL     1      42.284 -11.147  -4.466  1.00  0.00    -0.051 Br
HETATM   25  C   UNL     1      41.183 -11.829  -1.927  1.00  0.00     0.021 A 
HETATM   26  C   UNL     1      40.543 -12.668  -1.008  1.00  0.00     0.030 A 
ENDBRANCH  18  20
ENDBRANCH  17  18
ENDBRANCH   2  17
TORSDOF 5
ENDMDL
MODEL 8
REMARK VINA RESULT:      -7.8      8.644     11.562
REMARK  5 active torsions:
REMARK  status: ('A' for Active; 'I' for Inactive)
REMARK    1  A    between atoms: C_8  and  C_9 
REMARK    2  A    between atoms: N_10  and  N_11 
REMARK       I    between atoms: N_11  and  C_12 
REMARK    3  A    between atoms: C_12  and  C_13 
REMARK    4  A    between atoms: C_13  and  N_14 
REMARK    5  A    between atoms: N_14  and  C_15 
ROOT
HETATM    1  N   UNL     1      41.561 -16.283  -0.199  1.00  0.00    -0.246 N 
HETATM    2  C   UNL     1      41.467 -14.909  -0.424  1.00  0.00     0.255 C 
HETATM    3  O   UNL     1      41.752 -14.030   0.387  1.00  0.00    -0.270 OA
HETATM    4  H   UNL     1      41.046 -16.905  -0.816  1.00  0.00     0.192 HD
ENDROOT
BRANCH   1   5
HETATM    5  N   UNL     1      41.952 -16.875   0.981  1.00  0.00    -0.184 NA
HETATM    6  C   UNL     1      43.106 -17.464   1.012  1.00  0.00     0.152 C 
BRANCH   6   7
HETATM    7  C   UNL     1      43.574 -18.079   2.238  1.00  0.00     0.011 A 
HETATM    8  C   UNL     1      43.867 -19.467   2.441  1.00  0.00     0.004 A 
HETATM    9  C   UNL     1      43.822 -20.613   1.617  1.00  0.00     0.014 A 
HETATM   10  C   UNL     1      44.274 -19.621   3.768  1.00  0.00     0.043 A 
HETATM   11  C   UNL     1      44.178 -21.859   2.146  1.00  0.00     0.001 A 
HETATM   12  C   UNL     1      44.576 -21.978   3.475  1.00  0.00     0.002 A 
HETATM   13  C   UNL     1      44.633 -20.860   4.312  1.00  0.00     0.030 A 
HETATM   14  N   UNL     1      44.239 -18.373   4.348  1.00  0.00    -0.364 N 
HETATM   15  H   UNL     1      44.491 -18.181   5.308  1.00  0.00     0.165 HD
HETATM   16  C   UNL     1      43.821 -17.439   3.440  1.00  0.00     0.102 A 
ENDBRANCH   6   7
ENDBRANCH   1   5
BRANCH   2  17
HETATM   17  C   UNL     1      40.984 -14.579  -1.837  1.00  0.00     0.224 C 
BRANCH  17  18
HETATM   18  N   UNL     1      39.687 -15.196  -2.118  1.00  0.00    -0.381 N 
HETATM   19  H   UNL     1      39.697 -16.194  -2.300  1.00  0.00     0.160 HD
BRANCH  18  20
HETATM   20  C   UNL     1      38.702 -14.487  -2.803  1.00  0.00     0.028 A 
HETATM   21  C   UNL     1      37.830 -15.189  -3.647  1.00  0.00     0.030 A 
HETATM   22  C   UNL     1      36.776 -14.546  -4.308  1.00  0.00     0.021 A 
HETATM   23  C   UNL     1      36.567 -13.185  -4.110  1.00  0.00     0.011 A 
HETATM   24 BR   UNL     1      35.141 -12.310  -4.985  1.00  0.00    -0.051 Br
HETATM   25  C   UNL     1      37.398 -12.471  -3.253  1.00  0.00     0.021 A 
HETATM   26  C   UNL     1      38.450 -13.124  -2.599  1.00  0.00     0.030 A 
ENDBRANCH  18  20
ENDBRANCH  17  18
ENDBRANCH   2  17
TORSDOF 5
ENDMDL
MODEL 9
REMARK VINA RESULT:      -7.6      4.706      5.774
REMARK  5 active torsions:
REMARK  status: ('A' for Active; 'I' for Inactive)
REMARK    1  A    between atoms: C_8  and  C_9 
REMARK    2  A    between atoms: N_10  and  N_11 
REMARK       I    between atoms: N_11  and  C_12 
REMARK    3  A    between atoms: C_12  and  C_13 
REMARK    4  A    between atoms: C_13  and  N_14 
REMARK    5  A    between atoms: N_14  and  C_15 
ROOT
HETATM    1  N   UNL     1      42.275 -15.052   3.113  1.00  0.00    -0.246 N 
HETATM    2  C   UNL     1      42.805 -13.765   3.010  1.00  0.00     0.255 C 
HETATM    3  O   UNL     1      43.882 -13.396   3.472  1.00  0.00    -0.270 OA
HETATM    4  H   UNL     1      41.280 -15.175   2.949  1.00  0.00     0.192 HD
ENDROOT
BRANCH   1   5
HETATM    5  N   UNL     1      42.859 -16.105   3.782  1.00  0.00    -0.184 NA
HETATM    6  C   UNL     1      43.120 -17.182   3.109  1.00  0.00     0.152 C 
BRANCH   6   7
HETATM    7  C   UNL     1      43.758 -18.308   3.762  1.00  0.00     0.011 A 
HETATM    8  C   UNL     1      43.911 -19.630   3.230  1.00  0.00     0.004 A 
HETATM    9  C   UNL     1      43.549 -20.250   2.014  1.00  0.00     0.014 A 
HETATM   10  C   UNL     1      44.569 -20.396   4.194  1.00  0.00     0.043 A 
HETATM   11  C   UNL     1      43.850 -21.601   1.810  1.00  0.00     0.001 A 
HETATM   12  C   UNL     1      44.504 -22.338   2.794  1.00  0.00     0.002 A 
HETATM   13  C   UNL     1      44.879 -21.749   4.005  1.00  0.00     0.030 A 
HETATM   14  N   UNL     1      44.815 -19.571   5.267  1.00  0.00    -0.364 N 
HETATM   15  H   UNL     1      45.288 -19.858   6.113  1.00  0.00     0.165 HD
HETATM   16  C   UNL     1      44.333 -18.315   5.020  1.00  0.00     0.102 A 
ENDBRANCH   6   7
ENDBRANCH   1   5
BRANCH   2  17
HETATM   17  C   UNL     1      41.900 -12.823   2.216  1.00  0.00     0.224 C 
BRANCH  17  18
HETATM   18  N   UNL     1      41.621 -11.592   2.958  1.00  0.00    -0.381 N 
HETATM   19  H   UNL     1      42.258 -10.820   2.797  1.00  0.00     0.160 HD
BRANCH  18  20
HETATM   20  C   UNL     1      41.084 -11.650   4.242  1.00  0.00     0.028 A 
HETATM   21  C   UNL     1      41.673 -10.879   5.255  1.00  0.00     0.030 A 
HETATM   22  C   UNL     1      41.139 -10.838   6.548  1.00  0.00     0.021 A 
HETATM   23  C   UNL     1      39.983 -11.556   6.838  1.00  0.00     0.011 A 
HETATM   24 BR   UNL     1      39.245 -11.497   8.576  1.00  0.00    -0.051 Br
HETATM   25  C   UNL     1      39.360 -12.303   5.845  1.00  0.00     0.021 A 
HETATM   26  C   UNL     1      39.905 -12.339   4.556  1.00  0.00     0.030 A 
ENDBRANCH  18  20
ENDBRANCH  17  18
ENDBRANCH   2  17
TORSDOF 5
ENDMDL
MODEL 10
REMARK VINA RESULT:      -7.5      2.375      3.509
REMARK  5 active torsions:
REMARK  status: ('A' for Active; 'I' for Inactive)
REMARK    1  A    between atoms: C_8  and  C_9 
REMARK    2  A    between atoms: N_10  and  N_11 
REMARK       I    between atoms: N_11  and  C_12 
REMARK    3  A    between atoms: C_12  and  C_13 
REMARK    4  A    between atoms: C_13  and  N_14 
REMARK    5  A    between atoms: N_14  and  C_15 
ROOT
HETATM    1  N   UNL     1      44.603 -15.874   6.674  1.00  0.00    -0.246 N 
HETATM    2  C   UNL     1      43.484 -15.073   6.441  1.00  0.00     0.255 C 
HETATM    3  O   UNL     1      42.356 -15.482   6.173  1.00  0.00    -0.270 OA
HETATM    4  H   UNL     1      45.521 -15.443   6.608  1.00  0.00     0.192 HD
ENDROOT
BRANCH   1   5
HETATM    5  N   UNL     1      44.631 -17.248   6.603  1.00  0.00    -0.184 NA
HETATM    6  C   UNL     1      44.315 -17.805   5.475  1.00  0.00     0.152 C 
BRANCH   6   7
HETATM    7  C   UNL     1      44.355 -19.248   5.343  1.00  0.00     0.011 A 
HETATM    8  C   UNL     1      44.342 -19.994   4.120  1.00  0.00     0.004 A 
HETATM    9  C   UNL     1      44.300 -19.643   2.753  1.00  0.00     0.014 A 
HETATM   10  C   UNL     1      44.380 -21.349   4.454  1.00  0.00     0.043 A 
HETATM   11  C   UNL     1      44.293 -20.649   1.780  1.00  0.00     0.001 A 
HETATM   12  C   UNL     1      44.328 -21.991   2.148  1.00  0.00     0.002 A 
HETATM   13  C   UNL     1      44.374 -22.368   3.494  1.00  0.00     0.030 A 
HETATM   14  N   UNL     1      44.423 -21.424   5.828  1.00  0.00    -0.364 N 
HETATM   15  H   UNL     1      44.463 -22.287   6.352  1.00  0.00     0.165 HD
HETATM   16  C   UNL     1      44.409 -20.169   6.372  1.00  0.00     0.102 A 
ENDBRANCH   6   7
ENDBRANCH   1   5
BRANCH   2  17
HETATM   17  C   UNL     1      43.793 -13.582   6.581  1.00  0.00     0.224 C 
BRANCH  17  18
HETATM   18  N   UNL     1      44.782 -13.334   7.632  1.00  0.00    -0.381 N 
HETATM   19  H   UNL     1      45.335 -14.134   7.922  1.00  0.00     0.160 HD
BRANCH  18  20
HETATM   20  C   UNL     1      44.524 -12.406   8.638  1.00  0.00     0.028 A 
HETATM   21  C   UNL     1      43.350 -11.642   8.567  1.00  0.00     0.030 A 
HETATM   22  C   UNL     1      42.999 -10.744   9.582  1.00  0.00     0.021 A 
HETATM   23  C   UNL     1      43.814 -10.618  10.702  1.00  0.00     0.011 A 
HETATM   24 BR   UNL     1      43.343  -9.419  12.084  1.00  0.00    -0.051 Br
HETATM   25  C   UNL     1      44.967 -11.387  10.814  1.00  0.00     0.021 A 
HETATM   26  C   UNL     1      45.310 -12.280   9.792  1.00  0.00     0.030 A 
ENDBRANCH  18  20
ENDBRANCH  17  18
ENDBRANCH   2  17
TORSDOF 5
ENDMDL
