MODEL 1
REMARK VINA RESULT:      -8.9      0.000      0.000
REMARK  5 active torsions:
REMARK  status: ('A' for Active; 'I' for Inactive)
REMARK    1  A    between atoms: C_5  and  N_6 
REMARK    2  A    between atoms: C_9  and  C_10 
REMARK    3  A    between atoms: C_10  and  N_11 
REMARK       I    between atoms: N_11  and  C_12 
REMARK       I    between atoms: C_12  and  N_13 
REMARK    4  A    between atoms: N_13  and  C_14 
REMARK    5  A    between atoms: C_14  and  C_15 
ROOT
HETATM    1  N   UNL     1      43.071 -10.946  10.772  1.00  0.00    -0.319 N 
HETATM    2  C   UNL     1      44.058 -11.860  10.396  1.00  0.00     0.021 A 
HETATM    3  C   UNL     1      44.851 -12.676  11.366  1.00  0.00     0.069 C 
HETATM    4  C   UNL     1      44.096 -11.927   9.008  1.00  0.00    -0.016 A 
HETATM    5  C   UNL     1      43.075 -11.070   8.532  1.00  0.00     0.035 A 
HETATM    6  C   UNL     1      42.451 -10.485   9.614  1.00  0.00     0.014 A 
HETATM    7  C   UNL     1      41.378  -9.451   9.572  1.00  0.00     0.068 C 
ENDROOT
BRANCH   4   8
HETATM    8  C   UNL     1      44.979 -12.769   8.145  1.00  0.00     0.165 C 
BRANCH   8   9
HETATM    9  N   UNL     1      44.270 -13.994   7.861  1.00  0.00    -0.339 N 
HETATM   10  C   UNL     1      43.977 -14.334   6.569  1.00  0.00     0.316 C 
HETATM   11  N   UNL     1      43.121 -15.399   6.528  1.00  0.00    -0.339 N 
HETATM   12  O   UNL     1      44.391 -13.740   5.585  1.00  0.00    -0.247 OA
HETATM   13  H   UNL     1      43.206 -16.061   7.284  1.00  0.00     0.164 HD
HETATM   14  H   UNL     1      43.595 -14.292   8.550  1.00  0.00     0.164 HD
BRANCH  11  15
HETATM   15  C   UNL     1      42.633 -15.908   5.269  1.00  0.00     0.162 C 
BRANCH  15  16
HETATM   16  C   UNL     1      43.313 -17.211   4.935  1.00  0.00    -0.040 A 
HETATM   17  C   UNL     1      43.260 -17.717   3.626  1.00  0.00     0.009 A 
HETATM   18  C   UNL     1      43.871 -18.929   3.307  1.00  0.00     0.001 A 
HETATM   19  C   UNL     1      44.548 -19.647   4.290  1.00  0.00     0.000 A 
HETATM   20  C   UNL     1      44.614 -19.151   5.592  1.00  0.00     0.001 A 
HETATM   21  C   UNL     1      44.000 -17.940   5.914  1.00  0.00     0.009 A 
ENDBRANCH  15  16
ENDBRANCH  11  15
ENDBRANCH   8   9
ENDBRANCH   4   8
BRANCH   1  22
HETATM   22  C   UNL     1      42.763 -10.545  12.105  1.00  0.00     0.039 A 
HETATM   23  C   UNL     1      43.590  -9.631  12.768  1.00  0.00     0.030 A 
HETATM   24  C   UNL     1      43.277  -9.217  14.066  1.00  0.00     0.009 A 
HETATM   25  C   UNL     1      42.148  -9.722  14.721  1.00  0.00    -0.062 A 
HETATM   26  C   UNL     1      41.791  -9.246  16.098  1.00  0.00     0.048 C 
HETATM   27  C   UNL     1      41.321 -10.631  14.051  1.00  0.00     0.009 A 
HETATM   28  C   UNL     1      41.627 -11.044  12.750  1.00  0.00     0.030 A 
ENDBRANCH   1  22
TORSDOF 5
ENDMDL
MODEL 2
REMARK VINA RESULT:      -8.6      5.979      7.966
REMARK  5 active torsions:
REMARK  status: ('A' for Active; 'I' for Inactive)
REMARK    1  A    between atoms: C_5  and  N_6 
REMARK    2  A    between atoms: C_9  and  C_10 
REMARK    3  A    between atoms: C_10  and  N_11 
REMARK       I    between atoms: N_11  and  C_12 
REMARK       I    between atoms: C_12  and  N_13 
REMARK    4  A    between atoms: N_13  and  C_14 
REMARK    5  A    between atoms: C_14  and  C_15 
ROOT
HETATM    1  N   UNL     1      41.934 -15.348   4.872  1.00  0.00    -0.319 N 
HETATM    2  C   UNL     1      41.758 -16.203   5.963  1.00  0.00     0.021 A 
HETATM    3  C   UNL     1      40.535 -17.035   6.179  1.00  0.00     0.069 C 
HETATM    4  C   UNL     1      42.921 -16.200   6.723  1.00  0.00    -0.016 A 
HETATM    5  C   UNL     1      43.842 -15.360   6.052  1.00  0.00     0.035 A 
HETATM    6  C   UNL     1      43.235 -14.854   4.922  1.00  0.00     0.014 A 
HETATM    7  C   UNL     1      43.809 -13.861   3.969  1.00  0.00     0.068 C 
ENDROOT
BRANCH   4   8
HETATM    8  C   UNL     1      43.213 -16.963   7.974  1.00  0.00     0.165 C 
BRANCH   8   9
HETATM    9  N   UNL     1      43.156 -18.369   7.650  1.00  0.00    -0.339 N 
HETATM   10  C   UNL     1      44.194 -18.963   6.990  1.00  0.00     0.316 C 
HETATM   11  N   UNL     1      43.855 -20.225   6.586  1.00  0.00    -0.339 N 
HETATM   12  O   UNL     1      45.266 -18.426   6.755  1.00  0.00    -0.247 OA
HETATM   13  H   UNL     1      43.204 -20.716   7.179  1.00  0.00     0.164 HD
HETATM   14  H   UNL     1      42.242 -18.745   7.447  1.00  0.00     0.164 HD
BRANCH  11  15
HETATM   15  C   UNL     1      44.780 -21.032   5.827  1.00  0.00     0.162 C 
BRANCH  15  16
HETATM   16  C   UNL     1      44.456 -20.953   4.357  1.00  0.00    -0.040 A 
HETATM   17  C   UNL     1      44.094 -19.724   3.782  1.00  0.00     0.009 A 
HETATM   18  C   UNL     1      43.776 -19.640   2.426  1.00  0.00     0.001 A 
HETATM   19  C   UNL     1      43.824 -20.781   1.628  1.00  0.00     0.000 A 
HETATM   20  C   UNL     1      44.189 -22.006   2.187  1.00  0.00     0.001 A 
HETATM   21  C   UNL     1      44.504 -22.093   3.544  1.00  0.00     0.009 A 
ENDBRANCH  15  16
ENDBRANCH  11  15
ENDBRANCH   8   9
ENDBRANCH   4   8
BRANCH   1  22
HETATM   22  C   UNL     1      40.951 -15.026   3.891  1.00  0.00     0.039 A 
HETATM   23  C   UNL     1      40.700 -15.910   2.837  1.00  0.00     0.030 A 
HETATM   24  C   UNL     1      39.721 -15.608   1.887  1.00  0.00     0.009 A 
HETATM   25  C   UNL     1      38.995 -14.414   1.968  1.00  0.00    -0.062 A 
HETATM   26  C   UNL     1      37.916 -14.110   0.972  1.00  0.00     0.048 C 
HETATM   27  C   UNL     1      39.246 -13.536   3.028  1.00  0.00     0.009 A 
HETATM   28  C   UNL     1      40.221 -13.836   3.985  1.00  0.00     0.030 A 
ENDBRANCH   1  22
TORSDOF 5
ENDMDL
MODEL 3
REMARK VINA RESULT:      -8.4      1.797      9.951
REMARK  5 active torsions:
REMARK  status: ('A' for Active; 'I' for Inactive)
REMARK    1  A    between atoms: C_5  and  N_6 
REMARK    2  A    between atoms: C_9  and  C_10 
REMARK    3  A    between atoms: C_10  and  N_11 
REMARK       I    between atoms: N_11  and  C_12 
REMARK       I    between atoms: C_12  and  N_13 
REMARK    4  A    between atoms: N_13  and  C_14 
REMARK    5  A    between atoms: C_14  and  C_15 
ROOT
HETATM    1  N   UNL     1      43.209 -15.927   5.478  1.00  0.00    -0.319 N 
HETATM    2  C   UNL     1      43.895 -14.716   5.593  1.00  0.00     0.021 A 
HETATM    3  C   UNL     1      43.972 -13.695   4.504  1.00  0.00     0.069 C 
HETATM    4  C   UNL     1      44.393 -14.609   6.887  1.00  0.00    -0.016 A 
HETATM    5  C   UNL     1      43.958 -15.759   7.587  1.00  0.00     0.035 A 
HETATM    6  C   UNL     1      43.230 -16.551   6.723  1.00  0.00     0.014 A 
HETATM    7  C   UNL     1      42.656 -17.896   7.015  1.00  0.00     0.068 C 
ENDROOT
BRANCH   4   8
HETATM    8  C   UNL     1      45.183 -13.490   7.485  1.00  0.00     0.165 C 
BRANCH   8   9
HETATM    9  N   UNL     1      44.432 -12.978   8.607  1.00  0.00    -0.339 N 
HETATM   10  C   UNL     1      44.817 -11.818   9.219  1.00  0.00     0.316 C 
HETATM   11  N   UNL     1      44.120 -11.625  10.379  1.00  0.00    -0.339 N 
HETATM   12  O   UNL     1      45.696 -11.075   8.808  1.00  0.00    -0.247 OA
HETATM   13  H   UNL     1      43.179 -11.988  10.392  1.00  0.00     0.164 HD
HETATM   14  H   UNL     1      44.003 -13.664   9.210  1.00  0.00     0.164 HD
BRANCH  11  15
HETATM   15  C   UNL     1      44.390 -10.486  11.224  1.00  0.00     0.162 C 
BRANCH  15  16
HETATM   16  C   UNL     1      43.362 -10.396  12.322  1.00  0.00    -0.040 A 
HETATM   17  C   UNL     1      42.179 -11.148  12.242  1.00  0.00     0.009 A 
HETATM   18  C   UNL     1      41.213 -11.062  13.244  1.00  0.00     0.001 A 
HETATM   19  C   UNL     1      41.421 -10.229  14.341  1.00  0.00     0.000 A 
HETATM   20  C   UNL     1      42.595  -9.483  14.435  1.00  0.00     0.001 A 
HETATM   21  C   UNL     1      43.562  -9.565  13.432  1.00  0.00     0.009 A 
ENDBRANCH  15  16
ENDBRANCH  11  15
ENDBRANCH   8   9
ENDBRANCH   4   8
BRANCH   1  22
HETATM   22  C   UNL     1      42.608 -16.442   4.293  1.00  0.00     0.039 A 
HETATM   23  C   UNL     1      43.333 -17.297   3.455  1.00  0.00     0.030 A 
HETATM   24  C   UNL     1      42.738 -17.822   2.305  1.00  0.00     0.009 A 
HETATM   25  C   UNL     1      41.421 -17.487   1.969  1.00  0.00    -0.062 A 
HETATM   26  C   UNL     1      40.770 -18.084   0.757  1.00  0.00     0.048 C 
HETATM   27  C   UNL     1      40.698 -16.637   2.814  1.00  0.00     0.009 A 
HETATM   28  C   UNL     1      41.287 -16.113   3.969  1.00  0.00     0.030 A 
ENDBRANCH   1  22
TORSDOF 5
ENDMDL
MODEL 4
REMARK VINA RESULT:      -8.4      2.134     10.190
REMARK  5 active torsions:
REMARK  status: ('A' for Active; 'I' for Inactive)
REMARK    1  A    between atoms: C_5  and  N_6 
REMARK    2  A    between atoms: C_9  and  C_10 
REMARK    3  A    between atoms: C_10  and  N_11 
REMARK       I    between atoms: N_11  and  C_12 
REMARK       I    between atoms: C_12  and  N_13 
REMARK    4  A    between atoms: N_13  and  C_14 
REMARK    5  A    between atoms: C_14  and  C_15 
ROOT
HETATM    1  N   UNL     1      42.289 -16.362   4.473  1.00  0.00    -0.319 N 
HETATM    2  C   UNL     1      42.716 -15.050   4.257  1.00  0.00     0.021 A 
HETATM    3  C   UNL     1      43.702 -14.658   3.204  1.00  0.00     0.069 C 
HETATM    4  C   UNL     1      42.011 -14.207   5.108  1.00  0.00    -0.016 A 
HETATM    5  C   UNL     1      41.101 -15.022   5.824  1.00  0.00     0.035 A 
HETATM    6  C   UNL     1      41.272 -16.330   5.424  1.00  0.00     0.014 A 
HETATM    7  C   UNL     1      40.582 -17.530   5.979  1.00  0.00     0.068 C 
ENDROOT
BRANCH   4   8
HETATM    8  C   UNL     1      42.113 -12.722   5.235  1.00  0.00     0.165 C 
BRANCH   8   9
HETATM    9  N   UNL     1      42.373 -12.420   6.623  1.00  0.00    -0.339 N 
HETATM   10  C   UNL     1      41.816 -11.314   7.201  1.00  0.00     0.316 C 
HETATM   11  N   UNL     1      42.354 -11.087   8.437  1.00  0.00    -0.339 N 
HETATM   12  O   UNL     1      40.980 -10.599   6.668  1.00  0.00    -0.247 OA
HETATM   13  H   UNL     1      42.647 -11.907   8.946  1.00  0.00     0.164 HD
HETATM   14  H   UNL     1      43.281 -12.682   6.976  1.00  0.00     0.164 HD
BRANCH  11  15
HETATM   15  C   UNL     1      41.953  -9.943   9.221  1.00  0.00     0.162 C 
BRANCH  15  16
HETATM   16  C   UNL     1      42.205 -10.199  10.684  1.00  0.00    -0.040 A 
HETATM   17  C   UNL     1      41.250 -10.882  11.453  1.00  0.00     0.009 A 
HETATM   18  C   UNL     1      41.464 -11.112  12.813  1.00  0.00     0.001 A 
HETATM   19  C   UNL     1      42.638 -10.667  13.417  1.00  0.00     0.000 A 
HETATM   20  C   UNL     1      43.597  -9.993  12.661  1.00  0.00     0.001 A 
HETATM   21  C   UNL     1      43.383  -9.759  11.302  1.00  0.00     0.009 A 
ENDBRANCH  15  16
ENDBRANCH  11  15
ENDBRANCH   8   9
ENDBRANCH   4   8
BRANCH   1  22
HETATM   22  C   UNL     1      42.813 -17.530   3.845  1.00  0.00     0.039 A 
HETATM   23  C   UNL     1      43.786 -18.297   4.496  1.00  0.00     0.030 A 
HETATM   24  C   UNL     1      44.284 -19.455   3.893  1.00  0.00     0.009 A 
HETATM   25  C   UNL     1      43.830 -19.851   2.629  1.00  0.00    -0.062 A 
HETATM   26  C   UNL     1      44.335 -21.116   2.002  1.00  0.00     0.048 C 
HETATM   27  C   UNL     1      42.852 -19.083   1.986  1.00  0.00     0.009 A 
HETATM   28  C   UNL     1      42.347 -17.927   2.587  1.00  0.00     0.030 A 
ENDBRANCH   1  22
TORSDOF 5
ENDMDL
MODEL 5
REMARK VINA RESULT:      -8.4      2.430      9.538
REMARK  5 active torsions:
REMARK  status: ('A' for Active; 'I' for Inactive)
REMARK    1  A    between atoms: C_5  and  N_6 
REMARK    2  A    between atoms: C_9  and  C_10 
REMARK    3  A    between atoms: C_10  and  N_11 
REMARK       I    between atoms: N_11  and  C_12 
REMARK       I    between atoms: C_12  and  N_13 
REMARK    4  A    between atoms: N_13  and  C_14 
REMARK    5  A    between atoms: C_14  and  C_15 
ROOT
HETATM    1  N   UNL     1      42.226 -15.476   4.907  1.00  0.00    -0.319 N 
HETATM    2  C   UNL     1      40.991 -15.287   5.531  1.00  0.00     0.021 A 
HETATM    3  C   UNL     1      40.286 -16.343   6.320  1.00  0.00     0.069 C 
HETATM    4  C   UNL     1      40.605 -13.962   5.362  1.00  0.00    -0.016 A 
HETATM    5  C   UNL     1      41.654 -13.320   4.660  1.00  0.00     0.035 A 
HETATM    6  C   UNL     1      42.639 -14.248   4.396  1.00  0.00     0.014 A 
HETATM    7  C   UNL     1      43.883 -14.027   3.604  1.00  0.00     0.068 C 
ENDROOT
BRANCH   4   8
HETATM    8  C   UNL     1      39.368 -13.286   5.858  1.00  0.00     0.165 C 
BRANCH   8   9
HETATM    9  N   UNL     1      39.564 -12.994   7.259  1.00  0.00    -0.339 N 
HETATM   10  C   UNL     1      39.563 -11.699   7.696  1.00  0.00     0.316 C 
HETATM   11  N   UNL     1      39.980 -11.624   8.996  1.00  0.00    -0.339 N 
HETATM   12  O   UNL     1      39.270 -10.734   7.007  1.00  0.00    -0.247 OA
HETATM   13  H   UNL     1      39.758 -12.419   9.575  1.00  0.00     0.164 HD
HETATM   14  H   UNL     1      40.168 -13.622   7.767  1.00  0.00     0.164 HD
BRANCH  11  15
HETATM   15  C   UNL     1      40.105 -10.349   9.661  1.00  0.00     0.162 C 
BRANCH  15  16
HETATM   16  C   UNL     1      41.406 -10.281  10.419  1.00  0.00    -0.040 A 
HETATM   17  C   UNL     1      41.409  -9.936  11.780  1.00  0.00     0.009 A 
HETATM   18  C   UNL     1      42.607  -9.855  12.490  1.00  0.00     0.001 A 
HETATM   19  C   UNL     1      43.815 -10.123  11.849  1.00  0.00     0.000 A 
HETATM   20  C   UNL     1      43.823 -10.473  10.499  1.00  0.00     0.001 A 
HETATM   21  C   UNL     1      42.625 -10.552   9.786  1.00  0.00     0.009 A 
ENDBRANCH  15  16
ENDBRANCH  11  15
ENDBRANCH   8   9
ENDBRANCH   4   8
BRANCH   1  22
HETATM   22  C   UNL     1      42.931 -16.710   4.798  1.00  0.00     0.039 A 
HETATM   23  C   UNL     1      42.700 -17.553   3.705  1.00  0.00     0.030 A 
HETATM   24  C   UNL     1      43.407 -18.752   3.583  1.00  0.00     0.009 A 
HETATM   25  C   UNL     1      44.338 -19.131   4.556  1.00  0.00    -0.062 A 
HETATM   26  C   UNL     1      45.127 -20.397   4.403  1.00  0.00     0.048 C 
HETATM   27  C   UNL     1      44.570 -18.281   5.644  1.00  0.00     0.009 A 
HETATM   28  C   UNL     1      43.869 -17.077   5.768  1.00  0.00     0.030 A 
ENDBRANCH   1  22
TORSDOF 5
ENDMDL
MODEL 6
REMARK VINA RESULT:      -8.2      2.361      9.799
REMARK  5 active torsions:
REMARK  status: ('A' for Active; 'I' for Inactive)
REMARK    1  A    between atoms: C_5  and  N_6 
REMARK    2  A    between atoms: C_9  and  C_10 
REMARK    3  A    between atoms: C_10  and  N_11 
REMARK       I    between atoms: N_11  and  C_12 
REMARK       I    between atoms: C_12  and  N_13 
REMARK    4  A    between atoms: N_13  and  C_14 
REMARK    5  A    between atoms: C_14  and  C_15 
ROOT
HETATM    1  N   UNL     1      41.663 -14.825   3.956  1.00  0.00    -0.319 N 
HETATM    2  C   UNL     1      42.080 -13.825   4.837  1.00  0.00     0.021 A 
HETATM    3  C   UNL     1      43.410 -13.817   5.519  1.00  0.00     0.069 C 
HETATM    4  C   UNL     1      41.101 -12.839   4.886  1.00  0.00    -0.016 A 
HETATM    5  C   UNL     1      40.089 -13.226   3.975  1.00  0.00     0.035 A 
HETATM    6  C   UNL     1      40.445 -14.432   3.408  1.00  0.00     0.014 A 
HETATM    7  C   UNL     1      39.631 -15.246   2.460  1.00  0.00     0.068 C 
ENDROOT
BRANCH   4   8
HETATM    8  C   UNL     1      41.101 -11.572   5.678  1.00  0.00     0.165 C 
BRANCH   8   9
HETATM    9  N   UNL     1      41.588 -11.886   7.001  1.00  0.00    -0.339 N 
HETATM   10  C   UNL     1      42.176 -10.915   7.763  1.00  0.00     0.316 C 
HETATM   11  N   UNL     1      42.760 -11.458   8.875  1.00  0.00    -0.339 N 
HETATM   12  O   UNL     1      42.212  -9.730   7.472  1.00  0.00    -0.247 OA
HETATM   13  H   UNL     1      42.314 -12.281   9.249  1.00  0.00     0.164 HD
HETATM   14  H   UNL     1      41.945 -12.819   7.137  1.00  0.00     0.164 HD
BRANCH  11  15
HETATM   15  C   UNL     1      43.484 -10.629   9.808  1.00  0.00     0.162 C 
BRANCH  15  16
HETATM   16  C   UNL     1      42.813 -10.653  11.157  1.00  0.00    -0.040 A 
HETATM   17  C   UNL     1      41.481 -11.082  11.272  1.00  0.00     0.009 A 
HETATM   18  C   UNL     1      40.842 -11.094  12.512  1.00  0.00     0.001 A 
HETATM   19  C   UNL     1      41.530 -10.684  13.653  1.00  0.00     0.000 A 
HETATM   20  C   UNL     1      42.855 -10.263  13.552  1.00  0.00     0.001 A 
HETATM   21  C   UNL     1      43.495 -10.247  12.311  1.00  0.00     0.009 A 
ENDBRANCH  15  16
ENDBRANCH  11  15
ENDBRANCH   8   9
ENDBRANCH   4   8
BRANCH   1  22
HETATM   22  C   UNL     1      42.354 -16.040   3.678  1.00  0.00     0.039 A 
HETATM   23  C   UNL     1      42.104 -17.179   4.452  1.00  0.00     0.030 A 
HETATM   24  C   UNL     1      42.762 -18.379   4.167  1.00  0.00     0.009 A 
HETATM   25  C   UNL     1      43.687 -18.451   3.119  1.00  0.00    -0.062 A 
HETATM   26  C   UNL     1      44.362 -19.749   2.788  1.00  0.00     0.048 C 
HETATM   27  C   UNL     1      43.929 -17.310   2.345  1.00  0.00     0.009 A 
HETATM   28  C   UNL     1      43.269 -16.109   2.622  1.00  0.00     0.030 A 
ENDBRANCH   1  22
TORSDOF 5
ENDMDL
MODEL 7
REMARK VINA RESULT:      -8.1      8.034     11.869
REMARK  5 active torsions:
REMARK  status: ('A' for Active; 'I' for Inactive)
REMARK    1  A    between atoms: C_5  and  N_6 
REMARK    2  A    between atoms: C_9  and  C_10 
REMARK    3  A    between atoms: C_10  and  N_11 
REMARK       I    between atoms: N_11  and  C_12 
REMARK       I    between atoms: C_12  and  N_13 
REMARK    4  A    between atoms: N_13  and  C_14 
REMARK    5  A    between atoms: C_14  and  C_15 
ROOT
HETATM    1  N   UNL     1      39.089 -14.022  -1.308  1.00  0.00    -0.319 N 
HETATM    2  C   UNL     1      38.782 -14.076   0.054  1.00  0.00     0.021 A 
HETATM    3  C   UNL     1      37.389 -14.060   0.595  1.00  0.00     0.069 C 
HETATM    4  C   UNL     1      39.964 -14.230   0.770  1.00  0.00    -0.016 A 
HETATM    5  C   UNL     1      41.007 -14.321  -0.182  1.00  0.00     0.035 A 
HETATM    6  C   UNL     1      40.463 -14.202  -1.444  1.00  0.00     0.014 A 
HETATM    7  C   UNL     1      41.208 -14.156  -2.735  1.00  0.00     0.068 C 
ENDROOT
BRANCH   4   8
HETATM    8  C   UNL     1      40.142 -14.346   2.249  1.00  0.00     0.165 C 
BRANCH   8   9
HETATM    9  N   UNL     1      40.581 -15.692   2.531  1.00  0.00    -0.339 N 
HETATM   10  C   UNL     1      41.686 -15.906   3.307  1.00  0.00     0.316 C 
HETATM   11  N   UNL     1      42.059 -17.221   3.270  1.00  0.00    -0.339 N 
HETATM   12  O   UNL     1      42.285 -15.033   3.917  1.00  0.00    -0.247 OA
HETATM   13  H   UNL     1      41.312 -17.887   3.151  1.00  0.00     0.164 HD
HETATM   14  H   UNL     1      40.423 -16.376   1.805  1.00  0.00     0.164 HD
BRANCH  11  15
HETATM   15  C   UNL     1      43.231 -17.677   3.978  1.00  0.00     0.162 C 
BRANCH  15  16
HETATM   16  C   UNL     1      43.643 -19.040   3.482  1.00  0.00    -0.040 A 
HETATM   17  C   UNL     1      43.149 -19.522   2.260  1.00  0.00     0.009 A 
HETATM   18  C   UNL     1      43.509 -20.788   1.797  1.00  0.00     0.001 A 
HETATM   19  C   UNL     1      44.373 -21.583   2.548  1.00  0.00     0.000 A 
HETATM   20  C   UNL     1      44.876 -21.111   3.760  1.00  0.00     0.001 A 
HETATM   21  C   UNL     1      44.513 -19.846   4.226  1.00  0.00     0.009 A 
ENDBRANCH  15  16
ENDBRANCH  11  15
ENDBRANCH   8   9
ENDBRANCH   4   8
BRANCH   1  22
HETATM   22  C   UNL     1      38.163 -13.805  -2.369  1.00  0.00     0.039 A 
HETATM   23  C   UNL     1      37.683 -14.891  -3.110  1.00  0.00     0.030 A 
HETATM   24  C   UNL     1      36.756 -14.684  -4.136  1.00  0.00     0.009 A 
HETATM   25  C   UNL     1      36.312 -13.393  -4.444  1.00  0.00    -0.062 A 
HETATM   26  C   UNL     1      35.287 -13.177  -5.517  1.00  0.00     0.048 C 
HETATM   27  C   UNL     1      36.791 -12.311  -3.696  1.00  0.00     0.009 A 
HETATM   28  C   UNL     1      37.714 -12.514  -2.665  1.00  0.00     0.030 A 
ENDBRANCH   1  22
TORSDOF 5
ENDMDL
MODEL 8
REMARK VINA RESULT:      -8.0      8.039     10.750
REMARK  5 active torsions:
REMARK  status: ('A' for Active; 'I' for Inactive)
REMARK    1  A    between atoms: C_5  and  N_6 
REMARK    2  A    between atoms: C_9  and  C_10 
REMARK    3  A    between atoms: C_10  and  N_11 
REMARK       I    between atoms: N_11  and  C_12 
REMARK       I    between atoms: C_12  and  N_13 
REMARK    4  A    between atoms: N_13  and  C_14 
REMARK    5  A    between atoms: C_14  and  C_15 
ROOT
HETATM    1  N   UNL     1      42.836 -17.749   3.212  1.00  0.00    -0.319 N 
HETATM    2  C   UNL     1      41.680 -17.181   3.753  1.00  0.00     0.021 A 
HETATM    3  C   UNL     1      41.031 -17.654   5.014  1.00  0.00     0.069 C 
HETATM    4  C   UNL     1      41.318 -16.086   2.977  1.00  0.00    -0.016 A 
HETATM    5  C   UNL     1      42.304 -15.957   1.970  1.00  0.00     0.035 A 
HETATM    6  C   UNL     1      43.228 -16.968   2.128  1.00  0.00     0.014 A 
HETATM    7  C   UNL     1      44.388 -17.263   1.238  1.00  0.00     0.068 C 
ENDROOT
BRANCH   4   8
HETATM    8  C   UNL     1      40.160 -15.159   3.165  1.00  0.00     0.165 C 
BRANCH   8   9
HETATM    9  N   UNL     1      40.196 -14.195   2.091  1.00  0.00    -0.339 N 
HETATM   10  C   UNL     1      39.155 -14.112   1.209  1.00  0.00     0.316 C 
HETATM   11  N   UNL     1      39.476 -13.305   0.152  1.00  0.00    -0.339 N 
HETATM   12  O   UNL     1      38.096 -14.710   1.326  1.00  0.00    -0.247 OA
HETATM   13  H   UNL     1      40.111 -12.548   0.354  1.00  0.00     0.164 HD
HETATM   14  H   UNL     1      41.105 -13.984   1.708  1.00  0.00     0.164 HD
BRANCH  11  15
HETATM   15  C   UNL     1      38.546 -13.102  -0.933  1.00  0.00     0.162 C 
BRANCH  15  16
HETATM   16  C   UNL     1      38.781 -14.122  -2.018  1.00  0.00    -0.040 A 
HETATM   17  C   UNL     1      40.055 -14.687  -2.188  1.00  0.00     0.009 A 
HETATM   18  C   UNL     1      40.290 -15.620  -3.198  1.00  0.00     0.001 A 
HETATM   19  C   UNL     1      39.252 -16.004  -4.045  1.00  0.00     0.000 A 
HETATM   20  C   UNL     1      37.980 -15.454  -3.881  1.00  0.00     0.001 A 
HETATM   21  C   UNL     1      37.745 -14.518  -2.873  1.00  0.00     0.009 A 
ENDBRANCH  15  16
ENDBRANCH  11  15
ENDBRANCH   8   9
ENDBRANCH   4   8
BRANCH   1  22
HETATM   22  C   UNL     1      43.489 -18.927   3.677  1.00  0.00     0.039 A 
HETATM   23  C   UNL     1      43.898 -19.018   5.012  1.00  0.00     0.030 A 
HETATM   24  C   UNL     1      44.518 -20.181   5.477  1.00  0.00     0.009 A 
HETATM   25  C   UNL     1      44.751 -21.257   4.613  1.00  0.00    -0.062 A 
HETATM   26  C   UNL     1      45.378 -22.521   5.123  1.00  0.00     0.048 C 
HETATM   27  C   UNL     1      44.334 -21.163   3.280  1.00  0.00     0.009 A 
HETATM   28  C   UNL     1      43.709 -20.003   2.812  1.00  0.00     0.030 A 
ENDBRANCH   1  22
TORSDOF 5
ENDMDL
MODEL 9
REMARK VINA RESULT:      -8.0      8.273     11.336
REMARK  5 active torsions:
REMARK  status: ('A' for Active; 'I' for Inactive)
REMARK    1  A    between atoms: C_5  and  N_6 
REMARK    2  A    between atoms: C_9  and  C_10 
REMARK    3  A    between atoms: C_10  and  N_11 
REMARK       I    between atoms: N_11  and  C_12 
REMARK       I    between atoms: C_12  and  N_13 
REMARK    4  A    between atoms: N_13  and  C_14 
REMARK    5  A    between atoms: C_14  and  C_15 
ROOT
HETATM    1  N   UNL     1      41.288 -13.934  -1.261  1.00  0.00    -0.319 N 
HETATM    2  C   UNL     1      41.496 -13.731   0.105  1.00  0.00     0.021 A 
HETATM    3  C   UNL     1      41.658 -12.383   0.731  1.00  0.00     0.069 C 
HETATM    4  C   UNL     1      41.436 -14.960   0.751  1.00  0.00    -0.016 A 
HETATM    5  C   UNL     1      41.137 -15.926  -0.239  1.00  0.00     0.035 A 
HETATM    6  C   UNL     1      41.039 -15.290  -1.459  1.00  0.00     0.014 A 
HETATM    7  C   UNL     1      40.822 -15.935  -2.786  1.00  0.00     0.068 C 
ENDROOT
BRANCH   4   8
HETATM    8  C   UNL     1      41.589 -15.248   2.210  1.00  0.00     0.165 C 
BRANCH   8   9
HETATM    9  N   UNL     1      42.658 -16.208   2.354  1.00  0.00    -0.339 N 
HETATM   10  C   UNL     1      42.748 -16.969   3.486  1.00  0.00     0.316 C 
HETATM   11  N   UNL     1      43.936 -17.644   3.525  1.00  0.00    -0.339 N 
HETATM   12  O   UNL     1      41.901 -17.009   4.365  1.00  0.00    -0.247 OA
HETATM   13  H   UNL     1      44.322 -17.908   2.631  1.00  0.00     0.164 HD
HETATM   14  H   UNL     1      43.538 -15.966   1.924  1.00  0.00     0.164 HD
BRANCH  11  15
HETATM   15  C   UNL     1      44.277 -18.480   4.652  1.00  0.00     0.162 C 
BRANCH  15  16
HETATM   16  C   UNL     1      44.383 -19.920   4.221  1.00  0.00    -0.040 A 
HETATM   17  C   UNL     1      44.649 -20.920   5.170  1.00  0.00     0.009 A 
HETATM   18  C   UNL     1      44.766 -22.255   4.782  1.00  0.00     0.001 A 
HETATM   19  C   UNL     1      44.612 -22.606   3.442  1.00  0.00     0.000 A 
HETATM   20  C   UNL     1      44.341 -21.622   2.492  1.00  0.00     0.001 A 
HETATM   21  C   UNL     1      44.227 -20.285   2.878  1.00  0.00     0.009 A 
ENDBRANCH  15  16
ENDBRANCH  11  15
ENDBRANCH   8   9
ENDBRANCH   4   8
BRANCH   1  22
HETATM   22  C   UNL     1      41.337 -12.935  -2.276  1.00  0.00     0.039 A 
HETATM   23  C   UNL     1      42.561 -12.595  -2.864  1.00  0.00     0.030 A 
HETATM   24  C   UNL     1      42.608 -11.633  -3.876  1.00  0.00     0.009 A 
HETATM   25  C   UNL     1      41.441 -10.987  -4.300  1.00  0.00    -0.062 A 
HETATM   26  C   UNL     1      41.488  -9.984  -5.414  1.00  0.00     0.048 C 
HETATM   27  C   UNL     1      40.219 -11.335  -3.713  1.00  0.00     0.009 A 
HETATM   28  C   UNL     1      40.165 -12.302  -2.704  1.00  0.00     0.030 A 
ENDBRANCH   1  22
TORSDOF 5
ENDMDL
MODEL 10
REMARK VINA RESULT:      -7.9      6.069      9.270
REMARK  5 active torsions:
REMARK  status: ('A' for Active; 'I' for Inactive)
REMARK    1  A    between atoms: C_5  and  N_6 
REMARK    2  A    between atoms: C_9  and  C_10 
REMARK    3  A    between atoms: C_10  and  N_11 
REMARK       I    between atoms: N_11  and  C_12 
REMARK       I    between atoms: C_12  and  N_13 
REMARK    4  A    between atoms: N_13  and  C_14 
REMARK    5  A    between atoms: C_14  and  C_15 
ROOT
HETATM    1  N   UNL     1      41.296 -14.257   2.555  1.00  0.00    -0.319 N 
HETATM    2  C   UNL     1      42.195 -14.882   3.422  1.00  0.00     0.021 A 
HETATM    3  C   UNL     1      43.483 -15.500   2.982  1.00  0.00     0.069 C 
HETATM    4  C   UNL     1      41.726 -14.744   4.723  1.00  0.00    -0.016 A 
HETATM    5  C   UNL     1      40.539 -13.977   4.648  1.00  0.00     0.035 A 
HETATM    6  C   UNL     1      40.291 -13.677   3.325  1.00  0.00     0.014 A 
HETATM    7  C   UNL     1      39.102 -12.960   2.781  1.00  0.00     0.068 C 
ENDROOT
BRANCH   4   8
HETATM    8  C   UNL     1      42.348 -15.238   5.989  1.00  0.00     0.165 C 
BRANCH   8   9
HETATM    9  N   UNL     1      42.356 -16.681   5.937  1.00  0.00    -0.339 N 
HETATM   10  C   UNL     1      43.532 -17.365   6.070  1.00  0.00     0.316 C 
HETATM   11  N   UNL     1      43.360 -18.689   5.772  1.00  0.00    -0.339 N 
HETATM   12  O   UNL     1      44.601 -16.857   6.372  1.00  0.00    -0.247 OA
HETATM   13  H   UNL     1      42.452 -19.073   5.985  1.00  0.00     0.164 HD
HETATM   14  H   UNL     1      41.670 -17.111   5.335  1.00  0.00     0.164 HD
BRANCH  11  15
HETATM   15  C   UNL     1      44.476 -19.604   5.798  1.00  0.00     0.162 C 
BRANCH  15  16
HETATM   16  C   UNL     1      44.462 -20.478   4.571  1.00  0.00    -0.040 A 
HETATM   17  C   UNL     1      44.679 -21.860   4.689  1.00  0.00     0.009 A 
HETATM   18  C   UNL     1      44.685 -22.679   3.559  1.00  0.00     0.001 A 
HETATM   19  C   UNL     1      44.467 -22.126   2.299  1.00  0.00     0.000 A 
HETATM   20  C   UNL     1      44.244 -20.755   2.170  1.00  0.00     0.001 A 
HETATM   21  C   UNL     1      44.241 -19.935   3.299  1.00  0.00     0.009 A 
ENDBRANCH  15  16
ENDBRANCH  11  15
ENDBRANCH   8   9
ENDBRANCH   4   8
BRANCH   1  22
HETATM   22  C   UNL     1      41.382 -14.230   1.132  1.00  0.00     0.039 A 
HETATM   23  C   UNL     1      41.006 -15.355   0.388  1.00  0.00     0.030 A 
HETATM   24  C   UNL     1      41.067 -15.324  -1.008  1.00  0.00     0.009 A 
HETATM   25  C   UNL     1      41.518 -14.179  -1.675  1.00  0.00    -0.062 A 
HETATM   26  C   UNL     1      41.543 -14.132  -3.174  1.00  0.00     0.048 C 
HETATM   27  C   UNL     1      41.886 -13.055  -0.926  1.00  0.00     0.009 A 
HETATM   28  C   UNL     1      41.822 -13.079   0.471  1.00  0.00     0.030 A 
ENDBRANCH   1  22
TORSDOF 5
ENDMDL
