MODEL 1
REMARK VINA RESULT:      -9.4      0.000      0.000
REMARK  2 active torsions:
REMARK  status: ('A' for Active; 'I' for Inactive)
REMARK    1  A    between atoms: C_2  and  C_3 
REMARK    2  A    between atoms: C_3  and  C_4 
ROOT
HETATM    1  C   UNL     1      41.004 -15.955   3.195  1.00  0.00     0.085 A 
HETATM    2  S   UNL     1      41.934 -16.261   4.604  1.00  0.00    -0.063 SA
HETATM    3  C   UNL     1      42.677 -17.619   3.904  1.00  0.00     0.111 A 
HETATM    4  C   UNL     1      42.267 -17.845   2.600  1.00  0.00     0.028 A 
HETATM    5  C   UNL     1      41.314 -16.850   2.186  1.00  0.00     0.060 A 
HETATM    6  N   UNL     1      40.796 -16.814   0.934  1.00  0.00    -0.397 N 
HETATM    7  N   UNL     1      43.566 -18.347   4.607  1.00  0.00    -0.245 NA
HETATM    8  C   UNL     1      44.097 -19.403   3.950  1.00  0.00     0.042 A 
HETATM    9  C   UNL     1      43.769 -19.756   2.639  1.00  0.00    -0.033 A 
HETATM   10  C   UNL     1      44.375 -20.953   1.952  1.00  0.00     0.040 C 
HETATM   11  C   UNL     1      44.002 -22.276   2.620  1.00  0.00     0.005 C 
HETATM   12  C   UNL     1      44.826 -22.594   3.867  1.00  0.00     0.001 C 
HETATM   13  C   UNL     1      44.624 -21.630   5.036  1.00  0.00     0.006 C 
HETATM   14  C   UNL     1      45.097 -20.207   4.747  1.00  0.00     0.060 C 
HETATM   15  C   UNL     1      42.843 -18.958   1.951  1.00  0.00     0.026 A 
HETATM   16  H   UNL     1      41.193 -17.383   0.191  1.00  0.00     0.156 HD
HETATM   17  H   UNL     1      40.321 -15.991   0.567  1.00  0.00     0.156 HD
ENDROOT
BRANCH   1  18
HETATM   18  C   UNL     1      40.076 -14.838   3.230  1.00  0.00     0.201 C 
HETATM   19  O   UNL     1      39.097 -14.744   2.491  1.00  0.00    -0.286 OA
BRANCH  18  20
HETATM   20  C   UNL     1      40.293 -13.727   4.205  1.00  0.00     0.018 A 
HETATM   21  C   UNL     1      41.362 -12.830   3.971  1.00  0.00     0.018 A 
HETATM   22  C   UNL     1      41.618 -11.775   4.852  1.00  0.00     0.040 A 
HETATM   23  C   UNL     1      40.802 -11.651   5.954  1.00  0.00     0.105 A 
HETATM   24  C   UNL     1      39.771 -12.531   6.196  1.00  0.00     0.106 A 
HETATM   25  O   UNL     1      40.901 -10.693   6.913  1.00  0.00    -0.323 OA
HETATM   26  C   UNL     1      39.492 -13.583   5.347  1.00  0.00     0.055 A 
HETATM   27  O   UNL     1      39.096 -12.235   7.339  1.00  0.00    -0.323 OA
HETATM   28  C   UNL     1      39.822 -11.074   7.794  1.00  0.00     0.352 A 
ENDBRANCH  18  20
ENDBRANCH   1  18
TORSDOF 2
ENDMDL
MODEL 2
REMARK VINA RESULT:      -9.2      1.180      1.218
REMARK  2 active torsions:
REMARK  status: ('A' for Active; 'I' for Inactive)
REMARK    1  A    between atoms: C_2  and  C_3 
REMARK    2  A    between atoms: C_3  and  C_4 
ROOT
HETATM    1  C   UNL     1      40.771 -16.214   2.629  1.00  0.00     0.085 A 
HETATM    2  S   UNL     1      41.523 -16.316   4.168  1.00  0.00    -0.063 SA
HETATM    3  C   UNL     1      42.455 -17.658   3.703  1.00  0.00     0.111 A 
HETATM    4  C   UNL     1      42.242 -18.031   2.385  1.00  0.00     0.028 A 
HETATM    5  C   UNL     1      41.282 -17.163   1.759  1.00  0.00     0.060 A 
HETATM    6  N   UNL     1      40.936 -17.280   0.454  1.00  0.00    -0.397 N 
HETATM    7  N   UNL     1      43.293 -18.242   4.581  1.00  0.00    -0.245 NA
HETATM    8  C   UNL     1      43.986 -19.300   4.102  1.00  0.00     0.042 A 
HETATM    9  C   UNL     1      43.866 -19.792   2.801  1.00  0.00    -0.033 A 
HETATM   10  C   UNL     1      44.647 -20.986   2.316  1.00  0.00     0.040 C 
HETATM   11  C   UNL     1      44.289 -22.274   3.056  1.00  0.00     0.005 C 
HETATM   12  C   UNL     1      44.959 -22.410   4.423  1.00  0.00     0.001 C 
HETATM   13  C   UNL     1      44.528 -21.371   5.457  1.00  0.00     0.006 C 
HETATM   14  C   UNL     1      44.927 -19.942   5.095  1.00  0.00     0.060 C 
HETATM   15  C   UNL     1      42.984 -19.140   1.926  1.00  0.00     0.026 A 
HETATM   16  H   UNL     1      41.471 -17.874  -0.174  1.00  0.00     0.156 HD
HETATM   17  H   UNL     1      40.454 -16.537  -0.048  1.00  0.00     0.156 HD
ENDROOT
BRANCH   1  18
HETATM   18  C   UNL     1      39.766 -15.184   2.437  1.00  0.00     0.201 C 
HETATM   19  O   UNL     1      38.708 -15.370   1.835  1.00  0.00    -0.286 OA
BRANCH  18  20
HETATM   20  C   UNL     1      39.995 -13.815   2.988  1.00  0.00     0.018 A 
HETATM   21  C   UNL     1      41.042 -13.038   2.437  1.00  0.00     0.018 A 
HETATM   22  C   UNL     1      41.308 -11.751   2.916  1.00  0.00     0.040 A 
HETATM   23  C   UNL     1      40.526 -11.279   3.946  1.00  0.00     0.105 A 
HETATM   24  C   UNL     1      39.518 -12.037   4.497  1.00  0.00     0.106 A 
HETATM   25  O   UNL     1      40.640 -10.060   4.536  1.00  0.00    -0.323 OA
HETATM   26  C   UNL     1      39.229 -13.309   4.049  1.00  0.00     0.055 A 
HETATM   27  O   UNL     1      38.875 -11.388   5.505  1.00  0.00    -0.323 OA
HETATM   28  C   UNL     1      39.597 -10.138   5.530  1.00  0.00     0.352 A 
ENDBRANCH  18  20
ENDBRANCH   1  18
TORSDOF 2
ENDMDL
MODEL 3
REMARK VINA RESULT:      -9.1      2.652      3.411
REMARK  2 active torsions:
REMARK  status: ('A' for Active; 'I' for Inactive)
REMARK    1  A    between atoms: C_2  and  C_3 
REMARK    2  A    between atoms: C_3  and  C_4 
ROOT
HETATM    1  C   UNL     1      40.908 -16.023   2.354  1.00  0.00     0.085 A 
HETATM    2  S   UNL     1      41.537 -16.084   3.950  1.00  0.00    -0.063 SA
HETATM    3  C   UNL     1      42.490 -17.445   3.598  1.00  0.00     0.111 A 
HETATM    4  C   UNL     1      42.377 -17.856   2.279  1.00  0.00     0.028 A 
HETATM    5  C   UNL     1      41.477 -17.000   1.555  1.00  0.00     0.060 A 
HETATM    6  N   UNL     1      41.233 -17.154   0.231  1.00  0.00    -0.397 N 
HETATM    7  N   UNL     1      43.252 -18.009   4.555  1.00  0.00    -0.245 NA
HETATM    8  C   UNL     1      43.971 -19.085   4.163  1.00  0.00     0.042 A 
HETATM    9  C   UNL     1      43.948 -19.615   2.871  1.00  0.00    -0.033 A 
HETATM   10  C   UNL     1      44.754 -20.827   2.484  1.00  0.00     0.040 C 
HETATM   11  C   UNL     1      44.327 -22.091   3.231  1.00  0.00     0.005 C 
HETATM   12  C   UNL     1      44.888 -22.191   4.649  1.00  0.00     0.001 C 
HETATM   13  C   UNL     1      44.387 -21.118   5.616  1.00  0.00     0.006 C 
HETATM   14  C   UNL     1      44.825 -19.703   5.244  1.00  0.00     0.060 C 
HETATM   15  C   UNL     1      43.142 -18.983   1.912  1.00  0.00     0.026 A 
HETATM   16  H   UNL     1      41.810 -17.769  -0.336  1.00  0.00     0.156 HD
HETATM   17  H   UNL     1      40.798 -16.423  -0.329  1.00  0.00     0.156 HD
ENDROOT
BRANCH   1  18
HETATM   18  C   UNL     1      39.930 -14.992   2.054  1.00  0.00     0.201 C 
HETATM   19  O   UNL     1      38.714 -15.181   2.079  1.00  0.00    -0.286 OA
BRANCH  18  20
HETATM   20  C   UNL     1      40.390 -13.618   1.695  1.00  0.00     0.018 A 
HETATM   21  C   UNL     1      39.693 -12.514   2.238  1.00  0.00     0.018 A 
HETATM   22  C   UNL     1      40.074 -11.203   1.933  1.00  0.00     0.040 A 
HETATM   23  C   UNL     1      41.140 -11.032   1.078  1.00  0.00     0.105 A 
HETATM   24  C   UNL     1      41.812 -12.102   0.533  1.00  0.00     0.106 A 
HETATM   25  O   UNL     1      41.648  -9.839   0.671  1.00  0.00    -0.323 OA
HETATM   26  C   UNL     1      41.461 -13.407   0.813  1.00  0.00     0.055 A 
HETATM   27  O   UNL     1      42.824 -11.713  -0.288  1.00  0.00    -0.323 OA
HETATM   28  C   UNL     1      42.709 -10.277  -0.203  1.00  0.00     0.352 A 
ENDBRANCH  18  20
ENDBRANCH   1  18
TORSDOF 2
ENDMDL
MODEL 4
REMARK VINA RESULT:      -8.8      2.895      4.387
REMARK  2 active torsions:
REMARK  status: ('A' for Active; 'I' for Inactive)
REMARK    1  A    between atoms: C_2  and  C_3 
REMARK    2  A    between atoms: C_3  and  C_4 
ROOT
HETATM    1  C   UNL     1      40.998 -16.068   2.346  1.00  0.00     0.085 A 
HETATM    2  S   UNL     1      41.781 -16.064   3.873  1.00  0.00    -0.063 SA
HETATM    3  C   UNL     1      42.627 -17.495   3.523  1.00  0.00     0.111 A 
HETATM    4  C   UNL     1      42.362 -17.979   2.251  1.00  0.00     0.028 A 
HETATM    5  C   UNL     1      41.435 -17.122   1.563  1.00  0.00     0.060 A 
HETATM    6  N   UNL     1      41.052 -17.343   0.282  1.00  0.00    -0.397 N 
HETATM    7  N   UNL     1      43.453 -18.039   4.436  1.00  0.00    -0.245 NA
HETATM    8  C   UNL     1      44.076 -19.175   4.049  1.00  0.00     0.042 A 
HETATM    9  C   UNL     1      43.897 -19.782   2.803  1.00  0.00    -0.033 A 
HETATM   10  C   UNL     1      44.601 -21.058   2.421  1.00  0.00     0.040 C 
HETATM   11  C   UNL     1      44.191 -22.248   3.289  1.00  0.00     0.005 C 
HETATM   12  C   UNL     1      44.886 -22.291   4.649  1.00  0.00     0.001 C 
HETATM   13  C   UNL     1      44.538 -21.135   5.586  1.00  0.00     0.006 C 
HETATM   14  C   UNL     1      45.005 -19.771   5.080  1.00  0.00     0.060 C 
HETATM   15  C   UNL     1      43.030 -19.167   1.887  1.00  0.00     0.026 A 
HETATM   16  H   UNL     1      41.538 -18.023  -0.297  1.00  0.00     0.156 HD
HETATM   17  H   UNL     1      40.598 -16.626  -0.281  1.00  0.00     0.156 HD
ENDROOT
BRANCH   1  18
HETATM   18  C   UNL     1      40.045 -15.005   2.075  1.00  0.00     0.201 C 
HETATM   19  O   UNL     1      39.113 -14.720   2.827  1.00  0.00    -0.286 OA
BRANCH  18  20
HETATM   20  C   UNL     1      40.176 -14.196   0.828  1.00  0.00     0.018 A 
HETATM   21  C   UNL     1      41.442 -13.646   0.516  1.00  0.00     0.018 A 
HETATM   22  C   UNL     1      41.624 -12.873  -0.636  1.00  0.00     0.040 A 
HETATM   23  C   UNL     1      40.528 -12.661  -1.442  1.00  0.00     0.105 A 
HETATM   24  C   UNL     1      39.290 -13.179  -1.134  1.00  0.00     0.106 A 
HETATM   25  O   UNL     1      40.516 -11.939  -2.594  1.00  0.00    -0.323 OA
HETATM   26  C   UNL     1      39.076 -13.944  -0.006  1.00  0.00     0.055 A 
HETATM   27  O   UNL     1      38.346 -12.844  -2.055  1.00  0.00    -0.323 OA
HETATM   28  C   UNL     1      39.128 -12.051  -2.973  1.00  0.00     0.352 A 
ENDBRANCH  18  20
ENDBRANCH   1  18
TORSDOF 2
ENDMDL
MODEL 5
REMARK VINA RESULT:      -8.8      4.217      8.158
REMARK  2 active torsions:
REMARK  status: ('A' for Active; 'I' for Inactive)
REMARK    1  A    between atoms: C_2  and  C_3 
REMARK    2  A    between atoms: C_3  and  C_4 
ROOT
HETATM    1  C   UNL     1      41.536 -15.652   3.002  1.00  0.00     0.085 A 
HETATM    2  S   UNL     1      42.672 -14.393   2.735  1.00  0.00    -0.063 SA
HETATM    3  C   UNL     1      41.875 -13.877   1.326  1.00  0.00     0.111 A 
HETATM    4  C   UNL     1      40.735 -14.615   1.051  1.00  0.00     0.028 A 
HETATM    5  C   UNL     1      40.530 -15.627   2.052  1.00  0.00     0.060 A 
HETATM    6  N   UNL     1      39.454 -16.452   2.045  1.00  0.00    -0.397 N 
HETATM    7  N   UNL     1      42.361 -12.848   0.607  1.00  0.00    -0.245 NA
HETATM    8  C   UNL     1      41.646 -12.521  -0.493  1.00  0.00     0.042 A 
HETATM    9  C   UNL     1      40.484 -13.183  -0.898  1.00  0.00    -0.033 A 
HETATM   10  C   UNL     1      39.727 -12.795  -2.141  1.00  0.00     0.040 C 
HETATM   11  C   UNL     1      40.537 -13.002  -3.421  1.00  0.00     0.005 C 
HETATM   12  C   UNL     1      41.544 -11.887  -3.704  1.00  0.00     0.001 C 
HETATM   13  C   UNL     1      42.673 -11.765  -2.682  1.00  0.00     0.006 C 
HETATM   14  C   UNL     1      42.198 -11.361  -1.287  1.00  0.00     0.060 C 
HETATM   15  C   UNL     1      40.018 -14.244  -0.106  1.00  0.00     0.026 A 
HETATM   16  H   UNL     1      38.664 -16.271   1.431  1.00  0.00     0.156 HD
HETATM   17  H   UNL     1      39.180 -16.993   2.862  1.00  0.00     0.156 HD
ENDROOT
BRANCH   1  18
HETATM   18  C   UNL     1      41.752 -16.522   4.145  1.00  0.00     0.201 C 
HETATM   19  O   UNL     1      41.262 -16.318   5.256  1.00  0.00    -0.286 OA
BRANCH  18  20
HETATM   20  C   UNL     1      42.607 -17.737   3.999  1.00  0.00     0.018 A 
HETATM   21  C   UNL     1      43.462 -18.087   5.070  1.00  0.00     0.018 A 
HETATM   22  C   UNL     1      44.291 -19.211   4.989  1.00  0.00     0.040 A 
HETATM   23  C   UNL     1      44.250 -19.950   3.828  1.00  0.00     0.105 A 
HETATM   24  C   UNL     1      43.434 -19.604   2.775  1.00  0.00     0.106 A 
HETATM   25  O   UNL     1      44.982 -21.067   3.571  1.00  0.00    -0.323 OA
HETATM   26  C   UNL     1      42.605 -18.503   2.823  1.00  0.00     0.055 A 
HETATM   27  O   UNL     1      43.553 -20.461   1.725  1.00  0.00    -0.323 OA
HETATM   28  C   UNL     1      44.542 -21.380   2.232  1.00  0.00     0.352 A 
ENDBRANCH  18  20
ENDBRANCH   1  18
TORSDOF 2
ENDMDL
MODEL 6
REMARK VINA RESULT:      -8.7      3.598      8.376
REMARK  2 active torsions:
REMARK  status: ('A' for Active; 'I' for Inactive)
REMARK    1  A    between atoms: C_2  and  C_3 
REMARK    2  A    between atoms: C_3  and  C_4 
ROOT
HETATM    1  C   UNL     1      42.758 -16.461   4.130  1.00  0.00     0.085 A 
HETATM    2  S   UNL     1      43.485 -15.255   3.148  1.00  0.00    -0.063 SA
HETATM    3  C   UNL     1      41.980 -14.711   2.580  1.00  0.00     0.111 A 
HETATM    4  C   UNL     1      40.913 -15.398   3.137  1.00  0.00     0.028 A 
HETATM    5  C   UNL     1      41.377 -16.396   4.062  1.00  0.00     0.060 A 
HETATM    6  N   UNL     1      40.531 -17.171   4.783  1.00  0.00    -0.397 N 
HETATM    7  N   UNL     1      41.912 -13.707   1.684  1.00  0.00    -0.245 NA
HETATM    8  C   UNL     1      40.663 -13.354   1.304  1.00  0.00     0.042 A 
HETATM    9  C   UNL     1      39.498 -13.965   1.774  1.00  0.00    -0.033 A 
HETATM   10  C   UNL     1      38.127 -13.549   1.309  1.00  0.00     0.040 C 
HETATM   11  C   UNL     1      37.902 -13.797  -0.182  1.00  0.00     0.005 C 
HETATM   12  C   UNL     1      38.516 -12.730  -1.088  1.00  0.00     0.001 C 
HETATM   13  C   UNL     1      40.042 -12.654  -1.050  1.00  0.00     0.006 C 
HETATM   14  C   UNL     1      40.602 -12.224   0.304  1.00  0.00     0.060 C 
HETATM   15  C   UNL     1      39.627 -15.000   2.712  1.00  0.00     0.026 A 
HETATM   16  H   UNL     1      39.538 -16.957   4.825  1.00  0.00     0.156 HD
HETATM   17  H   UNL     1      40.838 -17.696   5.600  1.00  0.00     0.156 HD
ENDROOT
BRANCH   1  18
HETATM   18  C   UNL     1      43.639 -17.335   4.886  1.00  0.00     0.201 C 
HETATM   19  O   UNL     1      44.169 -17.011   5.949  1.00  0.00    -0.286 OA
BRANCH  18  20
HETATM   20  C   UNL     1      43.937 -18.706   4.375  1.00  0.00     0.018 A 
HETATM   21  C   UNL     1      44.572 -19.621   5.247  1.00  0.00     0.018 A 
HETATM   22  C   UNL     1      44.882 -20.918   4.823  1.00  0.00     0.040 A 
HETATM   23  C   UNL     1      44.557 -21.261   3.529  1.00  0.00     0.105 A 
HETATM   24  C   UNL     1      43.955 -20.369   2.672  1.00  0.00     0.106 A 
HETATM   25  O   UNL     1      44.782 -22.469   2.947  1.00  0.00    -0.323 OA
HETATM   26  C   UNL     1      43.636 -19.083   3.058  1.00  0.00     0.055 A 
HETATM   27  O   UNL     1      43.728 -20.906   1.442  1.00  0.00    -0.323 OA
HETATM   28  C   UNL     1      44.263 -22.234   1.621  1.00  0.00     0.352 A 
ENDBRANCH  18  20
ENDBRANCH   1  18
TORSDOF 2
ENDMDL
MODEL 7
REMARK VINA RESULT:      -8.4      3.377      8.508
REMARK  2 active torsions:
REMARK  status: ('A' for Active; 'I' for Inactive)
REMARK    1  A    between atoms: C_2  and  C_3 
REMARK    2  A    between atoms: C_3  and  C_4 
ROOT
HETATM    1  C   UNL     1      42.334 -15.849   6.249  1.00  0.00     0.085 A 
HETATM    2  S   UNL     1      43.306 -14.472   5.925  1.00  0.00    -0.063 SA
HETATM    3  C   UNL     1      41.960 -13.539   5.479  1.00  0.00     0.111 A 
HETATM    4  C   UNL     1      40.763 -14.229   5.594  1.00  0.00     0.028 A 
HETATM    5  C   UNL     1      40.991 -15.565   6.073  1.00  0.00     0.060 A 
HETATM    6  N   UNL     1      39.979 -16.432   6.324  1.00  0.00    -0.397 N 
HETATM    7  N   UNL     1      42.119 -12.265   5.070  1.00  0.00    -0.245 NA
HETATM    8  C   UNL     1      40.979 -11.616   4.742  1.00  0.00     0.042 A 
HETATM    9  C   UNL     1      39.706 -12.189   4.799  1.00  0.00    -0.033 A 
HETATM   10  C   UNL     1      38.464 -11.432   4.408  1.00  0.00     0.040 C 
HETATM   11  C   UNL     1      38.445 -11.039   2.931  1.00  0.00     0.005 C 
HETATM   12  C   UNL     1      39.282  -9.802   2.608  1.00  0.00     0.001 C 
HETATM   13  C   UNL     1      40.786  -9.966   2.830  1.00  0.00     0.006 C 
HETATM   14  C   UNL     1      41.171 -10.188   4.291  1.00  0.00     0.060 C 
HETATM   15  C   UNL     1      39.598 -13.516   5.240  1.00  0.00     0.026 A 
HETATM   16  H   UNL     1      39.015 -16.112   6.348  1.00  0.00     0.156 HD
HETATM   17  H   UNL     1      40.111 -17.274   6.881  1.00  0.00     0.156 HD
ENDROOT
BRANCH   1  18
HETATM   18  C   UNL     1      43.008 -17.066   6.668  1.00  0.00     0.201 C 
HETATM   19  O   UNL     1      43.250 -17.339   7.843  1.00  0.00    -0.286 OA
BRANCH  18  20
HETATM   20  C   UNL     1      43.444 -18.060   5.642  1.00  0.00     0.018 A 
HETATM   21  C   UNL     1      44.537 -18.904   5.949  1.00  0.00     0.018 A 
HETATM   22  C   UNL     1      44.994 -19.851   5.026  1.00  0.00     0.040 A 
HETATM   23  C   UNL     1      44.350 -19.919   3.811  1.00  0.00     0.105 A 
HETATM   24  C   UNL     1      43.298 -19.089   3.500  1.00  0.00     0.106 A 
HETATM   25  O   UNL     1      44.655 -20.772   2.797  1.00  0.00    -0.323 OA
HETATM   26  C   UNL     1      42.823 -18.145   4.387  1.00  0.00     0.055 A 
HETATM   27  O   UNL     1      42.812 -19.316   2.250  1.00  0.00    -0.323 OA
HETATM   28  C   UNL     1      43.682 -20.378   1.806  1.00  0.00     0.352 A 
ENDBRANCH  18  20
ENDBRANCH   1  18
TORSDOF 2
ENDMDL
MODEL 8
REMARK VINA RESULT:      -8.3      3.829      7.956
REMARK  2 active torsions:
REMARK  status: ('A' for Active; 'I' for Inactive)
REMARK    1  A    between atoms: C_2  and  C_3 
REMARK    2  A    between atoms: C_3  and  C_4 
ROOT
HETATM    1  C   UNL     1      42.466 -15.886   4.103  1.00  0.00     0.085 A 
HETATM    2  S   UNL     1      40.818 -15.600   4.485  1.00  0.00    -0.063 SA
HETATM    3  C   UNL     1      40.443 -15.192   2.880  1.00  0.00     0.111 A 
HETATM    4  C   UNL     1      41.533 -15.293   2.030  1.00  0.00     0.028 A 
HETATM    5  C   UNL     1      42.700 -15.729   2.748  1.00  0.00     0.060 A 
HETATM    6  N   UNL     1      43.888 -15.959   2.138  1.00  0.00    -0.397 N 
HETATM    7  N   UNL     1      39.192 -14.822   2.545  1.00  0.00    -0.245 NA
HETATM    8  C   UNL     1      39.007 -14.522   1.239  1.00  0.00     0.042 A 
HETATM    9  C   UNL     1      40.015 -14.570   0.273  1.00  0.00    -0.033 A 
HETATM   10  C   UNL     1      39.767 -14.211  -1.169  1.00  0.00     0.040 C 
HETATM   11  C   UNL     1      39.370 -12.747  -1.359  1.00  0.00     0.005 C 
HETATM   12  C   UNL     1      37.901 -12.459  -1.050  1.00  0.00     0.001 C 
HETATM   13  C   UNL     1      37.499 -12.665   0.410  1.00  0.00     0.006 C 
HETATM   14  C   UNL     1      37.599 -14.115   0.876  1.00  0.00     0.060 C 
HETATM   15  C   UNL     1      41.299 -14.970   0.676  1.00  0.00     0.026 A 
HETATM   16  H   UNL     1      43.953 -15.999   1.124  1.00  0.00     0.156 HD
HETATM   17  H   UNL     1      44.635 -16.488   2.584  1.00  0.00     0.156 HD
ENDROOT
BRANCH   1  18
HETATM   18  C   UNL     1      43.354 -16.262   5.190  1.00  0.00     0.201 C 
HETATM   19  O   UNL     1      43.910 -15.448   5.926  1.00  0.00    -0.286 OA
BRANCH  18  20
HETATM   20  C   UNL     1      43.626 -17.706   5.457  1.00  0.00     0.018 A 
HETATM   21  C   UNL     1      43.365 -18.209   6.753  1.00  0.00     0.018 A 
HETATM   22  C   UNL     1      43.606 -19.551   7.064  1.00  0.00     0.040 A 
HETATM   23  C   UNL     1      44.115 -20.355   6.068  1.00  0.00     0.105 A 
HETATM   24  C   UNL     1      44.388 -19.867   4.811  1.00  0.00     0.106 A 
HETATM   25  O   UNL     1      44.411 -21.676   6.188  1.00  0.00    -0.323 OA
HETATM   26  C   UNL     1      44.162 -18.549   4.471  1.00  0.00     0.055 A 
HETATM   27  O   UNL     1      44.891 -20.823   3.984  1.00  0.00    -0.323 OA
HETATM   28  C   UNL     1      44.911 -21.965   4.865  1.00  0.00     0.352 A 
ENDBRANCH  18  20
ENDBRANCH   1  18
TORSDOF 2
ENDMDL
MODEL 9
REMARK VINA RESULT:      -8.3      2.335      3.872
REMARK  2 active torsions:
REMARK  status: ('A' for Active; 'I' for Inactive)
REMARK    1  A    between atoms: C_2  and  C_3 
REMARK    2  A    between atoms: C_3  and  C_4 
ROOT
HETATM    1  C   UNL     1      42.229 -15.506   3.343  1.00  0.00     0.085 A 
HETATM    2  S   UNL     1      42.768 -16.097   4.861  1.00  0.00    -0.063 SA
HETATM    3  C   UNL     1      43.417 -17.503   4.163  1.00  0.00     0.111 A 
HETATM    4  C   UNL     1      43.269 -17.538   2.786  1.00  0.00     0.028 A 
HETATM    5  C   UNL     1      42.603 -16.354   2.315  1.00  0.00     0.060 A 
HETATM    6  N   UNL     1      42.383 -16.116   0.999  1.00  0.00    -0.397 N 
HETATM    7  N   UNL     1      44.001 -18.439   4.935  1.00  0.00    -0.245 NA
HETATM    8  C   UNL     1      44.485 -19.515   4.273  1.00  0.00     0.042 A 
HETATM    9  C   UNL     1      44.398 -19.689   2.890  1.00  0.00    -0.033 A 
HETATM   10  C   UNL     1      44.937 -20.913   2.197  1.00  0.00     0.040 C 
HETATM   11  C   UNL     1      44.219 -22.198   2.611  1.00  0.00     0.005 C 
HETATM   12  C   UNL     1      44.690 -22.767   3.949  1.00  0.00     0.001 C 
HETATM   13  C   UNL     1      44.396 -21.885   5.162  1.00  0.00     0.006 C 
HETATM   14  C   UNL     1      45.144 -20.554   5.150  1.00  0.00     0.060 C 
HETATM   15  C   UNL     1      43.785 -18.678   2.134  1.00  0.00     0.026 A 
HETATM   16  H   UNL     1      42.834 -16.683   0.285  1.00  0.00     0.156 HD
HETATM   17  H   UNL     1      42.138 -15.193   0.648  1.00  0.00     0.156 HD
ENDROOT
BRANCH   1  18
HETATM   18  C   UNL     1      41.508 -14.245   3.329  1.00  0.00     0.201 C 
HETATM   19  O   UNL     1      41.707 -13.339   4.138  1.00  0.00    -0.286 OA
BRANCH  18  20
HETATM   20  C   UNL     1      40.466 -14.001   2.288  1.00  0.00     0.018 A 
HETATM   21  C   UNL     1      39.293 -14.792   2.317  1.00  0.00     0.018 A 
HETATM   22  C   UNL     1      38.284 -14.613   1.364  1.00  0.00     0.040 A 
HETATM   23  C   UNL     1      38.482 -13.652   0.398  1.00  0.00     0.105 A 
HETATM   24  C   UNL     1      39.628 -12.892   0.355  1.00  0.00     0.106 A 
HETATM   25  O   UNL     1      37.616 -13.342  -0.603  1.00  0.00    -0.323 OA
HETATM   26  C   UNL     1      40.642 -13.043   1.278  1.00  0.00     0.055 A 
HETATM   27  O   UNL     1      39.625 -12.010  -0.681  1.00  0.00    -0.323 OA
HETATM   28  C   UNL     1      38.351 -12.306  -1.289  1.00  0.00     0.352 A 
ENDBRANCH  18  20
ENDBRANCH   1  18
TORSDOF 2
ENDMDL
MODEL 10
REMARK VINA RESULT:      -8.2      5.095      8.849
REMARK  2 active torsions:
REMARK  status: ('A' for Active; 'I' for Inactive)
REMARK    1  A    between atoms: C_2  and  C_3 
REMARK    2  A    between atoms: C_3  and  C_4 
ROOT
HETATM    1  C   UNL     1      41.166 -14.907   0.823  1.00  0.00     0.085 A 
HETATM    2  S   UNL     1      41.039 -15.195  -0.864  1.00  0.00    -0.063 SA
HETATM    3  C   UNL     1      41.708 -13.681  -1.245  1.00  0.00     0.111 A 
HETATM    4  C   UNL     1      42.064 -12.952  -0.121  1.00  0.00     0.028 A 
HETATM    5  C   UNL     1      41.772 -13.689   1.078  1.00  0.00     0.060 A 
HETATM    6  N   UNL     1      42.075 -13.221   2.313  1.00  0.00    -0.397 N 
HETATM    7  N   UNL     1      41.848 -13.301  -2.529  1.00  0.00    -0.245 NA
HETATM    8  C   UNL     1      42.393 -12.078  -2.715  1.00  0.00     0.042 A 
HETATM    9  C   UNL     1      42.789 -11.230  -1.678  1.00  0.00    -0.033 A 
HETATM   10  C   UNL     1      43.378  -9.867  -1.932  1.00  0.00     0.040 C 
HETATM   11  C   UNL     1      42.399  -8.912  -2.615  1.00  0.00     0.005 C 
HETATM   12  C   UNL     1      42.277  -9.124  -4.123  1.00  0.00     0.001 C 
HETATM   13  C   UNL     1      41.682 -10.469  -4.538  1.00  0.00     0.006 C 
HETATM   14  C   UNL     1      42.551 -11.668  -4.160  1.00  0.00     0.060 C 
HETATM   15  C   UNL     1      42.628 -11.680  -0.359  1.00  0.00     0.026 A 
HETATM   16  H   UNL     1      42.675 -12.409   2.429  1.00  0.00     0.156 HD
HETATM   17  H   UNL     1      42.095 -13.825   3.133  1.00  0.00     0.156 HD
ENDROOT
BRANCH   1  18
HETATM   18  C   UNL     1      40.670 -15.936   1.721  1.00  0.00     0.201 C 
HETATM   19  O   UNL     1      39.482 -16.066   2.015  1.00  0.00    -0.286 OA
BRANCH  18  20
HETATM   20  C   UNL     1      41.626 -16.904   2.336  1.00  0.00     0.018 A 
HETATM   21  C   UNL     1      42.051 -16.672   3.665  1.00  0.00     0.018 A 
HETATM   22  C   UNL     1      42.951 -17.541   4.293  1.00  0.00     0.040 A 
HETATM   23  C   UNL     1      43.411 -18.616   3.565  1.00  0.00     0.105 A 
HETATM   24  C   UNL     1      43.015 -18.836   2.266  1.00  0.00     0.106 A 
HETATM   25  O   UNL     1      44.285 -19.558   4.008  1.00  0.00    -0.323 OA
HETATM   26  C   UNL     1      42.130 -17.999   1.618  1.00  0.00     0.055 A 
HETATM   27  O   UNL     1      43.593 -19.945   1.730  1.00  0.00    -0.323 OA
HETATM   28  C   UNL     1      44.404 -20.393   2.837  1.00  0.00     0.352 A 
ENDBRANCH  18  20
ENDBRANCH   1  18
TORSDOF 2
ENDMDL
