MODEL 1
REMARK VINA RESULT:      -8.8      0.000      0.000
REMARK  2 active torsions:
REMARK  status: ('A' for Active; 'I' for Inactive)
REMARK    1  A    between atoms: C_15  and  C_16 
REMARK    2  A    between atoms: C_19  and  O_20 
ROOT
HETATM    1  C   UNL     1      43.947 -20.468   6.791  1.00  0.00     0.048 C 
HETATM    2  C   UNL     1      43.742 -19.132   6.137  1.00  0.00    -0.061 A 
HETATM    3  C   UNL     1      43.133 -19.037   4.872  1.00  0.00     0.021 A 
HETATM    4  C   UNL     1      42.964 -17.774   4.268  1.00  0.00    -0.000 A 
HETATM    5  C   UNL     1      43.407 -16.639   4.961  1.00  0.00     0.043 A 
HETATM    6  N   UNL     1      43.120 -15.538   4.184  1.00  0.00    -0.353 N 
HETATM    7  H   UNL     1      43.302 -14.576   4.435  1.00  0.00     0.166 HD
HETATM    8  C   UNL     1      42.581 -15.948   3.004  1.00  0.00     0.066 A 
HETATM    9  C   UNL     1      42.413 -17.318   3.035  1.00  0.00    -0.017 A 
HETATM   10  C   UNL     1      41.750 -18.054   1.902  1.00  0.00     0.043 C 
HETATM   11  C   UNL     1      41.049 -17.071   0.900  1.00  0.00     0.018 C 
HETATM   12  C   UNL     1      41.976 -15.881   0.583  1.00  0.00     0.065 C 
HETATM   13  C   UNL     1      42.144 -15.166   1.900  1.00  0.00     0.082 C 
HETATM   14  N   UNL     1      41.726 -13.946   1.980  1.00  0.00    -0.203 NA
HETATM   15  C   UNL     1      41.571 -14.665  -0.260  1.00  0.00     0.121 C 
HETATM   16  N   UNL     1      41.194 -13.657   0.760  1.00  0.00    -0.207 NA
HETATM   17  C   UNL     1      44.014 -16.710   6.219  1.00  0.00     0.031 A 
HETATM   18  C   UNL     1      44.177 -17.974   6.790  1.00  0.00     0.009 A 
HETATM   19  H   UNL     1      40.174 -13.614   0.842  1.00  0.00     0.149 HD
ENDROOT
BRANCH  15  20
HETATM   20  C   UNL     1      40.638 -14.762  -1.447  1.00  0.00    -0.038 A 
HETATM   21  C   UNL     1      39.408 -14.095  -1.483  1.00  0.00     0.011 A 
HETATM   22  C   UNL     1      38.500 -14.314  -2.529  1.00  0.00     0.037 A 
HETATM   23  C   UNL     1      38.780 -15.234  -3.540  1.00  0.00     0.068 A 
HETATM   24  C   UNL     1      39.995 -15.909  -3.519  1.00  0.00     0.037 A 
HETATM   25  C   UNL     1      40.905 -15.681  -2.481  1.00  0.00     0.011 A 
BRANCH  23  26
HETATM   26  O   UNL     1      37.794 -15.391  -4.474  1.00  0.00    -0.356 OA
HETATM   27  C   UNL     1      36.640 -14.572  -4.319  1.00  0.00     0.210 C 
ENDBRANCH  23  26
ENDBRANCH  15  20
TORSDOF 2
ENDMDL
MODEL 2
REMARK VINA RESULT:      -8.7      3.131      3.955
REMARK  2 active torsions:
REMARK  status: ('A' for Active; 'I' for Inactive)
REMARK    1  A    between atoms: C_15  and  C_16 
REMARK    2  A    between atoms: C_19  and  O_20 
ROOT
HETATM    1  C   UNL     1      44.756 -22.081   1.902  1.00  0.00     0.048 C 
HETATM    2  C   UNL     1      44.279 -20.869   2.648  1.00  0.00    -0.061 A 
HETATM    3  C   UNL     1      43.353 -19.984   2.065  1.00  0.00     0.021 A 
HETATM    4  C   UNL     1      42.928 -18.844   2.777  1.00  0.00    -0.000 A 
HETATM    5  C   UNL     1      43.443 -18.631   4.063  1.00  0.00     0.043 A 
HETATM    6  N   UNL     1      42.873 -17.476   4.553  1.00  0.00    -0.353 N 
HETATM    7  H   UNL     1      43.035 -17.083   5.471  1.00  0.00     0.166 HD
HETATM    8  C   UNL     1      42.078 -16.925   3.597  1.00  0.00     0.066 A 
HETATM    9  C   UNL     1      42.037 -17.766   2.503  1.00  0.00    -0.017 A 
HETATM   10  C   UNL     1      41.162 -17.467   1.316  1.00  0.00     0.043 C 
HETATM   11  C   UNL     1      40.143 -16.313   1.618  1.00  0.00     0.018 C 
HETATM   12  C   UNL     1      40.854 -15.150   2.339  1.00  0.00     0.065 C 
HETATM   13  C   UNL     1      41.304 -15.734   3.654  1.00  0.00     0.082 C 
HETATM   14  N   UNL     1      40.823 -15.219   4.737  1.00  0.00    -0.203 NA
HETATM   15  C   UNL     1      40.143 -13.911   2.898  1.00  0.00     0.121 C 
HETATM   16  N   UNL     1      39.966 -14.240   4.332  1.00  0.00    -0.207 NA
HETATM   17  C   UNL     1      44.363 -19.496   4.663  1.00  0.00     0.031 A 
HETATM   18  C   UNL     1      44.773 -20.614   3.931  1.00  0.00     0.009 A 
HETATM   19  H   UNL     1      39.004 -14.548   4.500  1.00  0.00     0.149 HD
ENDROOT
BRANCH  15  20
HETATM   20  C   UNL     1      38.942 -13.280   2.228  1.00  0.00    -0.038 A 
HETATM   21  C   UNL     1      38.188 -13.956   1.262  1.00  0.00     0.011 A 
HETATM   22  C   UNL     1      37.171 -13.301   0.554  1.00  0.00     0.037 A 
HETATM   23  C   UNL     1      36.910 -11.946   0.762  1.00  0.00     0.068 A 
HETATM   24  C   UNL     1      37.651 -11.257   1.715  1.00  0.00     0.037 A 
HETATM   25  C   UNL     1      38.659 -11.914   2.429  1.00  0.00     0.011 A 
BRANCH  23  26
HETATM   26  O   UNL     1      35.926 -11.414  -0.024  1.00  0.00    -0.356 OA
HETATM   27  C   UNL     1      34.718 -11.051   0.635  1.00  0.00     0.210 C 
ENDBRANCH  23  26
ENDBRANCH  15  20
TORSDOF 2
ENDMDL
MODEL 3
REMARK VINA RESULT:      -8.6      4.567      5.868
REMARK  2 active torsions:
REMARK  status: ('A' for Active; 'I' for Inactive)
REMARK    1  A    between atoms: C_15  and  C_16 
REMARK    2  A    between atoms: C_19  and  O_20 
ROOT
HETATM    1  C   UNL     1      43.986 -22.203   1.156  1.00  0.00     0.048 C 
HETATM    2  C   UNL     1      44.086 -21.163   2.234  1.00  0.00    -0.061 A 
HETATM    3  C   UNL     1      43.328 -19.980   2.163  1.00  0.00     0.021 A 
HETATM    4  C   UNL     1      43.447 -19.008   3.178  1.00  0.00    -0.000 A 
HETATM    5  C   UNL     1      44.323 -19.262   4.243  1.00  0.00     0.043 A 
HETATM    6  N   UNL     1      44.254 -18.187   5.103  1.00  0.00    -0.353 N 
HETATM    7  H   UNL     1      44.758 -18.098   5.975  1.00  0.00     0.166 HD
HETATM    8  C   UNL     1      43.423 -17.245   4.580  1.00  0.00     0.066 A 
HETATM    9  C   UNL     1      42.858 -17.734   3.420  1.00  0.00    -0.017 A 
HETATM   10  C   UNL     1      41.821 -16.950   2.661  1.00  0.00     0.043 C 
HETATM   11  C   UNL     1      41.288 -15.731   3.492  1.00  0.00     0.018 C 
HETATM   12  C   UNL     1      42.463 -14.981   4.152  1.00  0.00     0.065 C 
HETATM   13  C   UNL     1      43.061 -15.977   5.113  1.00  0.00     0.082 C 
HETATM   14  N   UNL     1      43.051 -15.681   6.370  1.00  0.00    -0.203 NA
HETATM   15  C   UNL     1      42.306 -13.816   5.137  1.00  0.00     0.121 C 
HETATM   16  N   UNL     1      42.430 -14.471   6.460  1.00  0.00    -0.207 NA
HETATM   17  C   UNL     1      45.085 -20.430   4.334  1.00  0.00     0.031 A 
HETATM   18  C   UNL     1      44.954 -21.371   3.310  1.00  0.00     0.009 A 
HETATM   19  H   UNL     1      41.501 -14.603   6.869  1.00  0.00     0.149 HD
ENDROOT
BRANCH  15  20
HETATM   20  C   UNL     1      41.200 -12.790   5.027  1.00  0.00    -0.038 A 
HETATM   21  C   UNL     1      40.062 -12.831   5.841  1.00  0.00     0.011 A 
HETATM   22  C   UNL     1      38.988 -11.958   5.624  1.00  0.00     0.037 A 
HETATM   23  C   UNL     1      39.004 -11.051   4.564  1.00  0.00     0.068 A 
HETATM   24  C   UNL     1      40.124 -10.998   3.740  1.00  0.00     0.037 A 
HETATM   25  C   UNL     1      41.200 -11.863   3.965  1.00  0.00     0.011 A 
BRANCH  23  26
HETATM   26  O   UNL     1      37.877 -10.289   4.430  1.00  0.00    -0.356 OA
HETATM   27  C   UNL     1      38.075  -8.883   4.313  1.00  0.00     0.210 C 
ENDBRANCH  23  26
ENDBRANCH  15  20
TORSDOF 2
ENDMDL
MODEL 4
REMARK VINA RESULT:      -8.5      1.488      1.997
REMARK  2 active torsions:
REMARK  status: ('A' for Active; 'I' for Inactive)
REMARK    1  A    between atoms: C_15  and  C_16 
REMARK    2  A    between atoms: C_19  and  O_20 
ROOT
HETATM    1  C   UNL     1      43.566 -17.229   8.072  1.00  0.00     0.048 C 
HETATM    2  C   UNL     1      43.527 -16.250   6.935  1.00  0.00    -0.061 A 
HETATM    3  C   UNL     1      42.775 -16.522   5.777  1.00  0.00     0.021 A 
HETATM    4  C   UNL     1      42.764 -15.596   4.714  1.00  0.00    -0.000 A 
HETATM    5  C   UNL     1      43.505 -14.415   4.851  1.00  0.00     0.043 A 
HETATM    6  N   UNL     1      43.325 -13.675   3.703  1.00  0.00    -0.353 N 
HETATM    7  H   UNL     1      43.718 -12.761   3.524  1.00  0.00     0.166 HD
HETATM    8  C   UNL     1      42.557 -14.380   2.828  1.00  0.00     0.066 A 
HETATM    9  C   UNL     1      42.140 -15.549   3.434  1.00  0.00    -0.017 A 
HETATM   10  C   UNL     1      41.198 -16.498   2.743  1.00  0.00     0.043 C 
HETATM   11  C   UNL     1      40.560 -15.856   1.461  1.00  0.00     0.018 C 
HETATM   12  C   UNL     1      41.641 -15.133   0.632  1.00  0.00     0.065 C 
HETATM   13  C   UNL     1      42.125 -14.018   1.524  1.00  0.00     0.082 C 
HETATM   14  N   UNL     1      41.959 -12.804   1.112  1.00  0.00    -0.203 NA
HETATM   15  C   UNL     1      41.358 -14.289  -0.617  1.00  0.00     0.121 C 
HETATM   16  N   UNL     1      41.324 -12.904  -0.089  1.00  0.00    -0.207 NA
HETATM   17  C   UNL     1      44.259 -14.123   5.992  1.00  0.00     0.031 A 
HETATM   18  C   UNL     1      44.259 -15.062   7.027  1.00  0.00     0.009 A 
HETATM   19  H   UNL     1      40.353 -12.600   0.020  1.00  0.00     0.149 HD
ENDROOT
BRANCH  15  20
HETATM   20  C   UNL     1      40.266 -14.628  -1.608  1.00  0.00    -0.038 A 
HETATM   21  C   UNL     1      40.503 -15.426  -2.733  1.00  0.00     0.011 A 
HETATM   22  C   UNL     1      39.515 -15.607  -3.710  1.00  0.00     0.037 A 
HETATM   23  C   UNL     1      38.281 -14.962  -3.610  1.00  0.00     0.068 A 
HETATM   24  C   UNL     1      38.028 -14.161  -2.502  1.00  0.00     0.037 A 
HETATM   25  C   UNL     1      39.012 -13.990  -1.522  1.00  0.00     0.011 A 
BRANCH  23  26
HETATM   26  O   UNL     1      37.422 -15.182  -4.650  1.00  0.00    -0.356 OA
HETATM   27  C   UNL     1      36.223 -14.414  -4.652  1.00  0.00     0.210 C 
ENDBRANCH  23  26
ENDBRANCH  15  20
TORSDOF 2
ENDMDL
MODEL 5
REMARK VINA RESULT:      -8.5      5.903      8.527
REMARK  2 active torsions:
REMARK  status: ('A' for Active; 'I' for Inactive)
REMARK    1  A    between atoms: C_15  and  C_16 
REMARK    2  A    between atoms: C_19  and  O_20 
ROOT
HETATM    1  C   UNL     1      44.746 -22.939   3.703  1.00  0.00     0.048 C 
HETATM    2  C   UNL     1      44.360 -21.513   3.442  1.00  0.00    -0.061 A 
HETATM    3  C   UNL     1      44.506 -20.534   4.441  1.00  0.00     0.021 A 
HETATM    4  C   UNL     1      44.123 -19.202   4.181  1.00  0.00    -0.000 A 
HETATM    5  C   UNL     1      43.610 -18.892   2.915  1.00  0.00     0.043 A 
HETATM    6  N   UNL     1      43.327 -17.543   2.899  1.00  0.00    -0.353 N 
HETATM    7  H   UNL     1      42.966 -17.026   2.108  1.00  0.00     0.166 HD
HETATM    8  C   UNL     1      43.578 -17.016   4.128  1.00  0.00     0.066 A 
HETATM    9  C   UNL     1      44.126 -17.993   4.936  1.00  0.00    -0.017 A 
HETATM   10  C   UNL     1      44.595 -17.685   6.332  1.00  0.00     0.043 C 
HETATM   11  C   UNL     1      44.656 -16.140   6.599  1.00  0.00     0.018 C 
HETATM   12  C   UNL     1      43.381 -15.456   6.066  1.00  0.00     0.065 C 
HETATM   13  C   UNL     1      43.423 -15.676   4.576  1.00  0.00     0.082 C 
HETATM   14  N   UNL     1      43.485 -14.633   3.815  1.00  0.00    -0.203 NA
HETATM   15  C   UNL     1      43.154 -13.939   6.043  1.00  0.00     0.121 C 
HETATM   16  N   UNL     1      43.521 -13.563   4.658  1.00  0.00    -0.207 NA
HETATM   17  C   UNL     1      43.456 -19.847   1.906  1.00  0.00     0.031 A 
HETATM   18  C   UNL     1      43.835 -21.161   2.193  1.00  0.00     0.009 A 
HETATM   19  H   UNL     1      44.463 -13.161   4.647  1.00  0.00     0.149 HD
ENDROOT
BRANCH  15  20
HETATM   20  C   UNL     1      43.673 -13.014   7.122  1.00  0.00    -0.038 A 
HETATM   21  C   UNL     1      44.910 -13.215   7.744  1.00  0.00     0.011 A 
HETATM   22  C   UNL     1      45.303 -12.431   8.837  1.00  0.00     0.037 A 
HETATM   23  C   UNL     1      44.455 -11.455   9.362  1.00  0.00     0.068 A 
HETATM   24  C   UNL     1      43.220 -11.243   8.760  1.00  0.00     0.037 A 
HETATM   25  C   UNL     1      42.833 -12.019   7.663  1.00  0.00     0.011 A 
BRANCH  23  26
HETATM   26  O   UNL     1      44.935 -10.793  10.457  1.00  0.00    -0.356 OA
HETATM   27  C   UNL     1      43.964 -10.205  11.316  1.00  0.00     0.210 C 
ENDBRANCH  23  26
ENDBRANCH  15  20
TORSDOF 2
ENDMDL
MODEL 6
REMARK VINA RESULT:      -8.3      4.634      6.358
REMARK  2 active torsions:
REMARK  status: ('A' for Active; 'I' for Inactive)
REMARK    1  A    between atoms: C_15  and  C_16 
REMARK    2  A    between atoms: C_19  and  O_20 
ROOT
HETATM    1  C   UNL     1      45.479 -22.276   4.767  1.00  0.00     0.048 C 
HETATM    2  C   UNL     1      44.689 -21.239   4.021  1.00  0.00    -0.061 A 
HETATM    3  C   UNL     1      44.201 -20.096   4.680  1.00  0.00     0.021 A 
HETATM    4  C   UNL     1      43.448 -19.142   3.966  1.00  0.00    -0.000 A 
HETATM    5  C   UNL     1      43.215 -19.363   2.602  1.00  0.00     0.043 A 
HETATM    6  N   UNL     1      42.481 -18.298   2.127  1.00  0.00    -0.353 N 
HETATM    7  H   UNL     1      42.183 -18.168   1.169  1.00  0.00     0.166 HD
HETATM    8  C   UNL     1      42.188 -17.458   3.157  1.00  0.00     0.066 A 
HETATM    9  C   UNL     1      42.814 -17.911   4.301  1.00  0.00    -0.017 A 
HETATM   10  C   UNL     1      42.750 -17.135   5.590  1.00  0.00     0.043 C 
HETATM   11  C   UNL     1      42.177 -15.691   5.373  1.00  0.00     0.018 C 
HETATM   12  C   UNL     1      40.933 -15.741   4.464  1.00  0.00     0.065 C 
HETATM   13  C   UNL     1      41.447 -16.245   3.139  1.00  0.00     0.082 C 
HETATM   14  N   UNL     1      41.330 -15.468   2.113  1.00  0.00    -0.203 NA
HETATM   15  C   UNL     1      40.190 -14.506   3.939  1.00  0.00     0.121 C 
HETATM   16  N   UNL     1      40.752 -14.325   2.579  1.00  0.00    -0.207 NA
HETATM   17  C   UNL     1      43.691 -20.490   1.926  1.00  0.00     0.031 A 
HETATM   18  C   UNL     1      44.426 -21.424   2.660  1.00  0.00     0.009 A 
HETATM   19  H   UNL     1      41.453 -13.578   2.592  1.00  0.00     0.149 HD
ENDROOT
BRANCH  15  20
HETATM   20  C   UNL     1      40.033 -13.237   4.746  1.00  0.00    -0.038 A 
HETATM   21  C   UNL     1      39.753 -13.256   6.117  1.00  0.00     0.011 A 
HETATM   22  C   UNL     1      39.470 -12.072   6.812  1.00  0.00     0.037 A 
HETATM   23  C   UNL     1      39.419 -10.846   6.148  1.00  0.00     0.068 A 
HETATM   24  C   UNL     1      39.689 -10.807   4.785  1.00  0.00     0.037 A 
HETATM   25  C   UNL     1      39.982 -11.988   4.094  1.00  0.00     0.011 A 
BRANCH  23  26
HETATM   26  O   UNL     1      39.086  -9.774   6.928  1.00  0.00    -0.356 OA
HETATM   27  C   UNL     1      39.247  -9.940   8.333  1.00  0.00     0.210 C 
ENDBRANCH  23  26
ENDBRANCH  15  20
TORSDOF 2
ENDMDL
MODEL 7
REMARK VINA RESULT:      -8.3      5.217      7.231
REMARK  2 active torsions:
REMARK  status: ('A' for Active; 'I' for Inactive)
REMARK    1  A    between atoms: C_15  and  C_16 
REMARK    2  A    between atoms: C_19  and  O_20 
ROOT
HETATM    1  C   UNL     1      45.360 -22.247   4.826  1.00  0.00     0.048 C 
HETATM    2  C   UNL     1      44.712 -21.045   4.203  1.00  0.00    -0.061 A 
HETATM    3  C   UNL     1      44.273 -19.971   4.998  1.00  0.00     0.021 A 
HETATM    4  C   UNL     1      43.652 -18.858   4.395  1.00  0.00    -0.000 A 
HETATM    5  C   UNL     1      43.498 -18.856   3.002  1.00  0.00     0.043 A 
HETATM    6  N   UNL     1      42.887 -17.670   2.654  1.00  0.00    -0.353 N 
HETATM    7  H   UNL     1      42.669 -17.376   1.711  1.00  0.00     0.166 HD
HETATM    8  C   UNL     1      42.593 -16.967   3.780  1.00  0.00     0.066 A 
HETATM    9  C   UNL     1      43.099 -17.637   4.876  1.00  0.00    -0.017 A 
HETATM   10  C   UNL     1      43.008 -17.055   6.262  1.00  0.00     0.043 C 
HETATM   11  C   UNL     1      42.571 -15.549   6.234  1.00  0.00     0.018 C 
HETATM   12  C   UNL     1      41.393 -15.353   5.259  1.00  0.00     0.065 C 
HETATM   13  C   UNL     1      41.956 -15.702   3.904  1.00  0.00     0.082 C 
HETATM   14  N   UNL     1      41.974 -14.776   3.003  1.00  0.00    -0.203 NA
HETATM   15  C   UNL     1      40.792 -13.992   4.886  1.00  0.00     0.121 C 
HETATM   16  N   UNL     1      41.460 -13.666   3.604  1.00  0.00    -0.207 NA
HETATM   17  C   UNL     1      43.926 -19.911   2.191  1.00  0.00     0.031 A 
HETATM   18  C   UNL     1      44.530 -21.005   2.816  1.00  0.00     0.009 A 
HETATM   19  H   UNL     1      42.217 -12.996   3.769  1.00  0.00     0.149 HD
ENDROOT
BRANCH  15  20
HETATM   20  C   UNL     1      40.683 -12.845   5.866  1.00  0.00    -0.038 A 
HETATM   21  C   UNL     1      41.766 -12.007   6.156  1.00  0.00     0.011 A 
HETATM   22  C   UNL     1      41.682 -11.045   7.171  1.00  0.00     0.037 A 
HETATM   23  C   UNL     1      40.530 -10.922   7.949  1.00  0.00     0.068 A 
HETATM   24  C   UNL     1      39.445 -11.748   7.679  1.00  0.00     0.037 A 
HETATM   25  C   UNL     1      39.526 -12.701   6.659  1.00  0.00     0.011 A 
BRANCH  23  26
HETATM   26  O   UNL     1      40.591  -9.979   8.937  1.00  0.00    -0.356 OA
HETATM   27  C   UNL     1      41.700 -10.066   9.826  1.00  0.00     0.210 C 
ENDBRANCH  23  26
ENDBRANCH  15  20
TORSDOF 2
ENDMDL
MODEL 8
REMARK VINA RESULT:      -8.3      1.809      2.425
REMARK  2 active torsions:
REMARK  status: ('A' for Active; 'I' for Inactive)
REMARK    1  A    between atoms: C_15  and  C_16 
REMARK    2  A    between atoms: C_19  and  O_20 
ROOT
HETATM    1  C   UNL     1      45.346 -22.217   5.112  1.00  0.00     0.048 C 
HETATM    2  C   UNL     1      44.561 -20.937   5.102  1.00  0.00    -0.061 A 
HETATM    3  C   UNL     1      44.310 -20.257   3.896  1.00  0.00     0.021 A 
HETATM    4  C   UNL     1      43.584 -19.049   3.910  1.00  0.00    -0.000 A 
HETATM    5  C   UNL     1      43.122 -18.563   5.141  1.00  0.00     0.043 A 
HETATM    6  N   UNL     1      42.435 -17.394   4.895  1.00  0.00    -0.353 N 
HETATM    7  H   UNL     1      41.967 -16.829   5.591  1.00  0.00     0.166 HD
HETATM    8  C   UNL     1      42.512 -17.096   3.570  1.00  0.00     0.066 A 
HETATM    9  C   UNL     1      43.164 -18.121   2.913  1.00  0.00    -0.017 A 
HETATM   10  C   UNL     1      43.321 -18.119   1.416  1.00  0.00     0.043 C 
HETATM   11  C   UNL     1      42.427 -17.023   0.738  1.00  0.00     0.018 C 
HETATM   12  C   UNL     1      42.539 -15.692   1.507  1.00  0.00     0.065 C 
HETATM   13  C   UNL     1      41.964 -15.987   2.869  1.00  0.00     0.082 C 
HETATM   14  N   UNL     1      40.914 -15.329   3.235  1.00  0.00    -0.203 NA
HETATM   15  C   UNL     1      41.707 -14.439   1.201  1.00  0.00     0.121 C 
HETATM   16  N   UNL     1      40.602 -14.519   2.185  1.00  0.00    -0.207 NA
HETATM   17  C   UNL     1      43.358 -19.222   6.351  1.00  0.00     0.031 A 
HETATM   18  C   UNL     1      44.088 -20.413   6.309  1.00  0.00     0.009 A 
HETATM   19  H   UNL     1      39.757 -14.875   1.728  1.00  0.00     0.149 HD
ENDROOT
BRANCH  15  20
HETATM   20  C   UNL     1      41.296 -14.047  -0.201  1.00  0.00    -0.038 A 
HETATM   21  C   UNL     1      42.158 -13.365  -1.067  1.00  0.00     0.011 A 
HETATM   22  C   UNL     1      41.707 -12.887  -2.305  1.00  0.00     0.037 A 
HETATM   23  C   UNL     1      40.375 -13.042  -2.691  1.00  0.00     0.068 A 
HETATM   24  C   UNL     1      39.502 -13.713  -1.842  1.00  0.00     0.037 A 
HETATM   25  C   UNL     1      39.956 -14.200  -0.612  1.00  0.00     0.011 A 
BRANCH  23  26
HETATM   26  O   UNL     1      40.051 -12.491  -3.899  1.00  0.00    -0.356 OA
HETATM   27  C   UNL     1      40.772 -11.321  -4.274  1.00  0.00     0.210 C 
ENDBRANCH  23  26
ENDBRANCH  15  20
TORSDOF 2
ENDMDL
MODEL 9
REMARK VINA RESULT:      -8.3      3.576      8.427
REMARK  2 active torsions:
REMARK  status: ('A' for Active; 'I' for Inactive)
REMARK    1  A    between atoms: C_15  and  C_16 
REMARK    2  A    between atoms: C_19  and  O_20 
ROOT
HETATM    1  C   UNL     1      35.289 -11.030   0.328  1.00  0.00     0.048 C 
HETATM    2  C   UNL     1      36.528 -11.767  -0.089  1.00  0.00    -0.061 A 
HETATM    3  C   UNL     1      37.189 -12.628   0.806  1.00  0.00     0.021 A 
HETATM    4  C   UNL     1      38.360 -13.300   0.400  1.00  0.00    -0.000 A 
HETATM    5  C   UNL     1      38.829 -13.090  -0.904  1.00  0.00     0.043 A 
HETATM    6  N   UNL     1      39.962 -13.858  -1.067  1.00  0.00    -0.353 N 
HETATM    7  H   UNL     1      40.508 -13.930  -1.915  1.00  0.00     0.166 HD
HETATM    8  C   UNL     1      40.256 -14.481   0.106  1.00  0.00     0.066 A 
HETATM    9  C   UNL     1      39.261 -14.211   1.024  1.00  0.00    -0.017 A 
HETATM   10  C   UNL     1      39.261 -14.840   2.391  1.00  0.00     0.043 C 
HETATM   11  C   UNL     1      40.309 -16.003   2.497  1.00  0.00     0.018 C 
HETATM   12  C   UNL     1      41.648 -15.574   1.866  1.00  0.00     0.065 C 
HETATM   13  C   UNL     1      41.333 -15.359   0.408  1.00  0.00     0.082 C 
HETATM   14  N   UNL     1      41.941 -16.104  -0.456  1.00  0.00    -0.203 NA
HETATM   15  C   UNL     1      42.857 -16.500   1.680  1.00  0.00     0.121 C 
HETATM   16  N   UNL     1      42.729 -16.945   0.271  1.00  0.00    -0.207 NA
HETATM   17  C   UNL     1      38.190 -12.240  -1.811  1.00  0.00     0.031 A 
HETATM   18  C   UNL     1      37.036 -11.581  -1.379  1.00  0.00     0.009 A 
HETATM   19  H   UNL     1      42.330 -17.887   0.241  1.00  0.00     0.149 HD
ENDROOT
BRANCH  15  20
HETATM   20  C   UNL     1      43.220 -17.587   2.668  1.00  0.00    -0.038 A 
HETATM   21  C   UNL     1      43.458 -17.315   4.020  1.00  0.00     0.011 A 
HETATM   22  C   UNL     1      43.932 -18.311   4.884  1.00  0.00     0.037 A 
HETATM   23  C   UNL     1      44.220 -19.592   4.411  1.00  0.00     0.068 A 
HETATM   24  C   UNL     1      43.994 -19.881   3.069  1.00  0.00     0.037 A 
HETATM   25  C   UNL     1      43.510 -18.888   2.211  1.00  0.00     0.011 A 
BRANCH  23  26
HETATM   26  O   UNL     1      44.721 -20.459   5.342  1.00  0.00    -0.356 OA
HETATM   27  C   UNL     1      45.049 -21.764   4.877  1.00  0.00     0.210 C 
ENDBRANCH  23  26
ENDBRANCH  15  20
TORSDOF 2
ENDMDL
MODEL 10
REMARK VINA RESULT:      -7.8      3.803      8.054
REMARK  2 active torsions:
REMARK  status: ('A' for Active; 'I' for Inactive)
REMARK    1  A    between atoms: C_15  and  C_16 
REMARK    2  A    between atoms: C_19  and  O_20 
ROOT
HETATM    1  C   UNL     1      35.195 -11.006   0.254  1.00  0.00     0.048 C 
HETATM    2  C   UNL     1      36.612 -11.158   0.725  1.00  0.00    -0.061 A 
HETATM    3  C   UNL     1      37.147 -12.430   0.999  1.00  0.00     0.021 A 
HETATM    4  C   UNL     1      38.476 -12.550   1.455  1.00  0.00    -0.000 A 
HETATM    5  C   UNL     1      39.233 -11.381   1.614  1.00  0.00     0.043 A 
HETATM    6  N   UNL     1      40.487 -11.754   2.048  1.00  0.00    -0.353 N 
HETATM    7  H   UNL     1      41.259 -11.126   2.226  1.00  0.00     0.166 HD
HETATM    8  C   UNL     1      40.518 -13.102   2.232  1.00  0.00     0.066 A 
HETATM    9  C   UNL     1      39.314 -13.642   1.823  1.00  0.00    -0.017 A 
HETATM   10  C   UNL     1      39.082 -15.129   1.820  1.00  0.00     0.043 C 
HETATM   11  C   UNL     1      40.415 -15.928   2.034  1.00  0.00     0.018 C 
HETATM   12  C   UNL     1      41.237 -15.298   3.176  1.00  0.00     0.065 C 
HETATM   13  C   UNL     1      41.592 -13.920   2.677  1.00  0.00     0.082 C 
HETATM   14  N   UNL     1      42.844 -13.638   2.529  1.00  0.00    -0.203 NA
HETATM   15  C   UNL     1      42.650 -15.741   3.576  1.00  0.00     0.121 C 
HETATM   16  N   UNL     1      43.521 -14.769   2.874  1.00  0.00    -0.207 NA
HETATM   17  C   UNL     1      38.724 -10.107   1.348  1.00  0.00     0.031 A 
HETATM   18  C   UNL     1      37.402 -10.017   0.906  1.00  0.00     0.009 A 
HETATM   19  H   UNL     1      43.906 -15.198   2.027  1.00  0.00     0.149 HD
ENDROOT
BRANCH  15  20
HETATM   20  C   UNL     1      43.109 -17.181   3.512  1.00  0.00    -0.038 A 
HETATM   21  C   UNL     1      43.414 -17.917   4.663  1.00  0.00     0.011 A 
HETATM   22  C   UNL     1      43.973 -19.199   4.572  1.00  0.00     0.037 A 
HETATM   23  C   UNL     1      44.280 -19.761   3.332  1.00  0.00     0.068 A 
HETATM   24  C   UNL     1      43.988 -19.043   2.177  1.00  0.00     0.037 A 
HETATM   25  C   UNL     1      43.420 -17.768   2.269  1.00  0.00     0.011 A 
BRANCH  23  26
HETATM   26  O   UNL     1      44.865 -20.995   3.379  1.00  0.00    -0.356 OA
HETATM   27  C   UNL     1      44.380 -21.961   2.452  1.00  0.00     0.210 C 
ENDBRANCH  23  26
ENDBRANCH  15  20
TORSDOF 2
ENDMDL
