MODEL 1
REMARK VINA RESULT:      -9.1      0.000      0.000
REMARK  4 active torsions:
REMARK  status: ('A' for Active; 'I' for Inactive)
REMARK    1  A    between atoms: N_2  and  C_4 
REMARK    2  A    between atoms: N_2  and  C_16 
REMARK    3  A    between atoms: C_4  and  C_5 
REMARK    4  A    between atoms: C_16  and  C_17 
ROOT
HETATM    1  C   UNL     1      43.672 -20.605   7.573  1.00  0.00     0.270 C 
HETATM    2  N   UNL     1      43.675 -19.277   6.872  1.00  0.00    -0.064 N 
HETATM    3  H   UNL     1      42.788 -19.232   6.336  1.00  0.00     0.280 HD
ENDROOT
BRANCH   2   4
HETATM    4  C   UNL     1      43.611 -18.099   7.830  1.00  0.00     0.312 C 
BRANCH   4   5
HETATM    5  C   UNL     1      43.252 -16.802   7.115  1.00  0.00     0.133 A 
HETATM    6  N   UNL     1      42.052 -16.651   6.649  1.00  0.00    -0.233 NA
HETATM    7  C   UNL     1      41.752 -15.432   6.004  1.00  0.00     0.074 A 
HETATM    8  C   UNL     1      42.692 -14.405   5.860  1.00  0.00     0.061 A 
HETATM    9  C   UNL     1      40.467 -15.232   5.497  1.00  0.00     0.032 A 
HETATM   10  C   UNL     1      44.038 -14.640   6.406  1.00  0.00     0.259 A 
HETATM   11  C   UNL     1      42.373 -13.201   5.228  1.00  0.00     0.019 A 
HETATM   12  O   UNL     1      44.938 -13.815   6.341  1.00  0.00    -0.267 OA
HETATM   13  N   UNL     1      44.231 -15.856   7.013  1.00  0.00    -0.309 N 
HETATM   14  H   UNL     1      45.172 -15.988   7.365  1.00  0.00     0.170 HD
HETATM   15  C   UNL     1      41.086 -13.017   4.728  1.00  0.00     0.001 A 
HETATM   16  C   UNL     1      40.135 -14.030   4.861  1.00  0.00     0.002 A 
ENDBRANCH   4   5
ENDBRANCH   2   4
BRANCH   2  17
HETATM   17  C   UNL     1      44.787 -19.129   5.867  1.00  0.00     0.276 C 
BRANCH  17  18
HETATM   18  C   UNL     1      44.333 -19.185   4.435  1.00  0.00     0.003 A 
HETATM   19  C   UNL     1      44.336 -20.396   3.725  1.00  0.00     0.088 A 
HETATM   20  C   UNL     1      43.953 -20.444   2.380  1.00  0.00     0.001 A 
HETATM   21  O   UNL     1      44.768 -21.512   4.399  1.00  0.00    -0.325 OA
HETATM   22  C   UNL     1      43.991 -21.748   1.641  1.00  0.00     0.212 C 
HETATM   23  C   UNL     1      43.515 -19.275   1.746  1.00  0.00     0.036 A 
HETATM   24  O   UNL     1      44.871 -22.644   2.309  1.00  0.00    -0.362 OA
HETATM   25  C   UNL     1      44.518 -22.730   3.680  1.00  0.00     0.345 C 
HETATM   26  C   UNL     1      43.491 -18.072   2.448  1.00  0.00     0.035 A 
HETATM   27 CL   UNL     1      42.970 -16.634   1.665  1.00  0.00    -0.084 Cl
HETATM   28  C   UNL     1      43.899 -18.019   3.781  1.00  0.00     0.035 A 
ENDBRANCH  17  18
ENDBRANCH   2  17
TORSDOF 4
ENDMDL
MODEL 2
REMARK VINA RESULT:      -8.7      2.864      6.564
REMARK  4 active torsions:
REMARK  status: ('A' for Active; 'I' for Inactive)
REMARK    1  A    between atoms: N_2  and  C_4 
REMARK    2  A    between atoms: N_2  and  C_16 
REMARK    3  A    between atoms: C_4  and  C_5 
REMARK    4  A    between atoms: C_16  and  C_17 
ROOT
HETATM    1  C   UNL     1      44.030 -14.515   6.152  1.00  0.00     0.270 C 
HETATM    2  N   UNL     1      43.328 -15.785   5.769  1.00  0.00    -0.064 N 
HETATM    3  H   UNL     1      43.379 -15.843   4.735  1.00  0.00     0.280 HD
ENDROOT
BRANCH   2   4
HETATM    4  C   UNL     1      44.042 -17.032   6.265  1.00  0.00     0.312 C 
BRANCH   4   5
HETATM    5  C   UNL     1      44.123 -18.108   5.189  1.00  0.00     0.133 A 
HETATM    6  N   UNL     1      44.370 -19.331   5.538  1.00  0.00    -0.233 NA
HETATM    7  C   UNL     1      44.425 -20.302   4.516  1.00  0.00     0.074 A 
HETATM    8  C   UNL     1      44.224 -19.987   3.167  1.00  0.00     0.061 A 
HETATM    9  C   UNL     1      44.681 -21.631   4.857  1.00  0.00     0.032 A 
HETATM   10  C   UNL     1      43.953 -18.581   2.834  1.00  0.00     0.259 A 
HETATM   11  C   UNL     1      44.272 -20.965   2.170  1.00  0.00     0.019 A 
HETATM   12  O   UNL     1      43.758 -18.189   1.692  1.00  0.00    -0.267 OA
HETATM   13  N   UNL     1      43.920 -17.712   3.897  1.00  0.00    -0.309 N 
HETATM   14  H   UNL     1      43.744 -16.751   3.630  1.00  0.00     0.170 HD
HETATM   15  C   UNL     1      44.528 -22.287   2.527  1.00  0.00     0.001 A 
HETATM   16  C   UNL     1      44.733 -22.620   3.867  1.00  0.00     0.002 A 
ENDBRANCH   4   5
ENDBRANCH   2   4
BRANCH   2  17
HETATM   17  C   UNL     1      41.864 -15.794   6.124  1.00  0.00     0.276 C 
BRANCH  17  18
HETATM   18  C   UNL     1      41.013 -14.918   5.246  1.00  0.00     0.003 A 
HETATM   19  C   UNL     1      40.666 -15.321   3.947  1.00  0.00     0.088 A 
HETATM   20  C   UNL     1      39.908 -14.491   3.114  1.00  0.00     0.001 A 
HETATM   21  O   UNL     1      41.135 -16.541   3.527  1.00  0.00    -0.325 OA
HETATM   22  C   UNL     1      39.574 -14.937   1.722  1.00  0.00     0.212 C 
HETATM   23  C   UNL     1      39.451 -13.259   3.599  1.00  0.00     0.036 A 
HETATM   24  O   UNL     1      40.494 -15.943   1.314  1.00  0.00    -0.362 OA
HETATM   25  C   UNL     1      40.543 -16.971   2.291  1.00  0.00     0.345 C 
HETATM   26  C   UNL     1      39.777 -12.859   4.892  1.00  0.00     0.035 A 
HETATM   27 CL   UNL     1      39.230 -11.341   5.483  1.00  0.00    -0.084 Cl
HETATM   28  C   UNL     1      40.554 -13.676   5.714  1.00  0.00     0.035 A 
ENDBRANCH  17  18
ENDBRANCH   2  17
TORSDOF 4
ENDMDL
MODEL 3
REMARK VINA RESULT:      -8.3      1.592      2.087
REMARK  4 active torsions:
REMARK  status: ('A' for Active; 'I' for Inactive)
REMARK    1  A    between atoms: N_2  and  C_4 
REMARK    2  A    between atoms: N_2  and  C_16 
REMARK    3  A    between atoms: C_4  and  C_5 
REMARK    4  A    between atoms: C_16  and  C_17 
ROOT
HETATM    1  C   UNL     1      43.961 -18.834   7.824  1.00  0.00     0.270 C 
HETATM    2  N   UNL     1      44.028 -18.045   6.549  1.00  0.00    -0.064 N 
HETATM    3  H   UNL     1      43.096 -18.139   6.103  1.00  0.00     0.280 HD
ENDROOT
BRANCH   2   4
HETATM    4  C   UNL     1      44.201 -16.553   6.780  1.00  0.00     0.312 C 
BRANCH   4   5
HETATM    5  C   UNL     1      43.216 -15.731   5.959  1.00  0.00     0.133 A 
HETATM    6  N   UNL     1      43.642 -15.105   4.906  1.00  0.00    -0.233 NA
HETATM    7  C   UNL     1      42.698 -14.364   4.164  1.00  0.00     0.074 A 
HETATM    8  C   UNL     1      41.347 -14.289   4.524  1.00  0.00     0.061 A 
HETATM    9  C   UNL     1      43.120 -13.684   3.020  1.00  0.00     0.032 A 
HETATM   10  C   UNL     1      40.929 -15.017   5.731  1.00  0.00     0.259 A 
HETATM   11  C   UNL     1      40.427 -13.558   3.769  1.00  0.00     0.019 A 
HETATM   12  O   UNL     1      39.776 -15.026   6.139  1.00  0.00    -0.267 OA
HETATM   13  N   UNL     1      41.919 -15.707   6.385  1.00  0.00    -0.309 N 
HETATM   14  H   UNL     1      41.598 -16.185   7.218  1.00  0.00     0.170 HD
HETATM   15  C   UNL     1      40.863 -12.886   2.630  1.00  0.00     0.001 A 
HETATM   16  C   UNL     1      42.206 -12.948   2.256  1.00  0.00     0.002 A 
ENDBRANCH   4   5
ENDBRANCH   2   4
BRANCH   2  17
HETATM   17  C   UNL     1      45.028 -18.583   5.559  1.00  0.00     0.276 C 
BRANCH  17  18
HETATM   18  C   UNL     1      44.443 -18.924   4.217  1.00  0.00     0.003 A 
HETATM   19  C   UNL     1      44.403 -20.252   3.764  1.00  0.00     0.088 A 
HETATM   20  C   UNL     1      43.896 -20.567   2.498  1.00  0.00     0.001 A 
HETATM   21  O   UNL     1      44.917 -21.211   4.602  1.00  0.00    -0.325 OA
HETATM   22  C   UNL     1      43.889 -21.992   2.032  1.00  0.00     0.212 C 
HETATM   23  C   UNL     1      43.379 -19.547   1.690  1.00  0.00     0.036 A 
HETATM   24  O   UNL     1      44.845 -22.737   2.777  1.00  0.00    -0.362 OA
HETATM   25  C   UNL     1      44.624 -22.548   4.166  1.00  0.00     0.345 C 
HETATM   26  C   UNL     1      43.399 -18.229   2.138  1.00  0.00     0.035 A 
HETATM   27 CL   UNL     1      42.779 -16.975   1.139  1.00  0.00    -0.084 Cl
HETATM   28  C   UNL     1      43.928 -17.912   3.389  1.00  0.00     0.035 A 
ENDBRANCH  17  18
ENDBRANCH   2  17
TORSDOF 4
ENDMDL
MODEL 4
REMARK VINA RESULT:      -8.2      4.614      8.779
REMARK  4 active torsions:
REMARK  status: ('A' for Active; 'I' for Inactive)
REMARK    1  A    between atoms: N_2  and  C_4 
REMARK    2  A    between atoms: N_2  and  C_16 
REMARK    3  A    between atoms: C_4  and  C_5 
REMARK    4  A    between atoms: C_16  and  C_17 
ROOT
HETATM    1  C   UNL     1      39.595 -11.645   7.469  1.00  0.00     0.270 C 
HETATM    2  N   UNL     1      41.092 -11.633   7.353  1.00  0.00    -0.064 N 
HETATM    3  H   UNL     1      41.432 -12.414   7.944  1.00  0.00     0.280 HD
ENDROOT
BRANCH   2   4
HETATM    4  C   UNL     1      41.584 -11.959   5.953  1.00  0.00     0.312 C 
BRANCH   4   5
HETATM    5  C   UNL     1      42.129 -13.378   5.857  1.00  0.00     0.133 A 
HETATM    6  N   UNL     1      41.537 -14.230   5.079  1.00  0.00    -0.233 NA
HETATM    7  C   UNL     1      42.079 -15.531   5.006  1.00  0.00     0.074 A 
HETATM    8  C   UNL     1      43.211 -15.917   5.732  1.00  0.00     0.061 A 
HETATM    9  C   UNL     1      41.471 -16.471   4.172  1.00  0.00     0.032 A 
HETATM   10  C   UNL     1      43.834 -14.907   6.601  1.00  0.00     0.259 A 
HETATM   11  C   UNL     1      43.738 -17.208   5.638  1.00  0.00     0.019 A 
HETATM   12  O   UNL     1      44.827 -15.129   7.278  1.00  0.00    -0.267 OA
HETATM   13  N   UNL     1      43.234 -13.672   6.605  1.00  0.00    -0.309 N 
HETATM   14  H   UNL     1      43.681 -13.006   7.223  1.00  0.00     0.170 HD
HETATM   15  C   UNL     1      43.121 -18.134   4.801  1.00  0.00     0.001 A 
HETATM   16  C   UNL     1      41.990 -17.767   4.070  1.00  0.00     0.002 A 
ENDBRANCH   4   5
ENDBRANCH   2   4
BRANCH   2  17
HETATM   17  C   UNL     1      41.727 -10.380   7.899  1.00  0.00     0.276 C 
BRANCH  17  18
HETATM   18  C   UNL     1      42.256 -10.518   9.299  1.00  0.00     0.003 A 
HETATM   19  C   UNL     1      43.497 -11.128   9.544  1.00  0.00     0.088 A 
HETATM   20  C   UNL     1      43.973 -11.294  10.849  1.00  0.00     0.001 A 
HETATM   21  O   UNL     1      44.193 -11.584   8.451  1.00  0.00    -0.325 OA
HETATM   22  C   UNL     1      45.290 -11.973  11.081  1.00  0.00     0.212 C 
HETATM   23  C   UNL     1      43.222 -10.803  11.924  1.00  0.00     0.036 A 
HETATM   24  O   UNL     1      45.619 -12.765   9.946  1.00  0.00    -0.362 OA
HETATM   25  C   UNL     1      45.537 -11.975   8.770  1.00  0.00     0.345 C 
HETATM   26  C   UNL     1      41.999 -10.181  11.690  1.00  0.00     0.035 A 
HETATM   27 CL   UNL     1      41.069  -9.592  13.010  1.00  0.00    -0.084 Cl
HETATM   28  C   UNL     1      41.511 -10.039  10.390  1.00  0.00     0.035 A 
ENDBRANCH  17  18
ENDBRANCH   2  17
TORSDOF 4
ENDMDL
MODEL 5
REMARK VINA RESULT:      -8.2      5.462      6.992
REMARK  4 active torsions:
REMARK  status: ('A' for Active; 'I' for Inactive)
REMARK    1  A    between atoms: N_2  and  C_4 
REMARK    2  A    between atoms: N_2  and  C_16 
REMARK    3  A    between atoms: C_4  and  C_5 
REMARK    4  A    between atoms: C_16  and  C_17 
ROOT
HETATM    1  C   UNL     1      40.977 -17.693   1.328  1.00  0.00     0.270 C 
HETATM    2  N   UNL     1      41.890 -16.698   0.671  1.00  0.00    -0.064 N 
HETATM    3  H   UNL     1      41.766 -16.826  -0.350  1.00  0.00     0.280 HD
ENDROOT
BRANCH   2   4
HETATM    4  C   UNL     1      41.488 -15.257   0.936  1.00  0.00     0.312 C 
BRANCH   4   5
HETATM    5  C   UNL     1      41.672 -14.379  -0.295  1.00  0.00     0.133 A 
HETATM    6  N   UNL     1      42.079 -13.157  -0.143  1.00  0.00    -0.233 NA
HETATM    7  C   UNL     1      42.250 -12.378  -1.307  1.00  0.00     0.074 A 
HETATM    8  C   UNL     1      42.000 -12.877  -2.591  1.00  0.00     0.061 A 
HETATM    9  C   UNL     1      42.694 -11.061  -1.181  1.00  0.00     0.032 A 
HETATM   10  C   UNL     1      41.536 -14.269  -2.696  1.00  0.00     0.259 A 
HETATM   11  C   UNL     1      42.185 -12.093  -3.731  1.00  0.00     0.019 A 
HETATM   12  O   UNL     1      41.289 -14.811  -3.763  1.00  0.00    -0.267 OA
HETATM   13  N   UNL     1      41.399 -14.943  -1.508  1.00  0.00    -0.309 N 
HETATM   14  H   UNL     1      41.066 -15.893  -1.618  1.00  0.00     0.170 HD
HETATM   15  C   UNL     1      42.630 -10.780  -3.589  1.00  0.00     0.001 A 
HETATM   16  C   UNL     1      42.883 -10.265  -2.317  1.00  0.00     0.002 A 
ENDBRANCH   4   5
ENDBRANCH   2   4
BRANCH   2  17
HETATM   17  C   UNL     1      43.349 -16.941   0.956  1.00  0.00     0.276 C 
BRANCH  17  18
HETATM   18  C   UNL     1      43.604 -17.941   2.049  1.00  0.00     0.003 A 
HETATM   19  C   UNL     1      43.595 -17.552   3.398  1.00  0.00     0.088 A 
HETATM   20  C   UNL     1      43.872 -18.473   4.415  1.00  0.00     0.001 A 
HETATM   21  O   UNL     1      43.342 -16.229   3.663  1.00  0.00    -0.325 OA
HETATM   22  C   UNL     1      43.880 -18.022   5.845  1.00  0.00     0.212 C 
HETATM   23  C   UNL     1      44.116 -19.812   4.085  1.00  0.00     0.036 A 
HETATM   24  O   UNL     1      44.070 -16.614   5.896  1.00  0.00    -0.362 OA
HETATM   25  C   UNL     1      43.121 -15.972   5.059  1.00  0.00     0.345 C 
HETATM   26  C   UNL     1      44.110 -20.210   2.751  1.00  0.00     0.035 A 
HETATM   27 CL   UNL     1      44.427 -21.849   2.344  1.00  0.00    -0.084 Cl
HETATM   28  C   UNL     1      43.860 -19.286   1.735  1.00  0.00     0.035 A 
ENDBRANCH  17  18
ENDBRANCH   2  17
TORSDOF 4
ENDMDL
MODEL 6
REMARK VINA RESULT:      -8.1      4.738      6.096
REMARK  4 active torsions:
REMARK  status: ('A' for Active; 'I' for Inactive)
REMARK    1  A    between atoms: N_2  and  C_4 
REMARK    2  A    between atoms: N_2  and  C_16 
REMARK    3  A    between atoms: C_4  and  C_5 
REMARK    4  A    between atoms: C_16  and  C_17 
ROOT
HETATM    1  C   UNL     1      40.675 -14.713   4.464  1.00  0.00     0.270 C 
HETATM    2  N   UNL     1      42.010 -14.568   3.792  1.00  0.00    -0.064 N 
HETATM    3  H   UNL     1      42.009 -15.240   3.002  1.00  0.00     0.280 HD
ENDROOT
BRANCH   2   4
HETATM    4  C   UNL     1      42.207 -13.207   3.147  1.00  0.00     0.312 C 
BRANCH   4   5
HETATM    5  C   UNL     1      42.106 -13.276   1.628  1.00  0.00     0.133 A 
HETATM    6  N   UNL     1      42.401 -12.225   0.929  1.00  0.00    -0.233 NA
HETATM    7  C   UNL     1      42.308 -12.330  -0.475  1.00  0.00     0.074 A 
HETATM    8  C   UNL     1      41.918 -13.511  -1.118  1.00  0.00     0.061 A 
HETATM    9  C   UNL     1      42.626 -11.220  -1.260  1.00  0.00     0.032 A 
HETATM   10  C   UNL     1      41.592 -14.666  -0.268  1.00  0.00     0.259 A 
HETATM   11  C   UNL     1      41.842 -13.598  -2.510  1.00  0.00     0.019 A 
HETATM   12  O   UNL     1      41.243 -15.748  -0.718  1.00  0.00    -0.267 OA
HETATM   13  N   UNL     1      41.711 -14.464   1.084  1.00  0.00    -0.309 N 
HETATM   14  H   UNL     1      41.467 -15.276   1.638  1.00  0.00     0.170 HD
HETATM   15  C   UNL     1      42.163 -12.481  -3.279  1.00  0.00     0.001 A 
HETATM   16  C   UNL     1      42.553 -11.295  -2.656  1.00  0.00     0.002 A 
ENDBRANCH   4   5
ENDBRANCH   2   4
BRANCH   2  17
HETATM   17  C   UNL     1      43.171 -14.951   4.672  1.00  0.00     0.276 C 
BRANCH  17  18
HETATM   18  C   UNL     1      43.424 -16.430   4.749  1.00  0.00     0.003 A 
HETATM   19  C   UNL     1      43.627 -17.188   3.584  1.00  0.00     0.088 A 
HETATM   20  C   UNL     1      43.822 -18.572   3.649  1.00  0.00     0.001 A 
HETATM   21  O   UNL     1      43.584 -16.514   2.388  1.00  0.00    -0.325 OA
HETATM   22  C   UNL     1      44.010 -19.358   2.387  1.00  0.00     0.212 C 
HETATM   23  C   UNL     1      43.863 -19.204   4.898  1.00  0.00     0.036 A 
HETATM   24  O   UNL     1      43.482 -18.623   1.289  1.00  0.00    -0.362 OA
HETATM   25  C   UNL     1      44.030 -17.314   1.281  1.00  0.00     0.345 C 
HETATM   26  C   UNL     1      43.681 -18.458   6.060  1.00  0.00     0.035 A 
HETATM   27 CL   UNL     1      43.714 -19.235   7.592  1.00  0.00    -0.084 Cl
HETATM   28  C   UNL     1      43.459 -17.082   5.993  1.00  0.00     0.035 A 
ENDBRANCH  17  18
ENDBRANCH   2  17
TORSDOF 4
ENDMDL
MODEL 7
REMARK VINA RESULT:      -8.0      2.434      6.975
REMARK  4 active torsions:
REMARK  status: ('A' for Active; 'I' for Inactive)
REMARK    1  A    between atoms: N_2  and  C_4 
REMARK    2  A    between atoms: N_2  and  C_16 
REMARK    3  A    between atoms: C_4  and  C_5 
REMARK    4  A    between atoms: C_16  and  C_17 
ROOT
HETATM    1  C   UNL     1      42.641 -17.122   7.498  1.00  0.00     0.270 C 
HETATM    2  N   UNL     1      42.496 -16.373   6.205  1.00  0.00    -0.064 N 
HETATM    3  H   UNL     1      42.365 -15.377   6.463  1.00  0.00     0.280 HD
ENDROOT
BRANCH   2   4
HETATM    4  C   UNL     1      43.759 -16.395   5.361  1.00  0.00     0.312 C 
BRANCH   4   5
HETATM    5  C   UNL     1      43.929 -17.718   4.624  1.00  0.00     0.133 A 
HETATM    6  N   UNL     1      44.214 -18.785   5.303  1.00  0.00    -0.233 NA
HETATM    7  C   UNL     1      44.352 -19.994   4.589  1.00  0.00     0.074 A 
HETATM    8  C   UNL     1      44.191 -20.070   3.201  1.00  0.00     0.061 A 
HETATM    9  C   UNL     1      44.651 -21.164   5.289  1.00  0.00     0.032 A 
HETATM   10  C   UNL     1      43.873 -18.824   2.487  1.00  0.00     0.259 A 
HETATM   11  C   UNL     1      44.322 -21.280   2.513  1.00  0.00     0.019 A 
HETATM   12  O   UNL     1      43.708 -18.771   1.277  1.00  0.00    -0.267 OA
HETATM   13  N   UNL     1      43.761 -17.701   3.269  1.00  0.00    -0.309 N 
HETATM   14  H   UNL     1      43.555 -16.861   2.743  1.00  0.00     0.170 HD
HETATM   15  C   UNL     1      44.620 -22.438   3.227  1.00  0.00     0.001 A 
HETATM   16  C   UNL     1      44.785 -22.381   4.611  1.00  0.00     0.002 A 
ENDBRANCH   4   5
ENDBRANCH   2   4
BRANCH   2  17
HETATM   17  C   UNL     1      41.278 -16.770   5.413  1.00  0.00     0.276 C 
BRANCH  17  18
HETATM   18  C   UNL     1      40.835 -15.742   4.409  1.00  0.00     0.003 A 
HETATM   19  C   UNL     1      40.296 -14.515   4.825  1.00  0.00     0.088 A 
HETATM   20  C   UNL     1      39.846 -13.572   3.893  1.00  0.00     0.001 A 
HETATM   21  O   UNL     1      40.198 -14.304   6.178  1.00  0.00    -0.325 OA
HETATM   22  C   UNL     1      39.252 -12.280   4.369  1.00  0.00     0.212 C 
HETATM   23  C   UNL     1      39.978 -13.839   2.525  1.00  0.00     0.036 A 
HETATM   24  O   UNL     1      38.808 -12.430   5.712  1.00  0.00    -0.362 OA
HETATM   25  C   UNL     1      39.861 -12.948   6.509  1.00  0.00     0.345 C 
HETATM   26  C   UNL     1      40.528 -15.047   2.103  1.00  0.00     0.035 A 
HETATM   27 CL   UNL     1      40.674 -15.382   0.424  1.00  0.00    -0.084 Cl
HETATM   28  C   UNL     1      40.952 -15.997   3.032  1.00  0.00     0.035 A 
ENDBRANCH  17  18
ENDBRANCH   2  17
TORSDOF 4
ENDMDL
MODEL 8
REMARK VINA RESULT:      -7.9      5.190      6.582
REMARK  4 active torsions:
REMARK  status: ('A' for Active; 'I' for Inactive)
REMARK    1  A    between atoms: N_2  and  C_4 
REMARK    2  A    between atoms: N_2  and  C_16 
REMARK    3  A    between atoms: C_4  and  C_5 
REMARK    4  A    between atoms: C_16  and  C_17 
ROOT
HETATM    1  C   UNL     1      41.127 -17.015   2.733  1.00  0.00     0.270 C 
HETATM    2  N   UNL     1      42.054 -16.427   1.708  1.00  0.00    -0.064 N 
HETATM    3  H   UNL     1      41.828 -16.898   0.812  1.00  0.00     0.280 HD
ENDROOT
BRANCH   2   4
HETATM    4  C   UNL     1      41.795 -14.953   1.449  1.00  0.00     0.312 C 
BRANCH   4   5
HETATM    5  C   UNL     1      41.029 -14.727   0.151  1.00  0.00     0.133 A 
HETATM    6  N   UNL     1      39.971 -13.979   0.166  1.00  0.00    -0.233 NA
HETATM    7  C   UNL     1      39.294 -13.783  -1.057  1.00  0.00     0.074 A 
HETATM    8  C   UNL     1      39.727 -14.360  -2.257  1.00  0.00     0.061 A 
HETATM    9  C   UNL     1      38.155 -12.976  -1.079  1.00  0.00     0.032 A 
HETATM   10  C   UNL     1      40.931 -15.202  -2.207  1.00  0.00     0.259 A 
HETATM   11  C   UNL     1      39.049 -14.145  -3.460  1.00  0.00     0.019 A 
HETATM   12  O   UNL     1      41.401 -15.754  -3.191  1.00  0.00    -0.267 OA
HETATM   13  N   UNL     1      41.516 -15.333  -0.972  1.00  0.00    -0.309 N 
HETATM   14  H   UNL     1      42.334 -15.930  -0.973  1.00  0.00     0.170 HD
HETATM   15  C   UNL     1      37.914 -13.337  -3.465  1.00  0.00     0.001 A 
HETATM   16  C   UNL     1      37.468 -12.754  -2.278  1.00  0.00     0.002 A 
ENDBRANCH   4   5
ENDBRANCH   2   4
BRANCH   2  17
HETATM   17  C   UNL     1      43.508 -16.707   1.980  1.00  0.00     0.276 C 
BRANCH  17  18
HETATM   18  C   UNL     1      43.768 -18.040   2.625  1.00  0.00     0.003 A 
HETATM   19  C   UNL     1      43.989 -18.140   4.008  1.00  0.00     0.088 A 
HETATM   20  C   UNL     1      44.271 -19.374   4.605  1.00  0.00     0.001 A 
HETATM   21  O   UNL     1      43.954 -16.973   4.730  1.00  0.00    -0.325 OA
HETATM   22  C   UNL     1      44.528 -19.446   6.080  1.00  0.00     0.212 C 
HETATM   23  C   UNL     1      44.287 -20.533   3.818  1.00  0.00     0.036 A 
HETATM   24  O   UNL     1      44.911 -18.162   6.556  1.00  0.00    -0.362 OA
HETATM   25  C   UNL     1      43.955 -17.195   6.149  1.00  0.00     0.345 C 
HETATM   26  C   UNL     1      44.052 -20.445   2.449  1.00  0.00     0.035 A 
HETATM   27 CL   UNL     1      44.088 -21.864   1.480  1.00  0.00    -0.084 Cl
HETATM   28  C   UNL     1      43.797 -19.211   1.849  1.00  0.00     0.035 A 
ENDBRANCH  17  18
ENDBRANCH   2  17
TORSDOF 4
ENDMDL
MODEL 9
REMARK VINA RESULT:      -7.8      4.903      6.459
REMARK  4 active torsions:
REMARK  status: ('A' for Active; 'I' for Inactive)
REMARK    1  A    between atoms: N_2  and  C_4 
REMARK    2  A    between atoms: N_2  and  C_16 
REMARK    3  A    between atoms: C_4  and  C_5 
REMARK    4  A    between atoms: C_16  and  C_17 
ROOT
HETATM    1  C   UNL     1      41.861 -14.448   2.782  1.00  0.00     0.270 C 
HETATM    2  N   UNL     1      41.819 -15.942   2.639  1.00  0.00    -0.064 N 
HETATM    3  H   UNL     1      41.745 -16.321   3.601  1.00  0.00     0.280 HD
ENDROOT
BRANCH   2   4
HETATM    4  C   UNL     1      40.572 -16.437   1.926  1.00  0.00     0.312 C 
BRANCH   4   5
HETATM    5  C   UNL     1      40.150 -15.501   0.800  1.00  0.00     0.133 A 
HETATM    6  N   UNL     1      40.883 -15.428  -0.266  1.00  0.00    -0.233 NA
HETATM    7  C   UNL     1      40.454 -14.561  -1.294  1.00  0.00     0.074 A 
HETATM    8  C   UNL     1      39.285 -13.798  -1.195  1.00  0.00     0.061 A 
HETATM    9  C   UNL     1      41.216 -14.462  -2.459  1.00  0.00     0.032 A 
HETATM   10  C   UNL     1      38.499 -13.922   0.042  1.00  0.00     0.259 A 
HETATM   11  C   UNL     1      38.871 -12.952  -2.228  1.00  0.00     0.019 A 
HETATM   12  O   UNL     1      37.461 -13.307   0.238  1.00  0.00    -0.267 OA
HETATM   13  N   UNL     1      38.999 -14.789   0.982  1.00  0.00    -0.309 N 
HETATM   14  H   UNL     1      38.440 -14.839   1.824  1.00  0.00     0.170 HD
HETATM   15  C   UNL     1      39.642 -12.866  -3.385  1.00  0.00     0.001 A 
HETATM   16  C   UNL     1      40.811 -13.619  -3.501  1.00  0.00     0.002 A 
ENDBRANCH   4   5
ENDBRANCH   2   4
BRANCH   2  17
HETATM   17  C   UNL     1      43.076 -16.525   2.048  1.00  0.00     0.276 C 
BRANCH  17  18
HETATM   18  C   UNL     1      43.521 -17.808   2.693  1.00  0.00     0.003 A 
HETATM   19  C   UNL     1      43.851 -17.851   4.057  1.00  0.00     0.088 A 
HETATM   20  C   UNL     1      44.304 -19.035   4.652  1.00  0.00     0.001 A 
HETATM   21  O   UNL     1      43.745 -16.677   4.761  1.00  0.00    -0.325 OA
HETATM   22  C   UNL     1      44.673 -19.044   6.105  1.00  0.00     0.212 C 
HETATM   23  C   UNL     1      44.385 -20.204   3.885  1.00  0.00     0.036 A 
HETATM   24  O   UNL     1      44.952 -17.716   6.531  1.00  0.00    -0.362 OA
HETATM   25  C   UNL     1      43.873 -16.864   6.180  1.00  0.00     0.345 C 
HETATM   26  C   UNL     1      44.043 -20.174   2.535  1.00  0.00     0.035 A 
HETATM   27 CL   UNL     1      44.159 -21.604   1.590  1.00  0.00    -0.084 Cl
HETATM   28  C   UNL     1      43.617 -18.988   1.936  1.00  0.00     0.035 A 
ENDBRANCH  17  18
ENDBRANCH   2  17
TORSDOF 4
ENDMDL
MODEL 10
REMARK VINA RESULT:      -7.8      3.844      7.016
REMARK  4 active torsions:
REMARK  status: ('A' for Active; 'I' for Inactive)
REMARK    1  A    between atoms: N_2  and  C_4 
REMARK    2  A    between atoms: N_2  and  C_16 
REMARK    3  A    between atoms: C_4  and  C_5 
REMARK    4  A    between atoms: C_16  and  C_17 
ROOT
HETATM    1  C   UNL     1      42.839 -13.324   3.672  1.00  0.00     0.270 C 
HETATM    2  N   UNL     1      42.234 -14.698   3.723  1.00  0.00    -0.064 N 
HETATM    3  H   UNL     1      42.487 -15.157   2.828  1.00  0.00     0.280 HD
ENDROOT
BRANCH   2   4
HETATM    4  C   UNL     1      42.846 -15.578   4.800  1.00  0.00     0.312 C 
BRANCH   4   5
HETATM    5  C   UNL     1      43.294 -16.926   4.249  1.00  0.00     0.133 A 
HETATM    6  N   UNL     1      43.631 -17.864   5.076  1.00  0.00    -0.233 NA
HETATM    7  C   UNL     1      44.028 -19.103   4.529  1.00  0.00     0.074 A 
HETATM    8  C   UNL     1      44.064 -19.340   3.150  1.00  0.00     0.061 A 
HETATM    9  C   UNL     1      44.391 -20.139   5.392  1.00  0.00     0.032 A 
HETATM   10  C   UNL     1      43.674 -18.234   2.264  1.00  0.00     0.259 A 
HETATM   11  C   UNL     1      44.450 -20.578   2.629  1.00  0.00     0.019 A 
HETATM   12  O   UNL     1      43.665 -18.326   1.045  1.00  0.00    -0.267 OA
HETATM   13  N   UNL     1      43.306 -17.069   2.891  1.00  0.00    -0.309 N 
HETATM   14  H   UNL     1      43.057 -16.325   2.250  1.00  0.00     0.170 HD
HETATM   15  C   UNL     1      44.809 -21.601   3.503  1.00  0.00     0.001 A 
HETATM   16  C   UNL     1      44.780 -21.383   4.881  1.00  0.00     0.002 A 
ENDBRANCH   4   5
ENDBRANCH   2   4
BRANCH   2  17
HETATM   17  C   UNL     1      40.729 -14.691   3.786  1.00  0.00     0.276 C 
BRANCH  17  18
HETATM   18  C   UNL     1      40.066 -14.078   2.584  1.00  0.00     0.003 A 
HETATM   19  C   UNL     1      40.355 -14.536   1.289  1.00  0.00     0.088 A 
HETATM   20  C   UNL     1      39.770 -13.940   0.166  1.00  0.00     0.001 A 
HETATM   21  O   UNL     1      41.262 -15.561   1.180  1.00  0.00    -0.325 OA
HETATM   22  C   UNL     1      40.118 -14.435  -1.206  1.00  0.00     0.212 C 
HETATM   23  C   UNL     1      38.847 -12.902   0.340  1.00  0.00     0.036 A 
HETATM   24  O   UNL     1      41.361 -15.126  -1.158  1.00  0.00    -0.362 OA
HETATM   25  C   UNL     1      41.319 -16.117  -0.143  1.00  0.00     0.345 C 
HETATM   26  C   UNL     1      38.540 -12.452   1.622  1.00  0.00     0.035 A 
HETATM   27 CL   UNL     1      37.420 -11.167   1.834  1.00  0.00    -0.084 Cl
HETATM   28  C   UNL     1      39.144 -13.029   2.740  1.00  0.00     0.035 A 
ENDBRANCH  17  18
ENDBRANCH   2  17
TORSDOF 4
ENDMDL
