MODEL 1
REMARK VINA RESULT:      -9.1      0.000      0.000
REMARK  12 active torsions:
REMARK  status: ('A' for Active; 'I' for Inactive)
REMARK    1  A    between atoms: C_2  and  N_3 
REMARK    2  A    between atoms: N_3  and  C_5 
REMARK    3  A    between atoms: N_3  and  C_25 
REMARK    4  A    between atoms: C_7  and  C_8 
REMARK    5  A    between atoms: C_8  and  C_9 
REMARK    6  A    between atoms: C_9  and  C_10 
REMARK    7  A    between atoms: C_18  and  C_19 
REMARK    8  A    between atoms: C_25  and  C_26 
REMARK    9  A    between atoms: C_28  and  N_29 
REMARK   10  A    between atoms: C_32  and  N_33 
REMARK   11  A    between atoms: C_39  and  O_40 
REMARK   12  A    between atoms: C_41  and  O_42 
ROOT
HETATM    1  N   UNL     1      42.823 -14.247   5.114  1.00  0.00    -0.061 N 
HETATM    2  H   UNL     1      42.058 -14.938   5.119  1.00  0.00     0.280 HD
ENDROOT
BRANCH   1   3
HETATM    3  C   UNL     1      43.860 -14.728   6.130  1.00  0.00     0.180 C 
HETATM    4  C   UNL     1      43.372 -15.946   6.909  1.00  0.00     0.039 C 
HETATM    5  C   UNL     1      44.365 -13.624   7.054  1.00  0.00     0.039 C 
ENDBRANCH   1   3
BRANCH   1   6
HETATM    6  C   UNL     1      42.292 -12.880   5.465  1.00  0.00     0.189 C 
HETATM    7  C   UNL     1      41.711 -12.073   4.263  1.00  0.00     0.038 C 
HETATM    8  C   UNL     1      40.578 -11.584   5.199  1.00  0.00    -0.010 C 
HETATM    9  C   UNL     1      40.843 -12.865   6.028  1.00  0.00     0.038 C 
BRANCH   8  10
HETATM   10  C   UNL     1      40.784 -10.280   5.971  1.00  0.00     0.012 C 
BRANCH  10  11
HETATM   11  C   UNL     1      39.488  -9.823   6.647  1.00  0.00     0.079 C 
BRANCH  11  12
HETATM   12  C   UNL     1      39.666  -9.721   8.123  1.00  0.00     0.105 A 
HETATM   13  N   UNL     1      38.710  -9.726   9.030  1.00  0.00    -0.233 NA
HETATM   14  C   UNL     1      39.349  -9.583  10.240  1.00  0.00     0.085 A 
HETATM   15  C   UNL     1      40.722  -9.503  10.069  1.00  0.00     0.063 A 
HETATM   16  C   UNL     1      38.825  -9.509  11.535  1.00  0.00     0.034 A 
HETATM   17  N   UNL     1      40.901  -9.603   8.714  1.00  0.00    -0.343 N 
HETATM   18  C   UNL     1      41.622  -9.353  11.129  1.00  0.00     0.039 A 
HETATM   19  H   UNL     1      41.791  -9.579   8.238  1.00  0.00     0.167 HD
HETATM   20  C   UNL     1      41.104  -9.273  12.442  1.00  0.00    -0.048 A 
HETATM   21  C   UNL     1      39.708  -9.354  12.617  1.00  0.00     0.010 A 
BRANCH  20  22
HETATM   22  C   UNL     1      42.075  -9.104  13.631  1.00  0.00    -0.024 C 
HETATM   23  C   UNL     1      43.521  -9.559  13.331  1.00  0.00     0.019 C 
HETATM   24  C   UNL     1      42.140  -7.615  14.036  1.00  0.00     0.019 C 
HETATM   25  C   UNL     1      41.577  -9.936  14.833  1.00  0.00     0.019 C 
ENDBRANCH  20  22
ENDBRANCH  11  12
ENDBRANCH  10  11
ENDBRANCH   8  10
ENDBRANCH   1   6
BRANCH   1  26
HETATM   26  C   UNL     1      43.317 -14.199   3.659  1.00  0.00     0.270 C 
BRANCH  26  27
HETATM   27  C   UNL     1      42.945 -15.476   2.898  1.00  0.00     0.181 C 
HETATM   28  O   UNL     1      43.973 -16.480   3.005  1.00  0.00    -0.354 OA
HETATM   29  C   UNL     1      43.316 -17.743   2.670  1.00  0.00     0.262 C 
HETATM   30  C   UNL     1      41.793 -17.526   2.802  1.00  0.00     0.198 C 
HETATM   31  C   UNL     1      41.705 -16.153   3.453  1.00  0.00     0.181 C 
BRANCH  29  32
HETATM   32  N   UNL     1      43.817 -18.812   3.505  1.00  0.00    -0.294 N 
HETATM   33  C   UNL     1      43.992 -20.094   3.060  1.00  0.00     0.167 A 
HETATM   34  C   UNL     1      44.528 -20.779   4.138  1.00  0.00     0.149 A 
HETATM   35  N   UNL     1      43.701 -20.574   1.840  1.00  0.00    -0.222 NA
HETATM   36  C   UNL     1      44.823 -22.137   3.932  1.00  0.00     0.155 A 
HETATM   37  N   UNL     1      44.650 -19.937   5.228  1.00  0.00    -0.236 NA
HETATM   38  N   UNL     1      44.543 -22.678   2.723  1.00  0.00    -0.222 NA
HETATM   39  C   UNL     1      44.017 -21.886   1.763  1.00  0.00     0.237 A 
HETATM   40  C   UNL     1      44.227 -18.764   4.806  1.00  0.00     0.214 A 
BRANCH  36  41
HETATM   41  N   UNL     1      45.378 -22.955   4.902  1.00  0.00    -0.382 N 
HETATM   42  H   UNL     1      44.742 -23.632   5.304  1.00  0.00     0.157 HD
HETATM   43  H   UNL     1      46.315 -23.261   4.671  1.00  0.00     0.157 HD
ENDBRANCH  36  41
ENDBRANCH  29  32
BRANCH  30  44
HETATM   44  O   UNL     1      41.167 -17.445   1.511  1.00  0.00    -0.388 OA
HETATM   45  H   UNL     1      41.575 -18.140   0.953  1.00  0.00     0.210 HD
ENDBRANCH  30  44
BRANCH  31  46
HETATM   46  O   UNL     1      40.533 -15.435   3.120  1.00  0.00    -0.390 OA
HETATM   47  H   UNL     1      39.870 -15.645   3.815  1.00  0.00     0.210 HD
ENDBRANCH  31  46
ENDBRANCH  26  27
ENDBRANCH   1  26
TORSDOF 12
ENDMDL
MODEL 2
REMARK VINA RESULT:      -9.1      2.627      6.079
REMARK  12 active torsions:
REMARK  status: ('A' for Active; 'I' for Inactive)
REMARK    1  A    between atoms: C_2  and  N_3 
REMARK    2  A    between atoms: N_3  and  C_5 
REMARK    3  A    between atoms: N_3  and  C_25 
REMARK    4  A    between atoms: C_7  and  C_8 
REMARK    5  A    between atoms: C_8  and  C_9 
REMARK    6  A    between atoms: C_9  and  C_10 
REMARK    7  A    between atoms: C_18  and  C_19 
REMARK    8  A    between atoms: C_25  and  C_26 
REMARK    9  A    between atoms: C_28  and  N_29 
REMARK   10  A    between atoms: C_32  and  N_33 
REMARK   11  A    between atoms: C_39  and  O_40 
REMARK   12  A    between atoms: C_41  and  O_42 
ROOT
HETATM    1  N   UNL     1      43.428 -18.543   4.910  1.00  0.00    -0.061 N 
HETATM    2  H   UNL     1      42.455 -18.866   5.025  1.00  0.00     0.280 HD
ENDROOT
BRANCH   1   3
HETATM    3  C   UNL     1      44.306 -19.493   5.726  1.00  0.00     0.180 C 
HETATM    4  C   UNL     1      45.072 -20.468   4.836  1.00  0.00     0.039 C 
HETATM    5  C   UNL     1      43.553 -20.211   6.842  1.00  0.00     0.039 C 
ENDBRANCH   1   3
BRANCH   1   6
HETATM    6  C   UNL     1      43.563 -17.118   5.381  1.00  0.00     0.189 C 
HETATM    7  C   UNL     1      42.742 -16.768   6.660  1.00  0.00     0.038 C 
HETATM    8  C   UNL     1      43.945 -15.922   7.145  1.00  0.00    -0.010 C 
HETATM    9  C   UNL     1      44.821 -16.831   6.248  1.00  0.00     0.038 C 
BRANCH   8  10
HETATM   10  C   UNL     1      43.988 -14.439   6.772  1.00  0.00     0.012 C 
BRANCH  10  11
HETATM   11  C   UNL     1      45.179 -13.735   7.430  1.00  0.00     0.079 C 
BRANCH  11  12
HETATM   12  C   UNL     1      44.716 -12.754   8.452  1.00  0.00     0.105 A 
HETATM   13  N   UNL     1      45.279 -12.515   9.620  1.00  0.00    -0.233 NA
HETATM   14  C   UNL     1      44.491 -11.560  10.220  1.00  0.00     0.085 A 
HETATM   15  C   UNL     1      43.436 -11.200   9.398  1.00  0.00     0.063 A 
HETATM   16  C   UNL     1      44.609 -10.951  11.474  1.00  0.00     0.034 A 
HETATM   17  N   UNL     1      43.605 -11.965   8.273  1.00  0.00    -0.343 N 
HETATM   18  C   UNL     1      42.474 -10.249   9.753  1.00  0.00     0.039 A 
HETATM   19  H   UNL     1      43.004 -11.955   7.462  1.00  0.00     0.167 HD
HETATM   20  C   UNL     1      42.579  -9.628  11.019  1.00  0.00    -0.048 A 
HETATM   21  C   UNL     1      43.651  -9.994  11.857  1.00  0.00     0.010 A 
BRANCH  20  22
HETATM   22  C   UNL     1      41.529  -8.577  11.437  1.00  0.00    -0.024 C 
HETATM   23  C   UNL     1      40.799  -7.910  10.250  1.00  0.00     0.019 C 
HETATM   24  C   UNL     1      40.451  -9.248  12.318  1.00  0.00     0.019 C 
HETATM   25  C   UNL     1      42.211  -7.449  12.242  1.00  0.00     0.019 C 
ENDBRANCH  20  22
ENDBRANCH  11  12
ENDBRANCH  10  11
ENDBRANCH   8  10
ENDBRANCH   1   6
BRANCH   1  26
HETATM   26  C   UNL     1      43.686 -18.564   3.395  1.00  0.00     0.270 C 
BRANCH  26  27
HETATM   27  C   UNL     1      42.490 -18.009   2.614  1.00  0.00     0.181 C 
HETATM   28  O   UNL     1      41.567 -17.314   3.475  1.00  0.00    -0.354 OA
HETATM   29  C   UNL     1      40.776 -16.463   2.587  1.00  0.00     0.262 C 
HETATM   30  C   UNL     1      41.546 -16.336   1.255  1.00  0.00     0.198 C 
HETATM   31  C   UNL     1      42.890 -16.970   1.583  1.00  0.00     0.181 C 
BRANCH  29  32
HETATM   32  N   UNL     1      40.503 -15.190   3.215  1.00  0.00    -0.294 N 
HETATM   33  C   UNL     1      39.670 -14.248   2.675  1.00  0.00     0.167 A 
HETATM   34  C   UNL     1      39.644 -13.218   3.599  1.00  0.00     0.149 A 
HETATM   35  N   UNL     1      39.025 -14.318   1.499  1.00  0.00    -0.222 NA
HETATM   36  C   UNL     1      38.831 -12.115   3.285  1.00  0.00     0.155 A 
HETATM   37  N   UNL     1      40.467 -13.513   4.670  1.00  0.00    -0.236 NA
HETATM   38  N   UNL     1      38.163 -12.127   2.108  1.00  0.00    -0.222 NA
HETATM   39  C   UNL     1      38.286 -13.203   1.301  1.00  0.00     0.237 A 
HETATM   40  C   UNL     1      40.954 -14.709   4.411  1.00  0.00     0.214 A 
BRANCH  36  41
HETATM   41  N   UNL     1      38.683 -11.014   4.111  1.00  0.00    -0.382 N 
HETATM   42  H   UNL     1      38.306 -10.190   3.660  1.00  0.00     0.157 HD
HETATM   43  H   UNL     1      38.334 -11.254   5.030  1.00  0.00     0.157 HD
ENDBRANCH  36  41
ENDBRANCH  29  32
BRANCH  30  44
HETATM   44  O   UNL     1      40.927 -17.119   0.221  1.00  0.00    -0.388 OA
HETATM   45  H   UNL     1      41.649 -17.465  -0.344  1.00  0.00     0.210 HD
ENDBRANCH  30  44
BRANCH  31  46
HETATM   46  O   UNL     1      43.528 -17.567   0.470  1.00  0.00    -0.390 OA
HETATM   47  H   UNL     1      43.019 -18.382   0.261  1.00  0.00     0.210 HD
ENDBRANCH  31  46
ENDBRANCH  26  27
ENDBRANCH   1  26
TORSDOF 12
ENDMDL
MODEL 3
REMARK VINA RESULT:      -9.0      3.958      6.679
REMARK  12 active torsions:
REMARK  status: ('A' for Active; 'I' for Inactive)
REMARK    1  A    between atoms: C_2  and  N_3 
REMARK    2  A    between atoms: N_3  and  C_5 
REMARK    3  A    between atoms: N_3  and  C_25 
REMARK    4  A    between atoms: C_7  and  C_8 
REMARK    5  A    between atoms: C_8  and  C_9 
REMARK    6  A    between atoms: C_9  and  C_10 
REMARK    7  A    between atoms: C_18  and  C_19 
REMARK    8  A    between atoms: C_25  and  C_26 
REMARK    9  A    between atoms: C_28  and  N_29 
REMARK   10  A    between atoms: C_32  and  N_33 
REMARK   11  A    between atoms: C_39  and  O_40 
REMARK   12  A    between atoms: C_41  and  O_42 
ROOT
HETATM    1  N   UNL     1      42.624 -17.503   3.655  1.00  0.00    -0.061 N 
HETATM    2  H   UNL     1      41.597 -17.499   3.750  1.00  0.00     0.280 HD
ENDROOT
BRANCH   1   3
HETATM    3  C   UNL     1      43.052 -18.968   3.550  1.00  0.00     0.180 C 
HETATM    4  C   UNL     1      44.269 -19.270   4.419  1.00  0.00     0.039 C 
HETATM    5  C   UNL     1      43.243 -19.445   2.114  1.00  0.00     0.039 C 
ENDBRANCH   1   3
BRANCH   1   6
HETATM    6  C   UNL     1      43.260 -16.821   4.839  1.00  0.00     0.189 C 
HETATM    7  C   UNL     1      43.557 -15.303   4.641  1.00  0.00     0.038 C 
HETATM    8  C   UNL     1      43.098 -15.069   6.101  1.00  0.00    -0.010 C 
HETATM    9  C   UNL     1      42.266 -16.365   5.944  1.00  0.00     0.038 C 
BRANCH   8  10
HETATM   10  C   UNL     1      44.149 -15.126   7.211  1.00  0.00     0.012 C 
BRANCH  10  11
HETATM   11  C   UNL     1      45.069 -13.901   7.169  1.00  0.00     0.079 C 
BRANCH  11  12
HETATM   12  C   UNL     1      44.698 -12.923   8.230  1.00  0.00     0.105 A 
HETATM   13  N   UNL     1      45.379 -12.662   9.328  1.00  0.00    -0.233 NA
HETATM   14  C   UNL     1      44.639 -11.720  10.006  1.00  0.00     0.085 A 
HETATM   15  C   UNL     1      43.493 -11.390   9.302  1.00  0.00     0.063 A 
HETATM   16  C   UNL     1      44.879 -11.098  11.236  1.00  0.00     0.034 A 
HETATM   17  N   UNL     1      43.556 -12.160   8.169  1.00  0.00    -0.343 N 
HETATM   18  C   UNL     1      42.554 -10.458   9.754  1.00  0.00     0.039 A 
HETATM   19  H   UNL     1      42.871 -12.170   7.429  1.00  0.00     0.167 HD
HETATM   20  C   UNL     1      42.782  -9.825  10.998  1.00  0.00    -0.048 A 
HETATM   21  C   UNL     1      43.947 -10.160  11.715  1.00  0.00     0.010 A 
BRANCH  20  22
HETATM   22  C   UNL     1      41.760  -8.794  11.522  1.00  0.00    -0.024 C 
HETATM   23  C   UNL     1      41.063  -7.977  10.411  1.00  0.00     0.019 C 
HETATM   24  C   UNL     1      40.653  -9.523  12.315  1.00  0.00     0.019 C 
HETATM   25  C   UNL     1      42.468  -7.783  12.452  1.00  0.00     0.019 C 
ENDBRANCH  20  22
ENDBRANCH  11  12
ENDBRANCH  10  11
ENDBRANCH   8  10
ENDBRANCH   1   6
BRANCH   1  26
HETATM   26  C   UNL     1      42.920 -16.653   2.409  1.00  0.00     0.270 C 
BRANCH  26  27
HETATM   27  C   UNL     1      41.819 -15.615   2.164  1.00  0.00     0.181 C 
HETATM   28  O   UNL     1      42.249 -14.586   1.252  1.00  0.00    -0.354 OA
HETATM   29  C   UNL     1      41.018 -13.974   0.752  1.00  0.00     0.262 C 
HETATM   30  C   UNL     1      39.860 -14.951   1.042  1.00  0.00     0.198 C 
HETATM   31  C   UNL     1      40.587 -16.206   1.503  1.00  0.00     0.181 C 
BRANCH  29  32
HETATM   32  N   UNL     1      41.151 -13.640  -0.649  1.00  0.00    -0.294 N 
HETATM   33  C   UNL     1      41.856 -12.558  -1.101  1.00  0.00     0.167 A 
HETATM   34  C   UNL     1      41.777 -12.628  -2.481  1.00  0.00     0.149 A 
HETATM   35  N   UNL     1      42.483 -11.633  -0.356  1.00  0.00    -0.222 NA
HETATM   36  C   UNL     1      42.448 -11.622  -3.198  1.00  0.00     0.155 A 
HETATM   37  N   UNL     1      41.014 -13.716  -2.863  1.00  0.00    -0.236 NA
HETATM   38  N   UNL     1      43.091 -10.658  -2.499  1.00  0.00    -0.222 NA
HETATM   39  C   UNL     1      43.081 -10.716  -1.150  1.00  0.00     0.237 A 
HETATM   40  C   UNL     1      40.668 -14.306  -1.738  1.00  0.00     0.214 A 
BRANCH  36  41
HETATM   41  N   UNL     1      42.480 -11.561  -4.581  1.00  0.00    -0.382 N 
HETATM   42  H   UNL     1      42.094 -12.369  -5.053  1.00  0.00     0.157 HD
HETATM   43  H   UNL     1      42.246 -10.644  -4.941  1.00  0.00     0.157 HD
ENDBRANCH  36  41
ENDBRANCH  29  32
BRANCH  30  44
HETATM   44  O   UNL     1      39.047 -14.485   2.131  1.00  0.00    -0.388 OA
HETATM   45  H   UNL     1      39.464 -14.809   2.956  1.00  0.00     0.210 HD
ENDBRANCH  30  44
BRANCH  31  46
HETATM   46  O   UNL     1      39.845 -16.998   2.411  1.00  0.00    -0.390 OA
HETATM   47  H   UNL     1      40.282 -17.879   2.434  1.00  0.00     0.210 HD
ENDBRANCH  31  46
ENDBRANCH  26  27
ENDBRANCH   1  26
TORSDOF 12
ENDMDL
MODEL 4
REMARK VINA RESULT:      -9.0      2.579      6.963
REMARK  12 active torsions:
REMARK  status: ('A' for Active; 'I' for Inactive)
REMARK    1  A    between atoms: C_2  and  N_3 
REMARK    2  A    between atoms: N_3  and  C_5 
REMARK    3  A    between atoms: N_3  and  C_25 
REMARK    4  A    between atoms: C_7  and  C_8 
REMARK    5  A    between atoms: C_8  and  C_9 
REMARK    6  A    between atoms: C_9  and  C_10 
REMARK    7  A    between atoms: C_18  and  C_19 
REMARK    8  A    between atoms: C_25  and  C_26 
REMARK    9  A    between atoms: C_28  and  N_29 
REMARK   10  A    between atoms: C_32  and  N_33 
REMARK   11  A    between atoms: C_39  and  O_40 
REMARK   12  A    between atoms: C_41  and  O_42 
ROOT
HETATM    1  N   UNL     1      42.281 -16.945   3.151  1.00  0.00    -0.061 N 
HETATM    2  H   UNL     1      41.331 -17.254   3.408  1.00  0.00     0.280 HD
ENDROOT
BRANCH   1   3
HETATM    3  C   UNL     1      42.978 -18.149   2.513  1.00  0.00     0.180 C 
HETATM    4  C   UNL     1      43.677 -19.020   3.552  1.00  0.00     0.039 C 
HETATM    5  C   UNL     1      43.908 -17.775   1.363  1.00  0.00     0.039 C 
ENDBRANCH   1   3
BRANCH   1   6
HETATM    6  C   UNL     1      43.020 -16.457   4.371  1.00  0.00     0.189 C 
HETATM    7  C   UNL     1      43.458 -14.962   4.318  1.00  0.00     0.038 C 
HETATM    8  C   UNL     1      43.073 -14.843   5.813  1.00  0.00    -0.010 C 
HETATM    9  C   UNL     1      42.112 -16.031   5.559  1.00  0.00     0.038 C 
BRANCH   8  10
HETATM   10  C   UNL     1      44.149 -15.117   6.865  1.00  0.00     0.012 C 
BRANCH  10  11
HETATM   11  C   UNL     1      45.157 -13.967   6.942  1.00  0.00     0.079 C 
BRANCH  11  12
HETATM   12  C   UNL     1      44.797 -13.017   8.032  1.00  0.00     0.105 A 
HETATM   13  N   UNL     1      45.519 -12.739   9.099  1.00  0.00    -0.233 NA
HETATM   14  C   UNL     1      44.774 -11.838   9.824  1.00  0.00     0.085 A 
HETATM   15  C   UNL     1      43.580 -11.551   9.181  1.00  0.00     0.063 A 
HETATM   16  C   UNL     1      45.046 -11.220  11.049  1.00  0.00     0.034 A 
HETATM   17  N   UNL     1      43.622 -12.306   8.037  1.00  0.00    -0.343 N 
HETATM   18  C   UNL     1      42.625 -10.666   9.691  1.00  0.00     0.039 A 
HETATM   19  H   UNL     1      42.901 -12.338   7.331  1.00  0.00     0.167 HD
HETATM   20  C   UNL     1      42.886 -10.037  10.930  1.00  0.00    -0.048 A 
HETATM   21  C   UNL     1      44.099 -10.329  11.585  1.00  0.00     0.010 A 
BRANCH  20  22
HETATM   22  C   UNL     1      41.847  -9.059  11.517  1.00  0.00    -0.024 C 
HETATM   23  C   UNL     1      40.734  -9.743  12.341  1.00  0.00     0.019 C 
HETATM   24  C   UNL     1      42.557  -8.055  12.453  1.00  0.00     0.019 C 
HETATM   25  C   UNL     1      41.155  -8.284  10.373  1.00  0.00     0.019 C 
ENDBRANCH  20  22
ENDBRANCH  11  12
ENDBRANCH  10  11
ENDBRANCH   8  10
ENDBRANCH   1   6
BRANCH   1  26
HETATM   26  C   UNL     1      42.078 -15.744   2.213  1.00  0.00     0.270 C 
BRANCH  26  27
HETATM   27  C   UNL     1      40.612 -15.298   2.184  1.00  0.00     0.181 C 
HETATM   28  O   UNL     1      40.290 -14.451   3.304  1.00  0.00    -0.354 OA
HETATM   29  C   UNL     1      39.073 -13.740   2.913  1.00  0.00     0.262 C 
HETATM   30  C   UNL     1      38.941 -13.850   1.379  1.00  0.00     0.198 C 
HETATM   31  C   UNL     1      40.278 -14.451   0.970  1.00  0.00     0.181 C 
BRANCH  29  32
HETATM   32  N   UNL     1      39.109 -12.375   3.390  1.00  0.00    -0.294 N 
HETATM   33  C   UNL     1      39.202 -12.043   4.714  1.00  0.00     0.167 A 
HETATM   34  C   UNL     1      39.257 -10.659   4.735  1.00  0.00     0.149 A 
HETATM   35  N   UNL     1      39.231 -12.886   5.759  1.00  0.00    -0.222 NA
HETATM   36  C   UNL     1      39.377 -10.057   5.999  1.00  0.00     0.155 A 
HETATM   37  N   UNL     1      39.170 -10.156   3.450  1.00  0.00    -0.236 NA
HETATM   38  N   UNL     1      39.402 -10.857   7.090  1.00  0.00    -0.222 NA
HETATM   39  C   UNL     1      39.337 -12.195   6.917  1.00  0.00     0.237 A 
HETATM   40  C   UNL     1      39.096 -11.214   2.670  1.00  0.00     0.214 A 
BRANCH  36  41
HETATM   41  N   UNL     1      39.461  -8.688   6.189  1.00  0.00    -0.382 N 
HETATM   42  H   UNL     1      40.171  -8.224   5.638  1.00  0.00     0.157 HD
HETATM   43  H   UNL     1      38.555  -8.244   6.268  1.00  0.00     0.157 HD
ENDBRANCH  36  41
ENDBRANCH  29  32
BRANCH  30  44
HETATM   44  O   UNL     1      37.907 -14.777   1.012  1.00  0.00    -0.388 OA
HETATM   45  H   UNL     1      37.246 -14.767   1.736  1.00  0.00     0.210 HD
ENDBRANCH  30  44
BRANCH  31  46
HETATM   46  O   UNL     1      40.217 -15.236  -0.205  1.00  0.00    -0.390 OA
HETATM   47  H   UNL     1      41.087 -15.688  -0.284  1.00  0.00     0.210 HD
ENDBRANCH  31  46
ENDBRANCH  26  27
ENDBRANCH   1  26
TORSDOF 12
ENDMDL
MODEL 5
REMARK VINA RESULT:      -8.7      2.460      4.092
REMARK  12 active torsions:
REMARK  status: ('A' for Active; 'I' for Inactive)
REMARK    1  A    between atoms: C_2  and  N_3 
REMARK    2  A    between atoms: N_3  and  C_5 
REMARK    3  A    between atoms: N_3  and  C_25 
REMARK    4  A    between atoms: C_7  and  C_8 
REMARK    5  A    between atoms: C_8  and  C_9 
REMARK    6  A    between atoms: C_9  and  C_10 
REMARK    7  A    between atoms: C_18  and  C_19 
REMARK    8  A    between atoms: C_25  and  C_26 
REMARK    9  A    between atoms: C_28  and  N_29 
REMARK   10  A    between atoms: C_32  and  N_33 
REMARK   11  A    between atoms: C_39  and  O_40 
REMARK   12  A    between atoms: C_41  and  O_42 
ROOT
HETATM    1  N   UNL     1      39.833 -14.025   1.693  1.00  0.00    -0.061 N 
HETATM    2  H   UNL     1      40.756 -13.753   1.320  1.00  0.00     0.280 HD
ENDROOT
BRANCH   1   3
HETATM    3  C   UNL     1      38.904 -14.194   0.490  1.00  0.00     0.180 C 
HETATM    4  C   UNL     1      39.403 -13.425  -0.730  1.00  0.00     0.039 C 
HETATM    5  C   UNL     1      37.443 -13.883   0.801  1.00  0.00     0.039 C 
ENDBRANCH   1   3
BRANCH   1   6
HETATM    6  C   UNL     1      39.325 -12.974   2.646  1.00  0.00     0.189 C 
HETATM    7  C   UNL     1      40.008 -12.973   4.047  1.00  0.00     0.038 C 
HETATM    8  C   UNL     1      39.990 -11.425   4.006  1.00  0.00    -0.010 C 
HETATM    9  C   UNL     1      39.957 -11.565   2.464  1.00  0.00     0.038 C 
BRANCH   8  10
HETATM   10  C   UNL     1      38.782 -10.697   4.598  1.00  0.00     0.012 C 
BRANCH  10  11
HETATM   11  C   UNL     1      39.214  -9.464   5.399  1.00  0.00     0.079 C 
BRANCH  11  12
HETATM   12  C   UNL     1      39.792  -9.861   6.713  1.00  0.00     0.105 A 
HETATM   13  N   UNL     1      39.126 -10.312   7.758  1.00  0.00    -0.233 NA
HETATM   14  C   UNL     1      40.071 -10.516   8.737  1.00  0.00     0.085 A 
HETATM   15  C   UNL     1      41.338 -10.197   8.277  1.00  0.00     0.063 A 
HETATM   16  C   UNL     1      39.924 -10.970  10.052  1.00  0.00     0.034 A 
HETATM   17  N   UNL     1      41.137  -9.792   6.983  1.00  0.00    -0.343 N 
HETATM   18  C   UNL     1      42.492 -10.308   9.060  1.00  0.00     0.039 A 
HETATM   19  H   UNL     1      41.859  -9.484   6.347  1.00  0.00     0.167 HD
HETATM   20  C   UNL     1      42.357 -10.762  10.393  1.00  0.00    -0.048 A 
HETATM   21  C   UNL     1      41.068 -11.086  10.862  1.00  0.00     0.010 A 
BRANCH  20  22
HETATM   22  C   UNL     1      43.613 -10.890  11.280  1.00  0.00    -0.024 C 
HETATM   23  C   UNL     1      43.671  -9.872  12.441  1.00  0.00     0.019 C 
HETATM   24  C   UNL     1      43.658 -12.301  11.908  1.00  0.00     0.019 C 
HETATM   25  C   UNL     1      44.881 -10.675  10.424  1.00  0.00     0.019 C 
ENDBRANCH  20  22
ENDBRANCH  11  12
ENDBRANCH  10  11
ENDBRANCH   8  10
ENDBRANCH   1   6
BRANCH   1  26
HETATM   26  C   UNL     1      40.084 -15.309   2.500  1.00  0.00     0.270 C 
BRANCH  26  27
HETATM   27  C   UNL     1      41.468 -15.898   2.201  1.00  0.00     0.181 C 
HETATM   28  O   UNL     1      42.250 -16.056   3.401  1.00  0.00    -0.354 OA
HETATM   29  C   UNL     1      43.291 -17.024   3.057  1.00  0.00     0.262 C 
HETATM   30  C   UNL     1      42.838 -17.764   1.780  1.00  0.00     0.198 C 
HETATM   31  C   UNL     1      41.399 -17.296   1.615  1.00  0.00     0.181 C 
BRANCH  29  32
HETATM   32  N   UNL     1      43.548 -17.909   4.172  1.00  0.00    -0.294 N 
HETATM   33  C   UNL     1      43.497 -17.507   5.479  1.00  0.00     0.167 A 
HETATM   34  C   UNL     1      43.751 -18.650   6.217  1.00  0.00     0.149 A 
HETATM   35  N   UNL     1      43.253 -16.268   5.934  1.00  0.00    -0.222 NA
HETATM   36  C   UNL     1      43.736 -18.508   7.615  1.00  0.00     0.155 A 
HETATM   37  N   UNL     1      43.982 -19.723   5.376  1.00  0.00    -0.236 NA
HETATM   38  N   UNL     1      43.504 -17.279   8.132  1.00  0.00    -0.222 NA
HETATM   39  C   UNL     1      43.274 -16.251   7.287  1.00  0.00     0.237 A 
HETATM   40  C   UNL     1      43.838 -19.243   4.159  1.00  0.00     0.214 A 
BRANCH  36  41
HETATM   41  N   UNL     1      43.953 -19.557   8.493  1.00  0.00    -0.382 N 
HETATM   42  H   UNL     1      44.166 -20.443   8.054  1.00  0.00     0.157 HD
HETATM   43  H   UNL     1      44.495 -19.286   9.305  1.00  0.00     0.157 HD
ENDBRANCH  36  41
ENDBRANCH  29  32
BRANCH  30  44
HETATM   44  O   UNL     1      43.583 -17.323   0.633  1.00  0.00    -0.388 OA
HETATM   45  H   UNL     1      44.518 -17.244   0.915  1.00  0.00     0.210 HD
ENDBRANCH  30  44
BRANCH  31  46
HETATM   46  O   UNL     1      40.956 -17.270   0.272  1.00  0.00    -0.390 OA
HETATM   47  H   UNL     1      41.633 -16.767  -0.235  1.00  0.00     0.210 HD
ENDBRANCH  31  46
ENDBRANCH  26  27
ENDBRANCH   1  26
TORSDOF 12
ENDMDL
MODEL 6
REMARK VINA RESULT:      -8.5      3.950      6.490
REMARK  12 active torsions:
REMARK  status: ('A' for Active; 'I' for Inactive)
REMARK    1  A    between atoms: C_2  and  N_3 
REMARK    2  A    between atoms: N_3  and  C_5 
REMARK    3  A    between atoms: N_3  and  C_25 
REMARK    4  A    between atoms: C_7  and  C_8 
REMARK    5  A    between atoms: C_8  and  C_9 
REMARK    6  A    between atoms: C_9  and  C_10 
REMARK    7  A    between atoms: C_18  and  C_19 
REMARK    8  A    between atoms: C_25  and  C_26 
REMARK    9  A    between atoms: C_28  and  N_29 
REMARK   10  A    between atoms: C_32  and  N_33 
REMARK   11  A    between atoms: C_39  and  O_40 
REMARK   12  A    between atoms: C_41  and  O_42 
ROOT
HETATM    1  N   UNL     1      40.736 -13.955   4.453  1.00  0.00    -0.061 N 
HETATM    2  H   UNL     1      41.163 -13.539   3.611  1.00  0.00     0.280 HD
ENDROOT
BRANCH   1   3
HETATM    3  C   UNL     1      39.725 -12.936   4.982  1.00  0.00     0.180 C 
HETATM    4  C   UNL     1      39.773 -11.626   4.202  1.00  0.00     0.039 C 
HETATM    5  C   UNL     1      39.822 -12.708   6.488  1.00  0.00     0.039 C 
ENDBRANCH   1   3
BRANCH   1   6
HETATM    6  C   UNL     1      41.797 -14.268   5.476  1.00  0.00     0.189 C 
HETATM    7  C   UNL     1      42.058 -15.788   5.706  1.00  0.00     0.038 C 
HETATM    8  C   UNL     1      43.571 -15.469   5.796  1.00  0.00    -0.010 C 
HETATM    9  C   UNL     1      43.257 -14.215   4.943  1.00  0.00     0.038 C 
BRANCH   8  10
HETATM   10  C   UNL     1      44.168 -15.162   7.171  1.00  0.00     0.012 C 
BRANCH  10  11
HETATM   11  C   UNL     1      45.081 -13.933   7.118  1.00  0.00     0.079 C 
BRANCH  11  12
HETATM   12  C   UNL     1      44.710 -12.950   8.175  1.00  0.00     0.105 A 
HETATM   13  N   UNL     1      45.396 -12.678   9.267  1.00  0.00    -0.233 NA
HETATM   14  C   UNL     1      44.654 -11.737   9.943  1.00  0.00     0.085 A 
HETATM   15  C   UNL     1      43.501 -11.419   9.244  1.00  0.00     0.063 A 
HETATM   16  C   UNL     1      44.896 -11.105  11.168  1.00  0.00     0.034 A 
HETATM   17  N   UNL     1      43.563 -12.196   8.116  1.00  0.00    -0.343 N 
HETATM   18  C   UNL     1      42.558 -10.491   9.696  1.00  0.00     0.039 A 
HETATM   19  H   UNL     1      42.873 -12.216   7.380  1.00  0.00     0.167 HD
HETATM   20  C   UNL     1      42.789  -9.848  10.934  1.00  0.00    -0.048 A 
HETATM   21  C   UNL     1      43.961 -10.171  11.647  1.00  0.00     0.010 A 
BRANCH  20  22
HETATM   22  C   UNL     1      41.763  -8.821  11.458  1.00  0.00    -0.024 C 
HETATM   23  C   UNL     1      40.692  -9.423  12.396  1.00  0.00     0.019 C 
HETATM   24  C   UNL     1      42.497  -7.718  12.253  1.00  0.00     0.019 C 
HETATM   25  C   UNL     1      41.015  -8.177  10.270  1.00  0.00     0.019 C 
ENDBRANCH  20  22
ENDBRANCH  11  12
ENDBRANCH  10  11
ENDBRANCH   8  10
ENDBRANCH   1   6
BRANCH   1  26
HETATM   26  C   UNL     1      40.127 -15.286   3.984  1.00  0.00     0.270 C 
BRANCH  26  27
HETATM   27  C   UNL     1      40.274 -15.467   2.469  1.00  0.00     0.181 C 
HETATM   28  O   UNL     1      40.132 -14.217   1.767  1.00  0.00    -0.354 OA
HETATM   29  C   UNL     1      40.746 -14.439   0.458  1.00  0.00     0.262 C 
HETATM   30  C   UNL     1      41.643 -15.690   0.569  1.00  0.00     0.198 C 
HETATM   31  C   UNL     1      41.648 -15.967   2.066  1.00  0.00     0.181 C 
BRANCH  29  32
HETATM   32  N   UNL     1      41.461 -13.257   0.027  1.00  0.00    -0.294 N 
HETATM   33  C   UNL     1      41.600 -12.900  -1.287  1.00  0.00     0.167 A 
HETATM   34  C   UNL     1      42.294 -11.702  -1.262  1.00  0.00     0.149 A 
HETATM   35  N   UNL     1      41.156 -13.575  -2.359  1.00  0.00    -0.222 NA
HETATM   36  C   UNL     1      42.553 -11.104  -2.507  1.00  0.00     0.155 A 
HETATM   37  N   UNL     1      42.597 -11.351   0.040  1.00  0.00    -0.236 NA
HETATM   38  N   UNL     1      42.137 -11.744  -3.625  1.00  0.00    -0.222 NA
HETATM   39  C   UNL     1      41.471 -12.912  -3.495  1.00  0.00     0.237 A 
HETATM   40  C   UNL     1      42.070 -12.299   0.785  1.00  0.00     0.214 A 
BRANCH  36  41
HETATM   41  N   UNL     1      43.220  -9.900  -2.653  1.00  0.00    -0.382 N 
HETATM   42  H   UNL     1      43.152  -9.482  -3.572  1.00  0.00     0.157 HD
HETATM   43  H   UNL     1      43.120  -9.294  -1.848  1.00  0.00     0.157 HD
ENDBRANCH  36  41
ENDBRANCH  29  32
BRANCH  30  44
HETATM   44  O   UNL     1      41.044 -16.818  -0.089  1.00  0.00    -0.388 OA
HETATM   45  H   UNL     1      40.395 -17.201   0.538  1.00  0.00     0.210 HD
ENDBRANCH  30  44
BRANCH  31  46
HETATM   46  O   UNL     1      41.818 -17.332   2.395  1.00  0.00    -0.390 OA
HETATM   47  H   UNL     1      42.784 -17.474   2.506  1.00  0.00     0.210 HD
ENDBRANCH  31  46
ENDBRANCH  26  27
ENDBRANCH   1  26
TORSDOF 12
ENDMDL
MODEL 7
REMARK VINA RESULT:      -8.4      4.284      6.179
REMARK  12 active torsions:
REMARK  status: ('A' for Active; 'I' for Inactive)
REMARK    1  A    between atoms: C_2  and  N_3 
REMARK    2  A    between atoms: N_3  and  C_5 
REMARK    3  A    between atoms: N_3  and  C_25 
REMARK    4  A    between atoms: C_7  and  C_8 
REMARK    5  A    between atoms: C_8  and  C_9 
REMARK    6  A    between atoms: C_9  and  C_10 
REMARK    7  A    between atoms: C_18  and  C_19 
REMARK    8  A    between atoms: C_25  and  C_26 
REMARK    9  A    between atoms: C_28  and  N_29 
REMARK   10  A    between atoms: C_32  and  N_33 
REMARK   11  A    between atoms: C_39  and  O_40 
REMARK   12  A    between atoms: C_41  and  O_42 
ROOT
HETATM    1  N   UNL     1      42.657 -15.745   3.471  1.00  0.00    -0.061 N 
HETATM    2  H   UNL     1      41.636 -15.840   3.578  1.00  0.00     0.280 HD
ENDROOT
BRANCH   1   3
HETATM    3  C   UNL     1      43.172 -17.086   2.946  1.00  0.00     0.180 C 
HETATM    4  C   UNL     1      44.015 -16.919   1.685  1.00  0.00     0.039 C 
HETATM    5  C   UNL     1      42.075 -18.130   2.764  1.00  0.00     0.039 C 
ENDBRANCH   1   3
BRANCH   1   6
HETATM    6  C   UNL     1      43.289 -15.385   4.792  1.00  0.00     0.189 C 
HETATM    7  C   UNL     1      44.063 -14.031   4.802  1.00  0.00     0.038 C 
HETATM    8  C   UNL     1      43.486 -13.764   6.214  1.00  0.00    -0.010 C 
HETATM    9  C   UNL     1      42.329 -14.713   5.815  1.00  0.00     0.038 C 
BRANCH   8  10
HETATM   10  C   UNL     1      44.292 -14.230   7.428  1.00  0.00     0.012 C 
BRANCH  10  11
HETATM   11  C   UNL     1      45.151 -13.095   7.995  1.00  0.00     0.079 C 
BRANCH  11  12
HETATM   12  C   UNL     1      44.327 -12.167   8.819  1.00  0.00     0.105 A 
HETATM   13  N   UNL     1      43.443 -11.297   8.373  1.00  0.00    -0.233 NA
HETATM   14  C   UNL     1      42.961 -10.655   9.490  1.00  0.00     0.085 A 
HETATM   15  C   UNL     1      43.551 -11.152  10.641  1.00  0.00     0.063 A 
HETATM   16  C   UNL     1      42.017  -9.629   9.605  1.00  0.00     0.034 A 
HETATM   17  N   UNL     1      44.410 -12.121  10.190  1.00  0.00    -0.343 N 
HETATM   18  C   UNL     1      43.252 -10.683  11.924  1.00  0.00     0.039 A 
HETATM   19  H   UNL     1      45.008 -12.690  10.772  1.00  0.00     0.167 HD
HETATM   20  C   UNL     1      42.302  -9.644  12.053  1.00  0.00    -0.048 A 
HETATM   21  C   UNL     1      41.701  -9.137  10.884  1.00  0.00     0.010 A 
BRANCH  20  22
HETATM   22  C   UNL     1      41.954  -9.105  13.458  1.00  0.00    -0.024 C 
HETATM   23  C   UNL     1      40.438  -8.959  13.718  1.00  0.00     0.019 C 
HETATM   24  C   UNL     1      42.511 -10.067  14.530  1.00  0.00     0.019 C 
HETATM   25  C   UNL     1      42.585  -7.709  13.652  1.00  0.00     0.019 C 
ENDBRANCH  20  22
ENDBRANCH  11  12
ENDBRANCH  10  11
ENDBRANCH   8  10
ENDBRANCH   1   6
BRANCH   1  26
HETATM   26  C   UNL     1      42.856 -14.557   2.516  1.00  0.00     0.270 C 
BRANCH  26  27
HETATM   27  C   UNL     1      41.534 -14.130   1.869  1.00  0.00     0.181 C 
HETATM   28  O   UNL     1      41.662 -13.983   0.441  1.00  0.00    -0.354 OA
HETATM   29  C   UNL     1      40.297 -14.050  -0.078  1.00  0.00     0.262 C 
HETATM   30  C   UNL     1      39.412 -14.685   1.016  1.00  0.00     0.198 C 
HETATM   31  C   UNL     1      40.434 -15.162   2.039  1.00  0.00     0.181 C 
BRANCH  29  32
HETATM   32  N   UNL     1      40.266 -14.772  -1.331  1.00  0.00    -0.294 N 
HETATM   33  C   UNL     1      39.185 -14.777  -2.169  1.00  0.00     0.167 A 
HETATM   34  C   UNL     1      39.580 -15.532  -3.261  1.00  0.00     0.149 A 
HETATM   35  N   UNL     1      38.001 -14.178  -1.966  1.00  0.00    -0.222 NA
HETATM   36  C   UNL     1      38.638 -15.678  -4.294  1.00  0.00     0.155 A 
HETATM   37  N   UNL     1      40.867 -16.003  -3.078  1.00  0.00    -0.236 NA
HETATM   38  N   UNL     1      37.423 -15.102  -4.140  1.00  0.00    -0.222 NA
HETATM   39  C   UNL     1      37.177 -14.394  -3.016  1.00  0.00     0.237 A 
HETATM   40  C   UNL     1      41.250 -15.515  -1.917  1.00  0.00     0.214 A 
BRANCH  36  41
HETATM   41  N   UNL     1      38.884 -16.386  -5.458  1.00  0.00    -0.382 N 
HETATM   42  H   UNL     1      38.081 -16.870  -5.841  1.00  0.00     0.157 HD
HETATM   43  H   UNL     1      39.492 -15.893  -6.100  1.00  0.00     0.157 HD
ENDBRANCH  36  41
ENDBRANCH  29  32
BRANCH  30  44
HETATM   44  O   UNL     1      38.579 -13.699   1.648  1.00  0.00    -0.388 OA
HETATM   45  H   UNL     1      38.869 -13.639   2.582  1.00  0.00     0.210 HD
ENDBRANCH  30  44
BRANCH  31  46
HETATM   46  O   UNL     1      39.948 -15.183   3.367  1.00  0.00    -0.390 OA
HETATM   47  H   UNL     1      40.410 -14.457   3.844  1.00  0.00     0.210 HD
ENDBRANCH  31  46
ENDBRANCH  26  27
ENDBRANCH   1  26
TORSDOF 12
ENDMDL
MODEL 8
REMARK VINA RESULT:      -8.3      1.702      2.961
REMARK  12 active torsions:
REMARK  status: ('A' for Active; 'I' for Inactive)
REMARK    1  A    between atoms: C_2  and  N_3 
REMARK    2  A    between atoms: N_3  and  C_5 
REMARK    3  A    between atoms: N_3  and  C_25 
REMARK    4  A    between atoms: C_7  and  C_8 
REMARK    5  A    between atoms: C_8  and  C_9 
REMARK    6  A    between atoms: C_9  and  C_10 
REMARK    7  A    between atoms: C_18  and  C_19 
REMARK    8  A    between atoms: C_25  and  C_26 
REMARK    9  A    between atoms: C_28  and  N_29 
REMARK   10  A    between atoms: C_32  and  N_33 
REMARK   11  A    between atoms: C_39  and  O_40 
REMARK   12  A    between atoms: C_41  and  O_42 
ROOT
HETATM    1  N   UNL     1      40.947 -13.998   4.392  1.00  0.00    -0.061 N 
HETATM    2  H   UNL     1      41.922 -13.910   4.716  1.00  0.00     0.280 HD
ENDROOT
BRANCH   1   3
HETATM    3  C   UNL     1      41.008 -14.332   2.900  1.00  0.00     0.180 C 
HETATM    4  C   UNL     1      40.145 -15.541   2.551  1.00  0.00     0.039 C 
HETATM    5  C   UNL     1      42.430 -14.472   2.365  1.00  0.00     0.039 C 
ENDBRANCH   1   3
BRANCH   1   6
HETATM    6  C   UNL     1      40.194 -12.716   4.645  1.00  0.00     0.189 C 
HETATM    7  C   UNL     1      39.816 -12.461   6.136  1.00  0.00     0.038 C 
HETATM    8  C   UNL     1      40.165 -10.967   5.921  1.00  0.00    -0.010 C 
HETATM    9  C   UNL     1      41.086 -11.448   4.772  1.00  0.00     0.038 C 
BRANCH   8  10
HETATM   10  C   UNL     1      39.051 -10.017   5.478  1.00  0.00     0.012 C 
BRANCH  10  11
HETATM   11  C   UNL     1      39.046  -8.736   6.319  1.00  0.00     0.079 C 
BRANCH  11  12
HETATM   12  C   UNL     1      39.417  -9.028   7.732  1.00  0.00     0.105 A 
HETATM   13  N   UNL     1      38.622  -9.505   8.668  1.00  0.00    -0.233 NA
HETATM   14  C   UNL     1      39.393  -9.580   9.805  1.00  0.00     0.085 A 
HETATM   15  C   UNL     1      40.687  -9.153   9.555  1.00  0.00     0.063 A 
HETATM   16  C   UNL     1      39.059 -10.000  11.097  1.00  0.00     0.034 A 
HETATM   17  N   UNL     1      40.682  -8.815   8.226  1.00  0.00    -0.343 N 
HETATM   18  C   UNL     1      41.690  -9.120  10.529  1.00  0.00     0.039 A 
HETATM   19  H   UNL     1      41.472  -8.460   7.709  1.00  0.00     0.167 HD
HETATM   20  C   UNL     1      41.364  -9.538  11.840  1.00  0.00    -0.048 A 
HETATM   21  C   UNL     1      40.048  -9.972  12.097  1.00  0.00     0.010 A 
BRANCH  20  22
HETATM   22  C   UNL     1      42.450  -9.510  12.936  1.00  0.00    -0.024 C 
HETATM   23  C   UNL     1      42.102 -10.344  14.189  1.00  0.00     0.019 C 
HETATM   24  C   UNL     1      43.772 -10.072  12.367  1.00  0.00     0.019 C 
HETATM   25  C   UNL     1      42.678  -8.056  13.408  1.00  0.00     0.019 C 
ENDBRANCH  20  22
ENDBRANCH  11  12
ENDBRANCH  10  11
ENDBRANCH   8  10
ENDBRANCH   1   6
BRANCH   1  26
HETATM   26  C   UNL     1      40.322 -15.091   5.274  1.00  0.00     0.270 C 
BRANCH  26  27
HETATM   27  C   UNL     1      41.352 -15.689   6.240  1.00  0.00     0.181 C 
HETATM   28  O   UNL     1      41.428 -17.123   6.118  1.00  0.00    -0.354 OA
HETATM   29  C   UNL     1      42.716 -17.492   6.703  1.00  0.00     0.262 C 
HETATM   30  C   UNL     1      43.584 -16.217   6.763  1.00  0.00     0.198 C 
HETATM   31  C   UNL     1      42.767 -15.216   5.959  1.00  0.00     0.181 C 
BRANCH  29  32
HETATM   32  N   UNL     1      43.326 -18.566   5.951  1.00  0.00    -0.294 N 
HETATM   33  C   UNL     1      43.246 -18.670   4.589  1.00  0.00     0.167 A 
HETATM   34  C   UNL     1      43.993 -19.791   4.269  1.00  0.00     0.149 A 
HETATM   35  N   UNL     1      42.583 -17.854   3.753  1.00  0.00    -0.222 NA
HETATM   36  C   UNL     1      44.088 -20.111   2.904  1.00  0.00     0.155 A 
HETATM   37  N   UNL     1      44.494 -20.377   5.417  1.00  0.00    -0.236 NA
HETATM   38  N   UNL     1      43.432 -19.328   2.015  1.00  0.00    -0.222 NA
HETATM   39  C   UNL     1      42.737 -18.265   2.474  1.00  0.00     0.237 A 
HETATM   40  C   UNL     1      44.085 -19.607   6.403  1.00  0.00     0.214 A 
BRANCH  36  41
HETATM   41  N   UNL     1      44.810 -21.188   2.419  1.00  0.00    -0.382 N 
HETATM   42  H   UNL     1      45.642 -21.417   2.948  1.00  0.00     0.157 HD
HETATM   43  H   UNL     1      44.221 -21.950   2.107  1.00  0.00     0.157 HD
ENDBRANCH  36  41
ENDBRANCH  29  32
BRANCH  30  44
HETATM   44  O   UNL     1      43.691 -15.724   8.109  1.00  0.00    -0.388 OA
HETATM   45  H   UNL     1      43.917 -16.491   8.675  1.00  0.00     0.210 HD
ENDBRANCH  30  44
BRANCH  31  46
HETATM   46  O   UNL     1      42.951 -13.872   6.361  1.00  0.00    -0.390 OA
HETATM   47  H   UNL     1      43.017 -13.342   5.535  1.00  0.00     0.210 HD
ENDBRANCH  31  46
ENDBRANCH  26  27
ENDBRANCH   1  26
TORSDOF 12
ENDMDL
MODEL 9
REMARK VINA RESULT:      -8.3      1.450      2.193
REMARK  12 active torsions:
REMARK  status: ('A' for Active; 'I' for Inactive)
REMARK    1  A    between atoms: C_2  and  N_3 
REMARK    2  A    between atoms: N_3  and  C_5 
REMARK    3  A    between atoms: N_3  and  C_25 
REMARK    4  A    between atoms: C_7  and  C_8 
REMARK    5  A    between atoms: C_8  and  C_9 
REMARK    6  A    between atoms: C_9  and  C_10 
REMARK    7  A    between atoms: C_18  and  C_19 
REMARK    8  A    between atoms: C_25  and  C_26 
REMARK    9  A    between atoms: C_28  and  N_29 
REMARK   10  A    between atoms: C_32  and  N_33 
REMARK   11  A    between atoms: C_39  and  O_40 
REMARK   12  A    between atoms: C_41  and  O_42 
ROOT
HETATM    1  N   UNL     1      41.556 -14.998   4.846  1.00  0.00    -0.061 N 
HETATM    2  H   UNL     1      40.822 -15.553   4.380  1.00  0.00     0.280 HD
ENDROOT
BRANCH   1   3
HETATM    3  C   UNL     1      41.796 -15.643   6.212  1.00  0.00     0.180 C 
HETATM    4  C   UNL     1      43.283 -15.758   6.535  1.00  0.00     0.039 C 
HETATM    5  C   UNL     1      41.068 -16.971   6.394  1.00  0.00     0.039 C 
ENDBRANCH   1   3
BRANCH   1   6
HETATM    6  C   UNL     1      41.119 -13.561   4.978  1.00  0.00     0.189 C 
HETATM    7  C   UNL     1      42.189 -12.508   4.554  1.00  0.00     0.038 C 
HETATM    8  C   UNL     1      41.052 -11.683   3.903  1.00  0.00    -0.010 C 
HETATM    9  C   UNL     1      40.280 -13.020   3.786  1.00  0.00     0.038 C 
BRANCH   8  10
HETATM   10  C   UNL     1      40.348 -10.621   4.750  1.00  0.00     0.012 C 
BRANCH  10  11
HETATM   11  C   UNL     1      41.323  -9.525   5.190  1.00  0.00     0.079 C 
BRANCH  11  12
HETATM   12  C   UNL     1      41.377  -9.427   6.676  1.00  0.00     0.105 A 
HETATM   13  N   UNL     1      40.902  -8.444   7.414  1.00  0.00    -0.233 NA
HETATM   14  C   UNL     1      41.207  -8.778   8.713  1.00  0.00     0.085 A 
HETATM   15  C   UNL     1      41.868  -9.994   8.770  1.00  0.00     0.063 A 
HETATM   16  C   UNL     1      40.955  -8.090   9.905  1.00  0.00     0.034 A 
HETATM   17  N   UNL     1      41.957 -10.393   7.462  1.00  0.00    -0.343 N 
HETATM   18  C   UNL     1      42.300 -10.580   9.964  1.00  0.00     0.039 A 
HETATM   19  H   UNL     1      42.387 -11.247   7.138  1.00  0.00     0.167 HD
HETATM   20  C   UNL     1      42.055  -9.893  11.176  1.00  0.00    -0.048 A 
HETATM   21  C   UNL     1      41.383  -8.656  11.119  1.00  0.00     0.010 A 
BRANCH  20  22
HETATM   22  C   UNL     1      42.523 -10.516  12.508  1.00  0.00    -0.024 C 
HETATM   23  C   UNL     1      43.315 -11.832  12.343  1.00  0.00     0.019 C 
HETATM   24  C   UNL     1      43.443  -9.519  13.248  1.00  0.00     0.019 C 
HETATM   25  C   UNL     1      41.298 -10.831  13.396  1.00  0.00     0.019 C 
ENDBRANCH  20  22
ENDBRANCH  11  12
ENDBRANCH  10  11
ENDBRANCH   8  10
ENDBRANCH   1   6
BRANCH   1  26
HETATM   26  C   UNL     1      42.761 -15.037   3.892  1.00  0.00     0.270 C 
BRANCH  26  27
HETATM   27  C   UNL     1      42.523 -16.003   2.727  1.00  0.00     0.181 C 
HETATM   28  O   UNL     1      43.629 -16.912   2.553  1.00  0.00    -0.354 OA
HETATM   29  C   UNL     1      43.092 -18.028   1.776  1.00  0.00     0.262 C 
HETATM   30  C   UNL     1      41.553 -17.973   1.882  1.00  0.00     0.198 C 
HETATM   31  C   UNL     1      41.328 -16.911   2.949  1.00  0.00     0.181 C 
BRANCH  29  32
HETATM   32  N   UNL     1      43.654 -19.280   2.234  1.00  0.00    -0.294 N 
HETATM   33  C   UNL     1      43.922 -19.548   3.548  1.00  0.00     0.167 A 
HETATM   34  C   UNL     1      44.395 -20.849   3.561  1.00  0.00     0.149 A 
HETATM   35  N   UNL     1      43.760 -18.719   4.592  1.00  0.00    -0.222 NA
HETATM   36  C   UNL     1      44.731 -21.381   4.818  1.00  0.00     0.155 A 
HETATM   37  N   UNL     1      44.441 -21.355   2.275  1.00  0.00    -0.236 NA
HETATM   38  N   UNL     1      44.596 -20.587   5.906  1.00  0.00    -0.222 NA
HETATM   39  C   UNL     1      44.123 -19.333   5.741  1.00  0.00     0.237 A 
HETATM   40  C   UNL     1      43.976 -20.391   1.509  1.00  0.00     0.214 A 
BRANCH  36  41
HETATM   41  N   UNL     1      45.200 -22.670   5.002  1.00  0.00    -0.382 N 
HETATM   42  H   UNL     1      44.834 -23.355   4.352  1.00  0.00     0.157 HD
HETATM   43  H   UNL     1      46.188 -22.704   5.220  1.00  0.00     0.157 HD
ENDBRANCH  36  41
ENDBRANCH  29  32
BRANCH  30  44
HETATM   44  O   UNL     1      40.965 -17.504   0.658  1.00  0.00    -0.388 OA
HETATM   45  H   UNL     1      40.036 -17.265   0.862  1.00  0.00     0.210 HD
ENDBRANCH  30  44
BRANCH  31  46
HETATM   46  O   UNL     1      40.110 -16.205   2.805  1.00  0.00    -0.390 OA
HETATM   47  H   UNL     1      39.763 -16.427   1.912  1.00  0.00     0.210 HD
ENDBRANCH  31  46
ENDBRANCH  26  27
ENDBRANCH   1  26
TORSDOF 12
ENDMDL
MODEL 10
REMARK VINA RESULT:      -8.0      2.244      3.621
REMARK  12 active torsions:
REMARK  status: ('A' for Active; 'I' for Inactive)
REMARK    1  A    between atoms: C_2  and  N_3 
REMARK    2  A    between atoms: N_3  and  C_5 
REMARK    3  A    between atoms: N_3  and  C_25 
REMARK    4  A    between atoms: C_7  and  C_8 
REMARK    5  A    between atoms: C_8  and  C_9 
REMARK    6  A    between atoms: C_9  and  C_10 
REMARK    7  A    between atoms: C_18  and  C_19 
REMARK    8  A    between atoms: C_25  and  C_26 
REMARK    9  A    between atoms: C_28  and  N_29 
REMARK   10  A    between atoms: C_32  and  N_33 
REMARK   11  A    between atoms: C_39  and  O_40 
REMARK   12  A    between atoms: C_41  and  O_42 
ROOT
HETATM    1  N   UNL     1      39.747 -12.511   2.322  1.00  0.00    -0.061 N 
HETATM    2  H   UNL     1      40.688 -12.243   1.998  1.00  0.00     0.280 HD
ENDROOT
BRANCH   1   3
HETATM    3  C   UNL     1      38.814 -12.391   1.115  1.00  0.00     0.180 C 
HETATM    4  C   UNL     1      37.831 -13.555   1.037  1.00  0.00     0.039 C 
HETATM    5  C   UNL     1      39.551 -12.177  -0.204  1.00  0.00     0.039 C 
ENDBRANCH   1   3
BRANCH   1   6
HETATM    6  C   UNL     1      39.310 -11.614   3.453  1.00  0.00     0.189 C 
HETATM    7  C   UNL     1      40.454 -11.164   4.412  1.00  0.00     0.038 C 
HETATM    8  C   UNL     1      39.800  -9.761   4.461  1.00  0.00    -0.010 C 
HETATM    9  C   UNL     1      39.183 -10.109   3.084  1.00  0.00     0.038 C 
BRANCH   8  10
HETATM   10  C   UNL     1      38.773  -9.476   5.558  1.00  0.00     0.012 C 
BRANCH  10  11
HETATM   11  C   UNL     1      38.992  -8.093   6.178  1.00  0.00     0.079 C 
BRANCH  11  12
HETATM   12  C   UNL     1      39.679  -8.205   7.496  1.00  0.00     0.105 A 
HETATM   13  N   UNL     1      39.677  -7.306   8.459  1.00  0.00    -0.233 NA
HETATM   14  C   UNL     1      40.461  -7.834   9.459  1.00  0.00     0.085 A 
HETATM   15  C   UNL     1      40.939  -9.086   9.104  1.00  0.00     0.063 A 
HETATM   16  C   UNL     1      40.818  -7.304  10.703  1.00  0.00     0.034 A 
HETATM   17  N   UNL     1      40.420  -9.305   7.854  1.00  0.00    -0.343 N 
HETATM   18  C   UNL     1      41.764  -9.857   9.929  1.00  0.00     0.039 A 
HETATM   19  H   UNL     1      40.572 -10.131   7.294  1.00  0.00     0.167 HD
HETATM   20  C   UNL     1      42.135  -9.330  11.188  1.00  0.00    -0.048 A 
HETATM   21  C   UNL     1      41.650  -8.058  11.549  1.00  0.00     0.010 A 
BRANCH  20  22
HETATM   22  C   UNL     1      43.046 -10.159  12.117  1.00  0.00    -0.024 C 
HETATM   23  C   UNL     1      43.563  -9.382  13.349  1.00  0.00     0.019 C 
HETATM   24  C   UNL     1      42.266 -11.384  12.645  1.00  0.00     0.019 C 
HETATM   25  C   UNL     1      44.286 -10.646  11.334  1.00  0.00     0.019 C 
ENDBRANCH  20  22
ENDBRANCH  11  12
ENDBRANCH  10  11
ENDBRANCH   8  10
ENDBRANCH   1   6
BRANCH   1  26
HETATM   26  C   UNL     1      39.899 -13.934   2.883  1.00  0.00     0.270 C 
BRANCH  26  27
HETATM   27  C   UNL     1      41.342 -14.214   3.318  1.00  0.00     0.181 C 
HETATM   28  O   UNL     1      41.540 -15.603   3.645  1.00  0.00    -0.354 OA
HETATM   29  C   UNL     1      42.986 -15.814   3.572  1.00  0.00     0.262 C 
HETATM   30  C   UNL     1      43.588 -14.645   2.763  1.00  0.00     0.198 C 
HETATM   31  C   UNL     1      42.352 -13.943   2.218  1.00  0.00     0.181 C 
BRANCH  29  32
HETATM   32  N   UNL     1      43.280 -17.113   3.008  1.00  0.00    -0.294 N 
HETATM   33  C   UNL     1      43.848 -18.132   3.724  1.00  0.00     0.167 A 
HETATM   34  C   UNL     1      43.911 -19.198   2.843  1.00  0.00     0.149 A 
HETATM   35  N   UNL     1      44.253 -18.093   5.003  1.00  0.00    -0.222 NA
HETATM   36  C   UNL     1      44.448 -20.395   3.347  1.00  0.00     0.155 A 
HETATM   37  N   UNL     1      43.418 -18.828   1.605  1.00  0.00    -0.236 NA
HETATM   38  N   UNL     1      44.882 -20.413   4.629  1.00  0.00    -0.222 NA
HETATM   39  C   UNL     1      44.758 -19.293   5.373  1.00  0.00     0.237 A 
HETATM   40  C   UNL     1      43.037 -17.576   1.747  1.00  0.00     0.214 A 
BRANCH  36  41
HETATM   41  N   UNL     1      44.564 -21.556   2.601  1.00  0.00    -0.382 N 
HETATM   42  H   UNL     1      44.809 -21.415   1.629  1.00  0.00     0.157 HD
HETATM   43  H   UNL     1      45.026 -22.304   3.103  1.00  0.00     0.157 HD
ENDBRANCH  36  41
ENDBRANCH  29  32
BRANCH  30  44
HETATM   44  O   UNL     1      44.280 -13.723   3.620  1.00  0.00    -0.388 OA
HETATM   45  H   UNL     1      43.844 -12.852   3.512  1.00  0.00     0.210 HD
ENDBRANCH  30  44
BRANCH  31  46
HETATM   46  O   UNL     1      42.527 -12.555   2.009  1.00  0.00    -0.390 OA
HETATM   47  H   UNL     1      43.109 -12.463   1.221  1.00  0.00     0.210 HD
ENDBRANCH  31  46
ENDBRANCH  26  27
ENDBRANCH   1  26
TORSDOF 12
ENDMDL
