MODEL 1
REMARK VINA RESULT:      -9.6      0.000      0.000
REMARK  2 active torsions:
REMARK  status: ('A' for Active; 'I' for Inactive)
REMARK    1  A    between atoms: C_7  and  C_8 
REMARK       I    between atoms: C_8  and  N_9 
REMARK    2  A    between atoms: N_9  and  N_10 
ROOT
HETATM    1  C   UNL     1      43.186 -14.834   5.370  1.00  0.00     0.292 C 
HETATM    2  N   UNL     1      41.909 -14.601   5.858  1.00  0.00    -0.241 N 
HETATM    3  O   UNL     1      43.981 -13.980   4.989  1.00  0.00    -0.264 OA
HETATM    4  H   UNL     1      41.348 -15.432   6.012  1.00  0.00     0.192 HD
ENDROOT
BRANCH   1   5
HETATM    5  C   UNL     1      43.503 -16.275   5.364  1.00  0.00     0.154 A 
HETATM    6  C   UNL     1      43.509 -17.161   4.259  1.00  0.00     0.007 A 
HETATM    7  C   UNL     1      43.898 -18.383   4.759  1.00  0.00     0.069 A 
HETATM    8  C   UNL     1      43.227 -16.967   2.810  1.00  0.00     0.048 C 
HETATM    9  C   UNL     1      44.044 -19.589   3.962  1.00  0.00    -0.001 A 
HETATM   10  N   UNL     1      44.080 -18.197   6.094  1.00  0.00    -0.276 N 
HETATM   11  C   UNL     1      43.540 -19.534   2.639  1.00  0.00    -0.045 A 
HETATM   12  C   UNL     1      44.665 -20.750   4.427  1.00  0.00     0.014 A 
HETATM   13  C   UNL     1      43.649 -20.662   1.815  1.00  0.00     0.008 A 
HETATM   14  C   UNL     1      42.794 -18.298   2.148  1.00  0.00     0.044 C 
HETATM   15  C   UNL     1      44.273 -21.816   2.289  1.00  0.00     0.001 A 
HETATM   16  C   UNL     1      44.780 -21.860   3.588  1.00  0.00     0.001 A 
HETATM   17  N   UNL     1      43.849 -16.931   6.502  1.00  0.00    -0.168 NA
HETATM   18  H   UNL     1      44.354 -18.886   6.786  1.00  0.00     0.189 HD
ENDBRANCH   1   5
BRANCH   2  19
HETATM   19  N   UNL     1      41.349 -13.365   5.824  1.00  0.00    -0.165 NA
HETATM   20  C   UNL     1      40.597 -13.033   4.823  1.00  0.00     0.157 A 
HETATM   21  C   UNL     1      40.070 -11.588   4.685  1.00  0.00     0.277 A 
HETATM   22  C   UNL     1      40.071 -13.758   3.655  1.00  0.00     0.027 A 
HETATM   23  O   UNL     1      40.242 -10.673   5.459  1.00  0.00    -0.266 OA
HETATM   24  N   UNL     1      39.382 -11.561   3.495  1.00  0.00    -0.321 N 
HETATM   25  C   UNL     1      39.372 -12.813   2.896  1.00  0.00     0.048 A 
HETATM   26  H   UNL     1      38.924 -10.730   3.151  1.00  0.00     0.169 HD
HETATM   27  C   UNL     1      38.737 -13.140   1.714  1.00  0.00     0.030 A 
HETATM   28  C   UNL     1      38.801 -14.469   1.294  1.00  0.00     0.002 A 
HETATM   29  C   UNL     1      39.476 -15.433   2.063  1.00  0.00     0.001 A 
HETATM   30  C   UNL     1      40.112 -15.085   3.262  1.00  0.00     0.016 A 
ENDBRANCH   2  19
TORSDOF 2
ENDMDL
MODEL 2
REMARK VINA RESULT:      -9.6      2.262      2.505
REMARK  2 active torsions:
REMARK  status: ('A' for Active; 'I' for Inactive)
REMARK    1  A    between atoms: C_7  and  C_8 
REMARK       I    between atoms: C_8  and  N_9 
REMARK    2  A    between atoms: N_9  and  N_10 
ROOT
HETATM    1  C   UNL     1      43.218 -14.370   3.626  1.00  0.00     0.292 C 
HETATM    2  N   UNL     1      41.871 -14.083   3.459  1.00  0.00    -0.241 N 
HETATM    3  O   UNL     1      44.151 -13.601   3.421  1.00  0.00    -0.264 OA
HETATM    4  H   UNL     1      41.246 -14.875   3.558  1.00  0.00     0.192 HD
ENDROOT
BRANCH   1   5
HETATM    5  C   UNL     1      43.415 -15.753   4.103  1.00  0.00     0.154 A 
HETATM    6  C   UNL     1      43.642 -16.917   3.327  1.00  0.00     0.007 A 
HETATM    7  C   UNL     1      43.794 -17.945   4.230  1.00  0.00     0.069 A 
HETATM    8  C   UNL     1      43.765 -17.143   1.862  1.00  0.00     0.048 C 
HETATM    9  C   UNL     1      44.051 -19.328   3.866  1.00  0.00    -0.001 A 
HETATM   10  N   UNL     1      43.635 -17.386   5.460  1.00  0.00    -0.276 N 
HETATM   11  C   UNL     1      43.916 -19.653   2.494  1.00  0.00    -0.045 A 
HETATM   12  C   UNL     1      44.440 -20.306   4.782  1.00  0.00     0.014 A 
HETATM   13  C   UNL     1      44.151 -20.968   2.073  1.00  0.00     0.008 A 
HETATM   14  C   UNL     1      43.420 -18.609   1.499  1.00  0.00     0.044 C 
HETATM   15  C   UNL     1      44.540 -21.938   2.996  1.00  0.00     0.001 A 
HETATM   16  C   UNL     1      44.685 -21.610   4.345  1.00  0.00     0.001 A 
HETATM   17  N   UNL     1      43.401 -16.057   5.426  1.00  0.00    -0.168 NA
HETATM   18  H   UNL     1      43.665 -17.849   6.362  1.00  0.00     0.189 HD
ENDBRANCH   1   5
BRANCH   2  19
HETATM   19  N   UNL     1      41.457 -12.919   2.895  1.00  0.00    -0.165 NA
HETATM   20  C   UNL     1      41.219 -12.877   1.622  1.00  0.00     0.157 A 
HETATM   21  C   UNL     1      40.892 -11.535   0.931  1.00  0.00     0.277 A 
HETATM   22  C   UNL     1      41.190 -13.889   0.554  1.00  0.00     0.027 A 
HETATM   23  O   UNL     1      40.780 -10.452   1.461  1.00  0.00    -0.266 OA
HETATM   24  N   UNL     1      40.773 -11.831  -0.406  1.00  0.00    -0.321 N 
HETATM   25  C   UNL     1      40.937 -13.191  -0.632  1.00  0.00     0.048 A 
HETATM   26  H   UNL     1      40.556 -11.131  -1.100  1.00  0.00     0.169 HD
HETATM   27  C   UNL     1      40.839 -13.826  -1.855  1.00  0.00     0.030 A 
HETATM   28  C   UNL     1      40.991 -15.212  -1.875  1.00  0.00     0.002 A 
HETATM   29  C   UNL     1      41.216 -15.927  -0.686  1.00  0.00     0.001 A 
HETATM   30  C   UNL     1      41.309 -15.268   0.547  1.00  0.00     0.016 A 
ENDBRANCH   2  19
TORSDOF 2
ENDMDL
MODEL 3
REMARK VINA RESULT:      -9.6      1.614      2.166
REMARK  2 active torsions:
REMARK  status: ('A' for Active; 'I' for Inactive)
REMARK    1  A    between atoms: C_7  and  C_8 
REMARK       I    between atoms: C_8  and  N_9 
REMARK    2  A    between atoms: N_9  and  N_10 
ROOT
HETATM    1  C   UNL     1      43.149 -14.846   3.405  1.00  0.00     0.292 C 
HETATM    2  N   UNL     1      42.006 -14.812   4.190  1.00  0.00    -0.241 N 
HETATM    3  O   UNL     1      43.916 -13.910   3.204  1.00  0.00    -0.264 OA
HETATM    4  H   UNL     1      41.427 -15.643   4.146  1.00  0.00     0.192 HD
ENDROOT
BRANCH   1   5
HETATM    5  C   UNL     1      43.357 -16.185   2.821  1.00  0.00     0.154 A 
HETATM    6  C   UNL     1      43.667 -17.391   3.496  1.00  0.00     0.007 A 
HETATM    7  C   UNL     1      43.727 -18.362   2.522  1.00  0.00     0.069 A 
HETATM    8  C   UNL     1      43.872 -17.718   4.934  1.00  0.00     0.048 C 
HETATM    9  C   UNL     1      44.017 -19.763   2.774  1.00  0.00    -0.001 A 
HETATM   10  N   UNL     1      43.483 -17.724   1.346  1.00  0.00    -0.276 N 
HETATM   11  C   UNL     1      44.477 -20.087   4.074  1.00  0.00    -0.045 A 
HETATM   12  C   UNL     1      43.837 -20.771   1.824  1.00  0.00     0.014 A 
HETATM   13  C   UNL     1      44.774 -21.419   4.386  1.00  0.00     0.008 A 
HETATM   14  C   UNL     1      44.747 -18.985   5.093  1.00  0.00     0.044 C 
HETATM   15  C   UNL     1      44.591 -22.419   3.430  1.00  0.00     0.001 A 
HETATM   16  C   UNL     1      44.123 -22.097   2.155  1.00  0.00     0.001 A 
HETATM   17  N   UNL     1      43.254 -16.401   1.484  1.00  0.00    -0.168 NA
HETATM   18  H   UNL     1      43.463 -18.124   0.414  1.00  0.00     0.189 HD
ENDBRANCH   1   5
BRANCH   2  19
HETATM   19  N   UNL     1      41.538 -13.650   4.714  1.00  0.00    -0.165 NA
HETATM   20  C   UNL     1      40.569 -13.028   4.121  1.00  0.00     0.157 A 
HETATM   21  C   UNL     1      40.118 -11.633   4.610  1.00  0.00     0.277 A 
HETATM   22  C   UNL     1      39.704 -13.342   2.972  1.00  0.00     0.027 A 
HETATM   23  O   UNL     1      40.551 -11.021   5.561  1.00  0.00    -0.266 OA
HETATM   24  N   UNL     1      39.141 -11.235   3.729  1.00  0.00    -0.321 N 
HETATM   25  C   UNL     1      38.890 -12.220   2.784  1.00  0.00     0.048 A 
HETATM   26  H   UNL     1      38.662 -10.351   3.814  1.00  0.00     0.169 HD
HETATM   27  C   UNL     1      37.942 -12.157   1.781  1.00  0.00     0.030 A 
HETATM   28  C   UNL     1      37.806 -13.270   0.952  1.00  0.00     0.002 A 
HETATM   29  C   UNL     1      38.598 -14.414   1.150  1.00  0.00     0.001 A 
HETATM   30  C   UNL     1      39.553 -14.463   2.174  1.00  0.00     0.016 A 
ENDBRANCH   2  19
TORSDOF 2
ENDMDL
MODEL 4
REMARK VINA RESULT:      -9.5      2.318      4.061
REMARK  2 active torsions:
REMARK  status: ('A' for Active; 'I' for Inactive)
REMARK    1  A    between atoms: C_7  and  C_8 
REMARK       I    between atoms: C_8  and  N_9 
REMARK    2  A    between atoms: N_9  and  N_10 
ROOT
HETATM    1  C   UNL     1      42.688 -14.800   2.972  1.00  0.00     0.292 C 
HETATM    2  N   UNL     1      41.775 -14.830   4.015  1.00  0.00    -0.241 N 
HETATM    3  O   UNL     1      43.189 -13.794   2.480  1.00  0.00    -0.264 OA
HETATM    4  H   UNL     1      41.375 -15.741   4.212  1.00  0.00     0.192 HD
ENDROOT
BRANCH   1   5
HETATM    5  C   UNL     1      43.012 -16.161   2.504  1.00  0.00     0.154 A 
HETATM    6  C   UNL     1      43.395 -17.281   3.283  1.00  0.00     0.007 A 
HETATM    7  C   UNL     1      43.554 -18.320   2.393  1.00  0.00     0.069 A 
HETATM    8  C   UNL     1      43.585 -17.474   4.746  1.00  0.00     0.048 C 
HETATM    9  C   UNL     1      43.943 -19.669   2.765  1.00  0.00    -0.001 A 
HETATM   10  N   UNL     1      43.294 -17.799   1.164  1.00  0.00    -0.276 N 
HETATM   11  C   UNL     1      44.391 -19.850   4.097  1.00  0.00    -0.045 A 
HETATM   12  C   UNL     1      43.865 -20.760   1.898  1.00  0.00     0.014 A 
HETATM   13  C   UNL     1      44.780 -21.126   4.523  1.00  0.00     0.008 A 
HETATM   14  C   UNL     1      44.550 -18.652   5.027  1.00  0.00     0.044 C 
HETATM   15  C   UNL     1      44.699 -22.210   3.649  1.00  0.00     0.001 A 
HETATM   16  C   UNL     1      44.242 -22.029   2.343  1.00  0.00     0.001 A 
HETATM   17  N   UNL     1      42.962 -16.490   1.188  1.00  0.00    -0.168 NA
HETATM   18  H   UNL     1      43.329 -18.272   0.268  1.00  0.00     0.189 HD
ENDBRANCH   1   5
BRANCH   2  19
HETATM   19  N   UNL     1      41.223 -13.693   4.511  1.00  0.00    -0.165 NA
HETATM   20  C   UNL     1      41.784 -13.097   5.515  1.00  0.00     0.157 A 
HETATM   21  C   UNL     1      41.099 -11.890   6.193  1.00  0.00     0.277 A 
HETATM   22  C   UNL     1      43.037 -13.310   6.260  1.00  0.00     0.027 A 
HETATM   23  O   UNL     1      40.059 -11.365   5.863  1.00  0.00    -0.266 OA
HETATM   24  N   UNL     1      41.910 -11.554   7.251  1.00  0.00    -0.321 N 
HETATM   25  C   UNL     1      43.036 -12.366   7.293  1.00  0.00     0.048 A 
HETATM   26  H   UNL     1      41.702 -10.788   7.872  1.00  0.00     0.169 HD
HETATM   27  C   UNL     1      44.070 -12.269   8.204  1.00  0.00     0.030 A 
HETATM   28  C   UNL     1      45.143 -13.148   8.057  1.00  0.00     0.002 A 
HETATM   29  C   UNL     1      45.168 -14.081   7.006  1.00  0.00     0.001 A 
HETATM   30  C   UNL     1      44.112 -14.163   6.088  1.00  0.00     0.016 A 
ENDBRANCH   2  19
TORSDOF 2
ENDMDL
MODEL 5
REMARK VINA RESULT:      -9.3      3.034      3.755
REMARK  2 active torsions:
REMARK  status: ('A' for Active; 'I' for Inactive)
REMARK    1  A    between atoms: C_7  and  C_8 
REMARK       I    between atoms: C_8  and  N_9 
REMARK    2  A    between atoms: N_9  and  N_10 
ROOT
HETATM    1  C   UNL     1      42.904 -15.413   2.399  1.00  0.00     0.292 C 
HETATM    2  N   UNL     1      41.652 -15.190   1.845  1.00  0.00    -0.241 N 
HETATM    3  O   UNL     1      43.603 -14.579   2.963  1.00  0.00    -0.264 OA
HETATM    4  H   UNL     1      41.272 -15.964   1.312  1.00  0.00     0.192 HD
ENDROOT
BRANCH   1   5
HETATM    5  C   UNL     1      43.317 -16.820   2.236  1.00  0.00     0.154 A 
HETATM    6  C   UNL     1      43.573 -17.775   3.251  1.00  0.00     0.007 A 
HETATM    7  C   UNL     1      43.893 -18.943   2.596  1.00  0.00     0.069 A 
HETATM    8  C   UNL     1      43.511 -17.709   4.737  1.00  0.00     0.048 C 
HETATM    9  C   UNL     1      44.226 -20.193   3.257  1.00  0.00    -0.001 A 
HETATM   10  N   UNL     1      43.842 -18.650   1.269  1.00  0.00    -0.276 N 
HETATM   11  C   UNL     1      44.441 -20.127   4.656  1.00  0.00    -0.045 A 
HETATM   12  C   UNL     1      44.310 -21.418   2.593  1.00  0.00     0.014 A 
HETATM   13  C   UNL     1      44.764 -21.295   5.357  1.00  0.00     0.008 A 
HETATM   14  C   UNL     1      44.424 -18.783   5.377  1.00  0.00     0.044 C 
HETATM   15  C   UNL     1      44.845 -22.514   4.685  1.00  0.00     0.001 A 
HETATM   16  C   UNL     1      44.618 -22.577   3.309  1.00  0.00     0.001 A 
HETATM   17  N   UNL     1      43.497 -17.370   1.008  1.00  0.00    -0.168 NA
HETATM   18  H   UNL     1      44.036 -19.267   0.488  1.00  0.00     0.189 HD
ENDBRANCH   1   5
BRANCH   2  19
HETATM   19  N   UNL     1      41.129 -13.940   1.750  1.00  0.00    -0.165 NA
HETATM   20  C   UNL     1      40.835 -13.459   0.585  1.00  0.00     0.157 A 
HETATM   21  C   UNL     1      40.380 -11.990   0.436  1.00  0.00     0.277 A 
HETATM   22  C   UNL     1      40.835 -14.012  -0.780  1.00  0.00     0.027 A 
HETATM   23  O   UNL     1      40.210 -11.187   1.326  1.00  0.00    -0.266 OA
HETATM   24  N   UNL     1      40.226 -11.789  -0.915  1.00  0.00    -0.321 N 
HETATM   25  C   UNL     1      40.481 -12.955  -1.625  1.00  0.00     0.048 A 
HETATM   26  H   UNL     1      39.928 -10.906  -1.302  1.00  0.00     0.169 HD
HETATM   27  C   UNL     1      40.378 -13.108  -2.994  1.00  0.00     0.030 A 
HETATM   28  C   UNL     1      40.631 -14.374  -3.521  1.00  0.00     0.002 A 
HETATM   29  C   UNL     1      40.960 -15.451  -2.679  1.00  0.00     0.001 A 
HETATM   30  C   UNL     1      41.055 -15.279  -1.292  1.00  0.00     0.016 A 
ENDBRANCH   2  19
TORSDOF 2
ENDMDL
MODEL 6
REMARK VINA RESULT:      -9.3      2.815      7.854
REMARK  2 active torsions:
REMARK  status: ('A' for Active; 'I' for Inactive)
REMARK    1  A    between atoms: C_7  and  C_8 
REMARK       I    between atoms: C_8  and  N_9 
REMARK    2  A    between atoms: N_9  and  N_10 
ROOT
HETATM    1  C   UNL     1      41.905 -16.780   3.267  1.00  0.00     0.292 C 
HETATM    2  N   UNL     1      43.265 -16.852   3.529  1.00  0.00    -0.241 N 
HETATM    3  O   UNL     1      41.003 -17.092   4.039  1.00  0.00    -0.264 OA
HETATM    4  H   UNL     1      43.867 -16.670   2.734  1.00  0.00     0.192 HD
ENDROOT
BRANCH   1   5
HETATM    5  C   UNL     1      41.647 -16.261   1.911  1.00  0.00     0.154 A 
HETATM    6  C   UNL     1      40.601 -15.402   1.491  1.00  0.00     0.007 A 
HETATM    7  C   UNL     1      40.812 -15.182   0.149  1.00  0.00     0.069 A 
HETATM    8  C   UNL     1      39.475 -14.756   2.219  1.00  0.00     0.048 C 
HETATM    9  C   UNL     1      39.969 -14.348  -0.690  1.00  0.00    -0.001 A 
HETATM   10  N   UNL     1      41.916 -15.906  -0.178  1.00  0.00    -0.276 N 
HETATM   11  C   UNL     1      38.742 -13.922  -0.124  1.00  0.00    -0.045 A 
HETATM   12  C   UNL     1      40.325 -13.941  -1.977  1.00  0.00     0.014 A 
HETATM   13  C   UNL     1      37.882 -13.113  -0.877  1.00  0.00     0.008 A 
HETATM   14  C   UNL     1      38.312 -14.422   1.251  1.00  0.00     0.044 C 
HETATM   15  C   UNL     1      38.246 -12.711  -2.162  1.00  0.00     0.001 A 
HETATM   16  C   UNL     1      39.463 -13.122  -2.710  1.00  0.00     0.001 A 
HETATM   17  N   UNL     1      42.453 -16.576   0.865  1.00  0.00    -0.168 NA
HETATM   18  H   UNL     1      42.355 -15.995  -1.087  1.00  0.00     0.189 HD
ENDBRANCH   1   5
BRANCH   2  19
HETATM   19  N   UNL     1      43.742 -17.432   4.660  1.00  0.00    -0.165 NA
HETATM   20  C   UNL     1      44.040 -18.693   4.653  1.00  0.00     0.157 A 
HETATM   21  C   UNL     1      44.442 -19.410   5.961  1.00  0.00     0.277 A 
HETATM   22  C   UNL     1      44.087 -19.726   3.606  1.00  0.00     0.027 A 
HETATM   23  O   UNL     1      44.564 -18.909   7.057  1.00  0.00    -0.266 OA
HETATM   24  N   UNL     1      44.615 -20.730   5.617  1.00  0.00    -0.321 N 
HETATM   25  C   UNL     1      44.418 -20.920   4.257  1.00  0.00     0.048 A 
HETATM   26  H   UNL     1      44.886 -21.433   6.287  1.00  0.00     0.169 HD
HETATM   27  C   UNL     1      44.553 -22.116   3.579  1.00  0.00     0.030 A 
HETATM   28  C   UNL     1      44.359 -22.100   2.198  1.00  0.00     0.002 A 
HETATM   29  C   UNL     1      44.055 -20.901   1.529  1.00  0.00     0.001 A 
HETATM   30  C   UNL     1      43.925 -19.696   2.232  1.00  0.00     0.016 A 
ENDBRANCH   2  19
TORSDOF 2
ENDMDL
MODEL 7
REMARK VINA RESULT:      -9.1      3.280      7.344
REMARK  2 active torsions:
REMARK  status: ('A' for Active; 'I' for Inactive)
REMARK    1  A    between atoms: C_7  and  C_8 
REMARK       I    between atoms: C_8  and  N_9 
REMARK    2  A    between atoms: N_9  and  N_10 
ROOT
HETATM    1  C   UNL     1      41.270 -15.676   3.861  1.00  0.00     0.292 C 
HETATM    2  N   UNL     1      42.394 -16.420   4.189  1.00  0.00    -0.241 N 
HETATM    3  O   UNL     1      40.516 -15.120   4.654  1.00  0.00    -0.264 OA
HETATM    4  H   UNL     1      42.829 -16.908   3.413  1.00  0.00     0.192 HD
ENDROOT
BRANCH   1   5
HETATM    5  C   UNL     1      41.074 -15.616   2.400  1.00  0.00     0.154 A 
HETATM    6  C   UNL     1      41.509 -14.608   1.505  1.00  0.00     0.007 A 
HETATM    7  C   UNL     1      41.114 -15.023   0.253  1.00  0.00     0.069 A 
HETATM    8  C   UNL     1      42.272 -13.345   1.701  1.00  0.00     0.048 C 
HETATM    9  C   UNL     1      41.361 -14.285  -0.974  1.00  0.00    -0.001 A 
HETATM   10  N   UNL     1      40.464 -16.203   0.440  1.00  0.00    -0.276 N 
HETATM   11  C   UNL     1      41.843 -12.961  -0.826  1.00  0.00    -0.045 A 
HETATM   12  C   UNL     1      41.174 -14.824  -2.249  1.00  0.00     0.014 A 
HETATM   13  C   UNL     1      42.104 -12.193  -1.968  1.00  0.00     0.008 A 
HETATM   14  C   UNL     1      41.980 -12.340   0.560  1.00  0.00     0.044 C 
HETATM   15  C   UNL     1      41.914 -12.741  -3.237  1.00  0.00     0.001 A 
HETATM   16  C   UNL     1      41.453 -14.050  -3.377  1.00  0.00     0.001 A 
HETATM   17  N   UNL     1      40.417 -16.597   1.731  1.00  0.00    -0.168 NA
HETATM   18  H   UNL     1      40.024 -16.788  -0.261  1.00  0.00     0.189 HD
ENDBRANCH   1   5
BRANCH   2  19
HETATM   19  N   UNL     1      42.692 -16.730   5.477  1.00  0.00    -0.165 NA
HETATM   20  C   UNL     1      43.227 -17.877   5.749  1.00  0.00     0.157 A 
HETATM   21  C   UNL     1      43.438 -18.314   7.215  1.00  0.00     0.277 A 
HETATM   22  C   UNL     1      43.727 -18.992   4.928  1.00  0.00     0.027 A 
HETATM   23  O   UNL     1      43.193 -17.669   8.210  1.00  0.00    -0.266 OA
HETATM   24  N   UNL     1      43.946 -19.590   7.148  1.00  0.00    -0.321 N 
HETATM   25  C   UNL     1      44.123 -19.987   5.829  1.00  0.00     0.048 A 
HETATM   26  H   UNL     1      44.184 -20.124   7.970  1.00  0.00     0.169 HD
HETATM   27  C   UNL     1      44.650 -21.193   5.411  1.00  0.00     0.030 A 
HETATM   28  C   UNL     1      44.793 -21.392   4.037  1.00  0.00     0.002 A 
HETATM   29  C   UNL     1      44.426 -20.388   3.124  1.00  0.00     0.001 A 
HETATM   30  C   UNL     1      43.896 -19.169   3.566  1.00  0.00     0.016 A 
ENDBRANCH   2  19
TORSDOF 2
ENDMDL
MODEL 8
REMARK VINA RESULT:      -9.1      2.772      6.880
REMARK  2 active torsions:
REMARK  status: ('A' for Active; 'I' for Inactive)
REMARK    1  A    between atoms: C_7  and  C_8 
REMARK       I    between atoms: C_8  and  N_9 
REMARK    2  A    between atoms: N_9  and  N_10 
ROOT
HETATM    1  C   UNL     1      41.951 -15.045   4.369  1.00  0.00     0.292 C 
HETATM    2  N   UNL     1      43.260 -15.385   4.676  1.00  0.00    -0.241 N 
HETATM    3  O   UNL     1      40.967 -15.257   5.070  1.00  0.00    -0.264 OA
HETATM    4  H   UNL     1      43.929 -15.244   3.927  1.00  0.00     0.192 HD
ENDROOT
BRANCH   1   5
HETATM    5  C   UNL     1      41.866 -14.367   3.061  1.00  0.00     0.154 A 
HETATM    6  C   UNL     1      41.535 -14.935   1.806  1.00  0.00     0.007 A 
HETATM    7  C   UNL     1      41.560 -13.895   0.905  1.00  0.00     0.069 A 
HETATM    8  C   UNL     1      41.171 -16.317   1.390  1.00  0.00     0.048 C 
HETATM    9  C   UNL     1      41.274 -14.027  -0.512  1.00  0.00    -0.001 A 
HETATM   10  N   UNL     1      41.913 -12.792   1.620  1.00  0.00    -0.276 N 
HETATM   11  C   UNL     1      41.181 -15.349  -1.015  1.00  0.00    -0.045 A 
HETATM   12  C   UNL     1      41.066 -12.939  -1.362  1.00  0.00     0.014 A 
HETATM   13  C   UNL     1      40.906 -15.550  -2.373  1.00  0.00     0.008 A 
HETATM   14  C   UNL     1      41.480 -16.540  -0.111  1.00  0.00     0.044 C 
HETATM   15  C   UNL     1      40.699 -14.456  -3.214  1.00  0.00     0.001 A 
HETATM   16  C   UNL     1      40.777 -13.156  -2.711  1.00  0.00     0.001 A 
HETATM   17  N   UNL     1      42.110 -13.038   2.934  1.00  0.00    -0.168 NA
HETATM   18  H   UNL     1      42.046 -11.847   1.280  1.00  0.00     0.189 HD
ENDBRANCH   1   5
BRANCH   2  19
HETATM   19  N   UNL     1      43.563 -16.142   5.762  1.00  0.00    -0.165 NA
HETATM   20  C   UNL     1      43.823 -17.402   5.609  1.00  0.00     0.157 A 
HETATM   21  C   UNL     1      44.023 -18.315   6.839  1.00  0.00     0.277 A 
HETATM   22  C   UNL     1      43.982 -18.277   4.437  1.00  0.00     0.027 A 
HETATM   23  O   UNL     1      44.010 -17.981   8.003  1.00  0.00    -0.266 OA
HETATM   24  N   UNL     1      44.203 -19.579   6.331  1.00  0.00    -0.321 N 
HETATM   25  C   UNL     1      44.187 -19.566   4.943  1.00  0.00     0.048 A 
HETATM   26  H   UNL     1      44.360 -20.383   6.919  1.00  0.00     0.169 HD
HETATM   27  C   UNL     1      44.378 -20.659   4.120  1.00  0.00     0.030 A 
HETATM   28  C   UNL     1      44.373 -20.438   2.743  1.00  0.00     0.002 A 
HETATM   29  C   UNL     1      44.197 -19.143   2.224  1.00  0.00     0.001 A 
HETATM   30  C   UNL     1      44.009 -18.045   3.073  1.00  0.00     0.016 A 
ENDBRANCH   2  19
TORSDOF 2
ENDMDL
MODEL 9
REMARK VINA RESULT:      -9.0      3.402      4.970
REMARK  2 active torsions:
REMARK  status: ('A' for Active; 'I' for Inactive)
REMARK    1  A    between atoms: C_7  and  C_8 
REMARK       I    between atoms: C_8  and  N_9 
REMARK    2  A    between atoms: N_9  and  N_10 
ROOT
HETATM    1  C   UNL     1      42.181 -13.728   5.364  1.00  0.00     0.292 C 
HETATM    2  N   UNL     1      42.471 -13.011   6.515  1.00  0.00    -0.241 N 
HETATM    3  O   UNL     1      41.509 -13.333   4.417  1.00  0.00    -0.264 OA
HETATM    4  H   UNL     1      42.938 -13.538   7.245  1.00  0.00     0.192 HD
ENDROOT
BRANCH   1   5
HETATM    5  C   UNL     1      42.798 -15.068   5.398  1.00  0.00     0.154 A 
HETATM    6  C   UNL     1      42.806 -16.049   4.375  1.00  0.00     0.007 A 
HETATM    7  C   UNL     1      43.533 -17.106   4.875  1.00  0.00     0.069 A 
HETATM    8  C   UNL     1      42.244 -16.073   2.998  1.00  0.00     0.048 C 
HETATM    9  C   UNL     1      43.798 -18.337   4.151  1.00  0.00    -0.001 A 
HETATM   10  N   UNL     1      43.898 -16.743   6.134  1.00  0.00    -0.276 N 
HETATM   11  C   UNL     1      43.074 -18.528   2.948  1.00  0.00    -0.045 A 
HETATM   12  C   UNL     1      44.729 -19.291   4.567  1.00  0.00     0.014 A 
HETATM   13  C   UNL     1      43.283 -19.693   2.199  1.00  0.00     0.008 A 
HETATM   14  C   UNL     1      42.003 -17.528   2.525  1.00  0.00     0.044 C 
HETATM   15  C   UNL     1      44.215 -20.639   2.623  1.00  0.00     0.001 A 
HETATM   16  C   UNL     1      44.936 -20.440   3.801  1.00  0.00     0.001 A 
HETATM   17  N   UNL     1      43.470 -15.513   6.490  1.00  0.00    -0.168 NA
HETATM   18  H   UNL     1      44.431 -17.283   6.807  1.00  0.00     0.189 HD
ENDBRANCH   1   5
BRANCH   2  19
HETATM   19  N   UNL     1      41.894 -11.809   6.769  1.00  0.00    -0.165 NA
HETATM   20  C   UNL     1      42.246 -11.142   7.822  1.00  0.00     0.157 A 
HETATM   21  C   UNL     1      41.503  -9.846   8.213  1.00  0.00     0.277 A 
HETATM   22  C   UNL     1      43.278 -11.333   8.855  1.00  0.00     0.027 A 
HETATM   23  O   UNL     1      40.602  -9.312   7.605  1.00  0.00    -0.266 OA
HETATM   24  N   UNL     1      42.069  -9.442   9.399  1.00  0.00    -0.321 N 
HETATM   25  C   UNL     1      43.100 -10.293   9.774  1.00  0.00     0.048 A 
HETATM   26  H   UNL     1      41.773  -8.610   9.886  1.00  0.00     0.169 HD
HETATM   27  C   UNL     1      43.901 -10.151  10.891  1.00  0.00     0.030 A 
HETATM   28  C   UNL     1      44.921 -11.085  11.075  1.00  0.00     0.002 A 
HETATM   29  C   UNL     1      45.127 -12.117  10.143  1.00  0.00     0.001 A 
HETATM   30  C   UNL     1      44.307 -12.244   9.014  1.00  0.00     0.016 A 
ENDBRANCH   2  19
TORSDOF 2
ENDMDL
MODEL 10
REMARK VINA RESULT:      -9.0      2.026      2.617
REMARK  2 active torsions:
REMARK  status: ('A' for Active; 'I' for Inactive)
REMARK    1  A    between atoms: C_7  and  C_8 
REMARK       I    between atoms: C_8  and  N_9 
REMARK    2  A    between atoms: N_9  and  N_10 
ROOT
HETATM    1  C   UNL     1      43.305 -14.919   3.014  1.00  0.00     0.292 C 
HETATM    2  N   UNL     1      42.192 -14.965   2.188  1.00  0.00    -0.241 N 
HETATM    3  O   UNL     1      44.047 -13.955   3.172  1.00  0.00    -0.264 OA
HETATM    4  H   UNL     1      41.767 -15.880   2.088  1.00  0.00     0.192 HD
ENDROOT
BRANCH   1   5
HETATM    5  C   UNL     1      43.504 -16.201   3.716  1.00  0.00     0.154 A 
HETATM    6  C   UNL     1      43.762 -17.473   3.149  1.00  0.00     0.007 A 
HETATM    7  C   UNL     1      43.902 -18.337   4.212  1.00  0.00     0.069 A 
HETATM    8  C   UNL     1      43.923 -17.936   1.744  1.00  0.00     0.048 C 
HETATM    9  C   UNL     1      44.182 -19.757   4.087  1.00  0.00    -0.001 A 
HETATM   10  N   UNL     1      43.708 -17.585   5.329  1.00  0.00    -0.276 N 
HETATM   11  C   UNL     1      44.084 -20.305   2.784  1.00  0.00    -0.045 A 
HETATM   12  C   UNL     1      44.559 -20.566   5.161  1.00  0.00     0.014 A 
HETATM   13  C   UNL     1      44.342 -21.668   2.591  1.00  0.00     0.008 A 
HETATM   14  C   UNL     1      43.602 -19.446   1.620  1.00  0.00     0.044 C 
HETATM   15  C   UNL     1      44.718 -22.468   3.670  1.00  0.00     0.001 A 
HETATM   16  C   UNL     1      44.828 -21.920   4.949  1.00  0.00     0.001 A 
HETATM   17  N   UNL     1      43.462 -16.283   5.071  1.00  0.00    -0.168 NA
HETATM   18  H   UNL     1      43.721 -17.893   6.295  1.00  0.00     0.189 HD
ENDBRANCH   1   5
BRANCH   2  19
HETATM   19  N   UNL     1      41.895 -13.950   1.337  1.00  0.00    -0.165 NA
HETATM   20  C   UNL     1      41.047 -13.040   1.701  1.00  0.00     0.157 A 
HETATM   21  C   UNL     1      40.579 -11.960   0.700  1.00  0.00     0.277 A 
HETATM   22  C   UNL     1      40.332 -12.752   2.955  1.00  0.00     0.027 A 
HETATM   23  O   UNL     1      40.955 -11.815  -0.441  1.00  0.00    -0.266 OA
HETATM   24  N   UNL     1      39.641 -11.217   1.376  1.00  0.00    -0.321 N 
HETATM   25  C   UNL     1      39.497 -11.664   2.682  1.00  0.00     0.048 A 
HETATM   26  H   UNL     1      39.167 -10.432   0.956  1.00  0.00     0.169 HD
HETATM   27  C   UNL     1      38.668 -11.112   3.639  1.00  0.00     0.030 A 
HETATM   28  C   UNL     1      38.695 -11.674   4.916  1.00  0.00     0.002 A 
HETATM   29  C   UNL     1      39.551 -12.749   5.210  1.00  0.00     0.001 A 
HETATM   30  C   UNL     1      40.389 -13.294   4.227  1.00  0.00     0.016 A 
ENDBRANCH   2  19
TORSDOF 2
ENDMDL
