MODEL 1
REMARK VINA RESULT:      -7.9      0.000      0.000
REMARK  2 active torsions:
REMARK  status: ('A' for Active; 'I' for Inactive)
REMARK    1  A    between atoms: S_2  and  N_3 
REMARK    2  A    between atoms: C_10  and  N_11 
ROOT
HETATM    1  N   UNL     1      41.422 -15.821   4.067  1.00  0.00    -0.311 N 
HETATM    2  C   UNL     1      42.741 -15.563   3.457  1.00  0.00     0.138 C 
HETATM    3  C   UNL     1      43.821 -16.237   4.292  1.00  0.00     0.059 C 
HETATM    4  C   UNL     1      43.578 -17.758   4.460  1.00  0.00     0.073 C 
HETATM    5  O   UNL     1      43.767 -18.354   3.167  1.00  0.00    -0.339 OA
HETATM    6  C   UNL     1      44.002 -19.700   3.122  1.00  0.00     0.078 A 
HETATM    7  C   UNL     1      44.450 -20.452   4.212  1.00  0.00     0.005 A 
HETATM    8  C   UNL     1      44.712 -19.799   5.533  1.00  0.00     0.222 C 
HETATM    9  C   UNL     1      44.642 -18.278   5.449  1.00  0.00     0.076 C 
HETATM   10  C   UNL     1      43.794 -20.301   1.881  1.00  0.00     0.037 A 
HETATM   11  C   UNL     1      44.014 -21.668   1.720  1.00  0.00     0.003 A 
HETATM   12  C   UNL     1      44.456 -22.431   2.796  1.00  0.00     0.001 A 
HETATM   13  C   UNL     1      44.680 -21.828   4.036  1.00  0.00     0.012 A 
HETATM   14  C   UNL     1      42.126 -18.025   4.923  1.00  0.00     0.059 C 
HETATM   15  C   UNL     1      41.086 -17.254   4.103  1.00  0.00     0.138 C 
ENDROOT
BRANCH   8  16
HETATM   16  N   UNL     1      43.795 -20.295   6.597  1.00  0.00    -0.071 N 
HETATM   17  H   UNL     1      43.011 -19.655   6.765  1.00  0.00     0.275 HD
HETATM   18  H   UNL     1      43.380 -21.195   6.322  1.00  0.00     0.275 HD
HETATM   19  H   UNL     1      44.283 -20.446   7.489  1.00  0.00     0.275 HD
ENDBRANCH   8  16
BRANCH   1  20
HETATM   20  S   UNL     1      40.928 -14.842   5.362  1.00  0.00     0.224 S 
HETATM   21  C   UNL     1      39.637 -13.887   4.595  1.00  0.00     0.186 C 
HETATM   22  O   UNL     1      42.013 -13.947   5.697  1.00  0.00    -0.206 OA
HETATM   23  O   UNL     1      40.343 -15.712   6.362  1.00  0.00    -0.206 OA
ENDBRANCH   1  20
TORSDOF 2
ENDMDL
MODEL 2
REMARK VINA RESULT:      -7.5      2.294      2.696
REMARK  2 active torsions:
REMARK  status: ('A' for Active; 'I' for Inactive)
REMARK    1  A    between atoms: S_2  and  N_3 
REMARK    2  A    between atoms: C_10  and  N_11 
ROOT
HETATM    1  N   UNL     1      40.541 -15.639   1.489  1.00  0.00    -0.311 N 
HETATM    2  C   UNL     1      41.935 -15.247   1.200  1.00  0.00     0.138 C 
HETATM    3  C   UNL     1      42.706 -15.135   2.507  1.00  0.00     0.059 C 
HETATM    4  C   UNL     1      42.661 -16.443   3.336  1.00  0.00     0.073 C 
HETATM    5  O   UNL     1      43.421 -17.422   2.609  1.00  0.00    -0.339 OA
HETATM    6  C   UNL     1      43.865 -18.515   3.299  1.00  0.00     0.078 A 
HETATM    7  C   UNL     1      43.976 -18.568   4.692  1.00  0.00     0.005 A 
HETATM    8  C   UNL     1      43.608 -17.385   5.531  1.00  0.00     0.222 C 
HETATM    9  C   UNL     1      43.336 -16.143   4.691  1.00  0.00     0.076 C 
HETATM   10  C   UNL     1      44.244 -19.603   2.515  1.00  0.00     0.037 A 
HETATM   11  C   UNL     1      44.722 -20.767   3.114  1.00  0.00     0.003 A 
HETATM   12  C   UNL     1      44.835 -20.837   4.500  1.00  0.00     0.001 A 
HETATM   13  C   UNL     1      44.470 -19.742   5.287  1.00  0.00     0.012 A 
HETATM   14  C   UNL     1      41.205 -16.947   3.473  1.00  0.00     0.059 C 
HETATM   15  C   UNL     1      40.448 -16.956   2.140  1.00  0.00     0.138 C 
ENDROOT
BRANCH   8  16
HETATM   16  N   UNL     1      42.445 -17.667   6.419  1.00  0.00    -0.071 N 
HETATM   17  H   UNL     1      42.438 -18.636   6.756  1.00  0.00     0.275 HD
HETATM   18  H   UNL     1      42.480 -17.070   7.256  1.00  0.00     0.275 HD
HETATM   19  H   UNL     1      41.548 -17.484   5.952  1.00  0.00     0.275 HD
ENDBRANCH   8  16
BRANCH   1  20
HETATM   20  S   UNL     1      39.443 -14.430   1.948  1.00  0.00     0.224 S 
HETATM   21  C   UNL     1      40.050 -13.043   1.013  1.00  0.00     0.186 C 
HETATM   22  O   UNL     1      39.637 -14.147   3.353  1.00  0.00    -0.206 OA
HETATM   23  O   UNL     1      38.142 -14.813   1.437  1.00  0.00    -0.206 OA
ENDBRANCH   1  20
TORSDOF 2
ENDMDL
MODEL 3
REMARK VINA RESULT:      -7.3      2.193      3.362
REMARK  2 active torsions:
REMARK  status: ('A' for Active; 'I' for Inactive)
REMARK    1  A    between atoms: S_2  and  N_3 
REMARK    2  A    between atoms: C_10  and  N_11 
ROOT
HETATM    1  N   UNL     1      42.014 -14.289   5.571  1.00  0.00    -0.311 N 
HETATM    2  C   UNL     1      41.057 -15.360   5.912  1.00  0.00     0.138 C 
HETATM    3  C   UNL     1      40.624 -16.072   4.638  1.00  0.00     0.059 C 
HETATM    4  C   UNL     1      41.824 -16.637   3.838  1.00  0.00     0.073 C 
HETATM    5  O   UNL     1      42.378 -17.708   4.620  1.00  0.00    -0.339 OA
HETATM    6  C   UNL     1      43.172 -18.615   3.975  1.00  0.00     0.078 A 
HETATM    7  C   UNL     1      43.173 -18.807   2.590  1.00  0.00     0.005 A 
HETATM    8  C   UNL     1      42.267 -18.006   1.709  1.00  0.00     0.222 C 
HETATM    9  C   UNL     1      41.263 -17.182   2.508  1.00  0.00     0.076 C 
HETATM   10  C   UNL     1      43.988 -19.387   4.800  1.00  0.00     0.037 A 
HETATM   11  C   UNL     1      44.831 -20.349   4.248  1.00  0.00     0.003 A 
HETATM   12  C   UNL     1      44.847 -20.550   2.871  1.00  0.00     0.001 A 
HETATM   13  C   UNL     1      44.019 -19.789   2.044  1.00  0.00     0.012 A 
HETATM   14  C   UNL     1      42.908 -15.550   3.648  1.00  0.00     0.059 C 
HETATM   15  C   UNL     1      43.243 -14.807   4.946  1.00  0.00     0.138 C 
ENDROOT
BRANCH   8  16
HETATM   16  N   UNL     1      43.025 -17.125   0.776  1.00  0.00    -0.071 N 
HETATM   17  H   UNL     1      43.018 -16.143   1.077  1.00  0.00     0.275 HD
HETATM   18  H   UNL     1      44.012 -17.409   0.737  1.00  0.00     0.275 HD
HETATM   19  H   UNL     1      42.656 -17.169  -0.182  1.00  0.00     0.275 HD
ENDBRANCH   8  16
BRANCH   1  20
HETATM   20  S   UNL     1      41.400 -12.801   5.036  1.00  0.00     0.224 S 
HETATM   21  C   UNL     1      41.722 -11.770   6.450  1.00  0.00     0.186 C 
HETATM   22  O   UNL     1      39.967 -12.926   4.886  1.00  0.00    -0.206 OA
HETATM   23  O   UNL     1      42.230 -12.363   3.932  1.00  0.00    -0.206 OA
ENDBRANCH   1  20
TORSDOF 2
ENDMDL
MODEL 4
REMARK VINA RESULT:      -6.9      2.259      3.020
REMARK  2 active torsions:
REMARK  status: ('A' for Active; 'I' for Inactive)
REMARK    1  A    between atoms: S_2  and  N_3 
REMARK    2  A    between atoms: C_10  and  N_11 
ROOT
HETATM    1  N   UNL     1      40.710 -13.397   4.616  1.00  0.00    -0.311 N 
HETATM    2  C   UNL     1      42.046 -13.142   4.043  1.00  0.00     0.138 C 
HETATM    3  C   UNL     1      43.111 -13.551   5.050  1.00  0.00     0.059 C 
HETATM    4  C   UNL     1      42.972 -15.030   5.491  1.00  0.00     0.073 C 
HETATM    5  O   UNL     1      43.298 -15.837   4.348  1.00  0.00    -0.339 OA
HETATM    6  C   UNL     1      43.637 -17.142   4.573  1.00  0.00     0.078 A 
HETATM    7  C   UNL     1      44.061 -17.637   5.810  1.00  0.00     0.005 A 
HETATM    8  C   UNL     1      44.177 -16.730   6.995  1.00  0.00     0.222 C 
HETATM    9  C   UNL     1      43.998 -15.263   6.619  1.00  0.00     0.076 C 
HETATM   10  C   UNL     1      43.566 -17.978   3.461  1.00  0.00     0.037 A 
HETATM   11  C   UNL     1      43.899 -19.326   3.575  1.00  0.00     0.003 A 
HETATM   12  C   UNL     1      44.319 -19.835   4.800  1.00  0.00     0.001 A 
HETATM   13  C   UNL     1      44.407 -18.996   5.913  1.00  0.00     0.012 A 
HETATM   14  C   UNL     1      41.515 -15.334   5.913  1.00  0.00     0.059 C 
HETATM   15  C   UNL     1      40.482 -14.823   4.904  1.00  0.00     0.138 C 
ENDROOT
BRANCH   8  16
HETATM   16  N   UNL     1      43.226 -17.099   8.081  1.00  0.00    -0.071 N 
HETATM   17  H   UNL     1      42.252 -16.898   7.830  1.00  0.00     0.275 HD
HETATM   18  H   UNL     1      43.274 -18.108   8.271  1.00  0.00     0.275 HD
HETATM   19  H   UNL     1      43.437 -16.613   8.962  1.00  0.00     0.275 HD
ENDBRANCH   8  16
BRANCH   1  20
HETATM   20  S   UNL     1      40.051 -12.242   5.670  1.00  0.00     0.224 S 
HETATM   21  C   UNL     1      39.802 -10.871   4.563  1.00  0.00     0.186 C 
HETATM   22  O   UNL     1      41.067 -11.869   6.629  1.00  0.00    -0.206 OA
HETATM   23  O   UNL     1      38.762 -12.741   6.104  1.00  0.00    -0.206 OA
ENDBRANCH   1  20
TORSDOF 2
ENDMDL
MODEL 5
REMARK VINA RESULT:      -6.8      2.524      3.974
REMARK  2 active torsions:
REMARK  status: ('A' for Active; 'I' for Inactive)
REMARK    1  A    between atoms: S_2  and  N_3 
REMARK    2  A    between atoms: C_10  and  N_11 
ROOT
HETATM    1  N   UNL     1      40.893 -13.468   3.660  1.00  0.00    -0.311 N 
HETATM    2  C   UNL     1      39.860 -14.489   3.919  1.00  0.00     0.138 C 
HETATM    3  C   UNL     1      39.930 -15.559   2.839  1.00  0.00     0.059 C 
HETATM    4  C   UNL     1      41.333 -16.208   2.737  1.00  0.00     0.073 C 
HETATM    5  O   UNL     1      41.529 -16.967   3.941  1.00  0.00    -0.339 OA
HETATM    6  C   UNL     1      42.492 -17.937   3.926  1.00  0.00     0.078 A 
HETATM    7  C   UNL     1      43.015 -18.500   2.757  1.00  0.00     0.005 A 
HETATM    8  C   UNL     1      42.526 -18.060   1.414  1.00  0.00     0.222 C 
HETATM    9  C   UNL     1      41.309 -17.146   1.513  1.00  0.00     0.076 C 
HETATM   10  C   UNL     1      42.920 -18.374   5.178  1.00  0.00     0.037 A 
HETATM   11  C   UNL     1      43.892 -19.367   5.279  1.00  0.00     0.003 A 
HETATM   12  C   UNL     1      44.425 -19.935   4.126  1.00  0.00     0.001 A 
HETATM   13  C   UNL     1      43.987 -19.510   2.870  1.00  0.00     0.012 A 
HETATM   14  C   UNL     1      42.427 -15.118   2.654  1.00  0.00     0.059 C 
HETATM   15  C   UNL     1      42.258 -14.019   3.710  1.00  0.00     0.138 C 
ENDROOT
BRANCH   8  16
HETATM   16  N   UNL     1      43.596 -17.400   0.614  1.00  0.00    -0.071 N 
HETATM   17  H   UNL     1      43.458 -17.520  -0.395  1.00  0.00     0.275 HD
HETATM   18  H   UNL     1      43.601 -16.387   0.788  1.00  0.00     0.275 HD
HETATM   19  H   UNL     1      44.531 -17.755   0.854  1.00  0.00     0.275 HD
ENDBRANCH   8  16
BRANCH   1  20
HETATM   20  S   UNL     1      40.555 -12.247   2.531  1.00  0.00     0.224 S 
HETATM   21  C   UNL     1      38.802 -12.044   2.762  1.00  0.00     0.186 C 
HETATM   22  O   UNL     1      40.777 -12.778   1.205  1.00  0.00    -0.206 OA
HETATM   23  O   UNL     1      41.234 -11.047   2.978  1.00  0.00    -0.206 OA
ENDBRANCH   1  20
TORSDOF 2
ENDMDL
MODEL 6
REMARK VINA RESULT:      -6.7      3.036      4.256
REMARK  2 active torsions:
REMARK  status: ('A' for Active; 'I' for Inactive)
REMARK    1  A    between atoms: S_2  and  N_3 
REMARK    2  A    between atoms: C_10  and  N_11 
ROOT
HETATM    1  N   UNL     1      40.900 -13.982   2.244  1.00  0.00    -0.311 N 
HETATM    2  C   UNL     1      39.843 -14.954   2.586  1.00  0.00     0.138 C 
HETATM    3  C   UNL     1      40.225 -16.323   2.042  1.00  0.00     0.059 C 
HETATM    4  C   UNL     1      41.604 -16.803   2.559  1.00  0.00     0.073 C 
HETATM    5  O   UNL     1      41.455 -17.057   3.966  1.00  0.00    -0.339 OA
HETATM    6  C   UNL     1      42.390 -17.854   4.565  1.00  0.00     0.078 A 
HETATM    7  C   UNL     1      43.228 -18.733   3.871  1.00  0.00     0.005 A 
HETATM    8  C   UNL     1      43.137 -18.857   2.383  1.00  0.00     0.222 C 
HETATM    9  C   UNL     1      41.936 -18.112   1.813  1.00  0.00     0.076 C 
HETATM   10  C   UNL     1      42.448 -17.765   5.955  1.00  0.00     0.037 A 
HETATM   11  C   UNL     1      43.359 -18.542   6.669  1.00  0.00     0.003 A 
HETATM   12  C   UNL     1      44.202 -19.419   5.993  1.00  0.00     0.001 A 
HETATM   13  C   UNL     1      44.136 -19.520   4.602  1.00  0.00     0.012 A 
HETATM   14  C   UNL     1      42.669 -15.697   2.365  1.00  0.00     0.059 C 
HETATM   15  C   UNL     1      42.198 -14.322   2.850  1.00  0.00     0.138 C 
ENDROOT
BRANCH   8  16
HETATM   16  N   UNL     1      44.386 -18.409   1.704  1.00  0.00    -0.071 N 
HETATM   17  H   UNL     1      45.210 -18.496   2.309  1.00  0.00     0.275 HD
HETATM   18  H   UNL     1      44.572 -18.989   0.876  1.00  0.00     0.275 HD
HETATM   19  H   UNL     1      44.324 -17.434   1.385  1.00  0.00     0.275 HD
ENDBRANCH   8  16
BRANCH   1  20
HETATM   20  S   UNL     1      40.887 -13.289   0.696  1.00  0.00     0.224 S 
HETATM   21  C   UNL     1      41.726 -11.751   1.002  1.00  0.00     0.186 C 
HETATM   22  O   UNL     1      39.517 -12.992   0.341  1.00  0.00    -0.206 OA
HETATM   23  O   UNL     1      41.715 -14.119  -0.156  1.00  0.00    -0.206 OA
ENDBRANCH   1  20
TORSDOF 2
ENDMDL
MODEL 7
REMARK VINA RESULT:      -6.3      2.995      5.723
REMARK  2 active torsions:
REMARK  status: ('A' for Active; 'I' for Inactive)
REMARK    1  A    between atoms: S_2  and  N_3 
REMARK    2  A    between atoms: C_10  and  N_11 
ROOT
HETATM    1  N   UNL     1      43.219 -18.185   5.237  1.00  0.00    -0.311 N 
HETATM    2  C   UNL     1      41.752 -18.283   5.116  1.00  0.00     0.138 C 
HETATM    3  C   UNL     1      41.157 -16.883   5.076  1.00  0.00     0.059 C 
HETATM    4  C   UNL     1      41.749 -16.019   3.935  1.00  0.00     0.073 C 
HETATM    5  O   UNL     1      41.286 -16.589   2.699  1.00  0.00    -0.339 OA
HETATM    6  C   UNL     1      41.331 -15.799   1.585  1.00  0.00     0.078 A 
HETATM    7  C   UNL     1      41.418 -14.404   1.618  1.00  0.00     0.005 A 
HETATM    8  C   UNL     1      41.461 -13.674   2.924  1.00  0.00     0.222 C 
HETATM    9  C   UNL     1      41.186 -14.593   4.108  1.00  0.00     0.076 C 
HETATM   10  C   UNL     1      41.253 -16.477   0.369  1.00  0.00     0.037 A 
HETATM   11  C   UNL     1      41.280 -15.769  -0.831  1.00  0.00     0.003 A 
HETATM   12  C   UNL     1      41.371 -14.380  -0.815  1.00  0.00     0.001 A 
HETATM   13  C   UNL     1      41.433 -13.697   0.402  1.00  0.00     0.012 A 
HETATM   14  C   UNL     1      43.294 -16.076   3.959  1.00  0.00     0.059 C 
HETATM   15  C   UNL     1      43.837 -17.504   4.087  1.00  0.00     0.138 C 
ENDROOT
BRANCH   8  16
HETATM   16  N   UNL     1      42.751 -12.954   3.123  1.00  0.00    -0.071 N 
HETATM   17  H   UNL     1      43.068 -12.480   2.270  1.00  0.00     0.275 HD
HETATM   18  H   UNL     1      42.647 -12.224   3.839  1.00  0.00     0.275 HD
HETATM   19  H   UNL     1      43.500 -13.584   3.437  1.00  0.00     0.275 HD
ENDBRANCH   8  16
BRANCH   1  20
HETATM   20  S   UNL     1      43.886 -17.939   6.777  1.00  0.00     0.224 S 
HETATM   21  C   UNL     1      43.744 -19.569   7.476  1.00  0.00     0.186 C 
HETATM   22  O   UNL     1      43.013 -17.054   7.515  1.00  0.00    -0.206 OA
HETATM   23  O   UNL     1      45.288 -17.621   6.594  1.00  0.00    -0.206 OA
ENDBRANCH   1  20
TORSDOF 2
ENDMDL
MODEL 8
REMARK VINA RESULT:      -6.2      3.171      5.740
REMARK  2 active torsions:
REMARK  status: ('A' for Active; 'I' for Inactive)
REMARK    1  A    between atoms: S_2  and  N_3 
REMARK    2  A    between atoms: C_10  and  N_11 
ROOT
HETATM    1  N   UNL     1      42.659 -17.797   6.251  1.00  0.00    -0.311 N 
HETATM    2  C   UNL     1      42.865 -16.344   6.405  1.00  0.00     0.138 C 
HETATM    3  C   UNL     1      43.545 -15.798   5.158  1.00  0.00     0.059 C 
HETATM    4  C   UNL     1      42.750 -16.109   3.865  1.00  0.00     0.073 C 
HETATM    5  O   UNL     1      41.541 -15.335   3.924  1.00  0.00    -0.339 OA
HETATM    6  C   UNL     1      40.870 -15.122   2.753  1.00  0.00     0.078 A 
HETATM    7  C   UNL     1      41.448 -15.254   1.486  1.00  0.00     0.005 A 
HETATM    8  C   UNL     1      42.886 -15.643   1.341  1.00  0.00     0.222 C 
HETATM    9  C   UNL     1      43.620 -15.648   2.677  1.00  0.00     0.076 C 
HETATM   10  C   UNL     1      39.542 -14.722   2.888  1.00  0.00     0.037 A 
HETATM   11  C   UNL     1      38.768 -14.467   1.758  1.00  0.00     0.003 A 
HETATM   12  C   UNL     1      39.327 -14.598   0.491  1.00  0.00     0.001 A 
HETATM   13  C   UNL     1      40.662 -14.983   0.352  1.00  0.00     0.012 A 
HETATM   14  C   UNL     1      42.376 -17.609   3.807  1.00  0.00     0.059 C 
HETATM   15  C   UNL     1      41.776 -18.126   5.119  1.00  0.00     0.138 C 
ENDROOT
BRANCH   8  16
HETATM   16  N   UNL     1      43.046 -16.961   0.665  1.00  0.00    -0.071 N 
HETATM   17  H   UNL     1      42.544 -17.712   1.152  1.00  0.00     0.275 HD
HETATM   18  H   UNL     1      42.660 -16.925  -0.287  1.00  0.00     0.275 HD
HETATM   19  H   UNL     1      44.033 -17.237   0.583  1.00  0.00     0.275 HD
ENDBRANCH   8  16
BRANCH   1  20
HETATM   20  S   UNL     1      43.956 -18.836   6.593  1.00  0.00     0.224 S 
HETATM   21  C   UNL     1      44.175 -18.547   8.335  1.00  0.00     0.186 C 
HETATM   22  O   UNL     1      45.128 -18.344   5.903  1.00  0.00    -0.206 OA
HETATM   23  O   UNL     1      43.487 -20.192   6.393  1.00  0.00    -0.206 OA
ENDBRANCH   1  20
TORSDOF 2
ENDMDL
MODEL 9
REMARK VINA RESULT:      -6.2      3.739      7.358
REMARK  2 active torsions:
REMARK  status: ('A' for Active; 'I' for Inactive)
REMARK    1  A    between atoms: S_2  and  N_3 
REMARK    2  A    between atoms: C_10  and  N_11 
ROOT
HETATM    1  N   UNL     1      42.012 -18.055   2.516  1.00  0.00    -0.311 N 
HETATM    2  C   UNL     1      41.828 -17.010   3.542  1.00  0.00     0.138 C 
HETATM    3  C   UNL     1      42.295 -15.672   2.986  1.00  0.00     0.059 C 
HETATM    4  C   UNL     1      41.567 -15.290   1.672  1.00  0.00     0.073 C 
HETATM    5  O   UNL     1      40.198 -15.023   2.018  1.00  0.00    -0.339 OA
HETATM    6  C   UNL     1      39.455 -14.293   1.133  1.00  0.00     0.078 A 
HETATM    7  C   UNL     1      40.004 -13.477   0.138  1.00  0.00     0.005 A 
HETATM    8  C   UNL     1      41.487 -13.350  -0.011  1.00  0.00     0.222 C 
HETATM    9  C   UNL     1      42.242 -14.010   1.138  1.00  0.00     0.076 C 
HETATM   10  C   UNL     1      38.074 -14.382   1.296  1.00  0.00     0.037 A 
HETATM   11  C   UNL     1      37.222 -13.671   0.455  1.00  0.00     0.003 A 
HETATM   12  C   UNL     1      37.752 -12.857  -0.543  1.00  0.00     0.001 A 
HETATM   13  C   UNL     1      39.136 -12.754  -0.699  1.00  0.00     0.012 A 
HETATM   14  C   UNL     1      41.605 -16.469   0.671  1.00  0.00     0.059 C 
HETATM   15  C   UNL     1      41.210 -17.806   1.306  1.00  0.00     0.138 C 
ENDROOT
BRANCH   8  16
HETATM   16  N   UNL     1      41.969 -13.887  -1.315  1.00  0.00    -0.071 N 
HETATM   17  H   UNL     1      42.993 -13.927  -1.365  1.00  0.00     0.275 HD
HETATM   18  H   UNL     1      41.634 -14.849  -1.452  1.00  0.00     0.275 HD
HETATM   19  H   UNL     1      41.631 -13.331  -2.111  1.00  0.00     0.275 HD
ENDBRANCH   8  16
BRANCH   1  20
HETATM   20  S   UNL     1      43.549 -18.749   2.339  1.00  0.00     0.224 S 
HETATM   21  C   UNL     1      44.100 -18.798   4.030  1.00  0.00     0.186 C 
HETATM   22  O   UNL     1      44.389 -17.818   1.618  1.00  0.00    -0.206 OA
HETATM   23  O   UNL     1      43.359 -20.104   1.863  1.00  0.00    -0.206 OA
ENDBRANCH   1  20
TORSDOF 2
ENDMDL
MODEL 10
REMARK VINA RESULT:      -6.1      8.315      9.493
REMARK  2 active torsions:
REMARK  status: ('A' for Active; 'I' for Inactive)
REMARK    1  A    between atoms: S_2  and  N_3 
REMARK    2  A    between atoms: C_10  and  N_11 
ROOT
HETATM    1  N   UNL     1      40.595 -10.131   5.628  1.00  0.00    -0.311 N 
HETATM    2  C   UNL     1      41.417  -8.979   6.048  1.00  0.00     0.138 C 
HETATM    3  C   UNL     1      41.122  -8.657   7.506  1.00  0.00     0.059 C 
HETATM    4  C   UNL     1      41.354  -9.871   8.440  1.00  0.00     0.073 C 
HETATM    5  O   UNL     1      42.770 -10.118   8.455  1.00  0.00    -0.339 OA
HETATM    6  C   UNL     1      43.269 -10.859   9.490  1.00  0.00     0.078 A 
HETATM    7  C   UNL     1      42.601 -11.058  10.702  1.00  0.00     0.005 A 
HETATM    8  C   UNL     1      41.259 -10.442  10.943  1.00  0.00     0.222 C 
HETATM    9  C   UNL     1      40.869  -9.459   9.845  1.00  0.00     0.076 C 
HETATM   10  C   UNL     1      44.536 -11.401   9.280  1.00  0.00     0.037 A 
HETATM   11  C   UNL     1      45.144 -12.166  10.273  1.00  0.00     0.003 A 
HETATM   12  C   UNL     1      44.491 -12.376  11.484  1.00  0.00     0.001 A 
HETATM   13  C   UNL     1      43.229 -11.821  11.703  1.00  0.00     0.012 A 
HETATM   14  C   UNL     1      40.638 -11.125   7.885  1.00  0.00     0.059 C 
HETATM   15  C   UNL     1      40.900 -11.352   6.393  1.00  0.00     0.138 C 
ENDROOT
BRANCH   8  16
HETATM   16  N   UNL     1      40.192 -11.468  11.114  1.00  0.00    -0.071 N 
HETATM   17  H   UNL     1      39.411 -11.126  11.684  1.00  0.00     0.275 HD
HETATM   18  H   UNL     1      39.794 -11.726  10.202  1.00  0.00     0.275 HD
HETATM   19  H   UNL     1      40.550 -12.330  11.544  1.00  0.00     0.275 HD
ENDBRANCH   8  16
BRANCH   1  20
HETATM   20  S   UNL     1      38.988  -9.848   5.163  1.00  0.00     0.224 S 
HETATM   21  C   UNL     1      39.222  -8.822   3.729  1.00  0.00     0.186 C 
HETATM   22  O   UNL     1      38.351  -9.052   6.189  1.00  0.00    -0.206 OA
HETATM   23  O   UNL     1      38.428 -11.119   4.750  1.00  0.00    -0.206 OA
ENDBRANCH   1  20
TORSDOF 2
ENDMDL
