MODEL 1
REMARK VINA RESULT:      -9.6      0.000      0.000
REMARK  5 active torsions:
REMARK  status: ('A' for Active; 'I' for Inactive)
REMARK    1  A    between atoms: C_5  and  C_6 
REMARK    2  A    between atoms: C_6  and  N_7 
REMARK       I    between atoms: N_7  and  C_8 
REMARK       I    between atoms: C_8  and  N_9 
REMARK    3  A    between atoms: N_9  and  C_10 
REMARK    4  A    between atoms: C_10  and  C_11 
REMARK    5  A    between atoms: N_14  and  C_15 
ROOT
HETATM    1  N   UNL     1      44.087 -14.034   7.718  1.00  0.00    -0.339 N 
HETATM    2  C   UNL     1      43.506 -14.104   6.484  1.00  0.00     0.316 C 
HETATM    3  N   UNL     1      42.647 -15.160   6.375  1.00  0.00    -0.339 N 
HETATM    4  O   UNL     1      43.748 -13.324   5.573  1.00  0.00    -0.247 OA
HETATM    5  H   UNL     1      43.874 -14.735   8.409  1.00  0.00     0.164 HD
HETATM    6  H   UNL     1      42.296 -15.585   7.218  1.00  0.00     0.164 HD
ENDROOT
BRANCH   3   7
HETATM    7  C   UNL     1      41.898 -15.389   5.161  1.00  0.00     0.165 C 
BRANCH   7   8
HETATM    8  C   UNL     1      42.637 -16.318   4.243  1.00  0.00    -0.016 A 
HETATM    9  C   UNL     1      42.829 -17.681   4.449  1.00  0.00     0.021 A 
HETATM   10  C   UNL     1      42.455 -18.474   5.662  1.00  0.00     0.069 C 
HETATM   11  N   UNL     1      43.496 -18.219   3.349  1.00  0.00    -0.319 N 
HETATM   12  C   UNL     1      43.778 -17.176   2.471  1.00  0.00     0.014 A 
HETATM   13  C   UNL     1      44.413 -17.339   1.132  1.00  0.00     0.068 C 
HETATM   14  C   UNL     1      43.252 -16.015   3.003  1.00  0.00     0.035 A 
BRANCH  11  15
HETATM   15  C   UNL     1      43.805 -19.596   3.143  1.00  0.00     0.039 A 
HETATM   16  C   UNL     1      43.334 -20.255   2.000  1.00  0.00     0.030 A 
HETATM   17  C   UNL     1      43.645 -21.600   1.790  1.00  0.00     0.002 A 
HETATM   18  C   UNL     1      44.422 -22.291   2.718  1.00  0.00     0.000 A 
HETATM   19  C   UNL     1      44.893 -21.639   3.856  1.00  0.00     0.002 A 
HETATM   20  C   UNL     1      44.588 -20.291   4.070  1.00  0.00     0.030 A 
ENDBRANCH  11  15
ENDBRANCH   7   8
ENDBRANCH   3   7
BRANCH   1  21
HETATM   21  C   UNL     1      45.128 -13.076   8.017  1.00  0.00     0.162 C 
BRANCH  21  22
HETATM   22  C   UNL     1      44.722 -12.073   9.067  1.00  0.00    -0.040 A 
HETATM   23  C   UNL     1      43.542 -11.331   8.910  1.00  0.00     0.009 A 
HETATM   24  C   UNL     1      43.106 -10.462   9.915  1.00  0.00     0.007 A 
HETATM   25  C   UNL     1      43.838 -10.320  11.097  1.00  0.00    -0.062 A 
HETATM   26  C   UNL     1      43.361  -9.420  12.198  1.00  0.00     0.048 C 
HETATM   27  C   UNL     1      45.013 -11.063  11.261  1.00  0.00     0.007 A 
HETATM   28  C   UNL     1      45.446 -11.935  10.260  1.00  0.00     0.009 A 
ENDBRANCH  21  22
ENDBRANCH   1  21
TORSDOF 5
ENDMDL
MODEL 2
REMARK VINA RESULT:      -9.4      1.588     10.410
REMARK  5 active torsions:
REMARK  status: ('A' for Active; 'I' for Inactive)
REMARK    1  A    between atoms: C_5  and  C_6 
REMARK    2  A    between atoms: C_6  and  N_7 
REMARK       I    between atoms: N_7  and  C_8 
REMARK       I    between atoms: C_8  and  N_9 
REMARK    3  A    between atoms: N_9  and  C_10 
REMARK    4  A    between atoms: C_10  and  C_11 
REMARK    5  A    between atoms: N_14  and  C_15 
ROOT
HETATM    1  N   UNL     1      43.371 -15.503   6.150  1.00  0.00    -0.339 N 
HETATM    2  C   UNL     1      43.972 -14.302   6.396  1.00  0.00     0.316 C 
HETATM    3  N   UNL     1      44.310 -14.152   7.711  1.00  0.00    -0.339 N 
HETATM    4  O   UNL     1      44.165 -13.450   5.540  1.00  0.00    -0.247 OA
HETATM    5  H   UNL     1      43.205 -16.143   6.910  1.00  0.00     0.164 HD
HETATM    6  H   UNL     1      44.372 -14.974   8.290  1.00  0.00     0.164 HD
ENDROOT
BRANCH   3   7
HETATM    7  C   UNL     1      44.994 -12.968   8.174  1.00  0.00     0.165 C 
BRANCH   7   8
HETATM    8  C   UNL     1      44.066 -12.082   8.954  1.00  0.00    -0.016 A 
HETATM    9  C   UNL     1      44.005 -11.994  10.342  1.00  0.00     0.021 A 
HETATM   10  C   UNL     1      44.748 -12.830  11.335  1.00  0.00     0.069 C 
HETATM   11  N   UNL     1      43.076 -11.016  10.695  1.00  0.00    -0.319 N 
HETATM   12  C   UNL     1      42.505 -10.527   9.523  1.00  0.00     0.014 A 
HETATM   13  C   UNL     1      41.520  -9.410   9.456  1.00  0.00     0.068 C 
HETATM   14  C   UNL     1      43.108 -11.166   8.456  1.00  0.00     0.035 A 
BRANCH  11  15
HETATM   15  C   UNL     1      42.784 -10.570  12.018  1.00  0.00     0.039 A 
HETATM   16  C   UNL     1      41.655 -11.058  12.688  1.00  0.00     0.030 A 
HETATM   17  C   UNL     1      41.374 -10.630  13.987  1.00  0.00     0.002 A 
HETATM   18  C   UNL     1      42.214  -9.717  14.620  1.00  0.00     0.000 A 
HETATM   19  C   UNL     1      43.340  -9.229  13.957  1.00  0.00     0.002 A 
HETATM   20  C   UNL     1      43.628  -9.655  12.658  1.00  0.00     0.030 A 
ENDBRANCH  11  15
ENDBRANCH   7   8
ENDBRANCH   3   7
BRANCH   1  21
HETATM   21  C   UNL     1      42.811 -15.824   4.856  1.00  0.00     0.162 C 
BRANCH  21  22
HETATM   22  C   UNL     1      43.231 -17.182   4.353  1.00  0.00    -0.040 A 
HETATM   23  C   UNL     1      42.936 -17.567   3.037  1.00  0.00     0.009 A 
HETATM   24  C   UNL     1      43.394 -18.786   2.529  1.00  0.00     0.007 A 
HETATM   25  C   UNL     1      44.160 -19.643   3.325  1.00  0.00    -0.062 A 
HETATM   26  C   UNL     1      44.689 -20.936   2.780  1.00  0.00     0.048 C 
HETATM   27  C   UNL     1      44.462 -19.262   4.636  1.00  0.00     0.007 A 
HETATM   28  C   UNL     1      44.009 -18.041   5.143  1.00  0.00     0.009 A 
ENDBRANCH  21  22
ENDBRANCH   1  21
TORSDOF 5
ENDMDL
MODEL 3
REMARK VINA RESULT:      -9.2      2.368      4.034
REMARK  5 active torsions:
REMARK  status: ('A' for Active; 'I' for Inactive)
REMARK    1  A    between atoms: C_5  and  C_6 
REMARK    2  A    between atoms: C_6  and  N_7 
REMARK       I    between atoms: N_7  and  C_8 
REMARK       I    between atoms: C_8  and  N_9 
REMARK    3  A    between atoms: N_9  and  C_10 
REMARK    4  A    between atoms: C_10  and  C_11 
REMARK    5  A    between atoms: N_14  and  C_15 
ROOT
HETATM    1  N   UNL     1      43.778 -12.456  10.229  1.00  0.00    -0.339 N 
HETATM    2  C   UNL     1      44.671 -12.785   9.250  1.00  0.00     0.316 C 
HETATM    3  N   UNL     1      44.064 -13.346   8.163  1.00  0.00    -0.339 N 
HETATM    4  O   UNL     1      45.879 -12.618   9.347  1.00  0.00    -0.247 OA
HETATM    5  H   UNL     1      42.800 -12.660  10.101  1.00  0.00     0.164 HD
HETATM    6  H   UNL     1      43.075 -13.207   8.038  1.00  0.00     0.164 HD
ENDROOT
BRANCH   3   7
HETATM    7  C   UNL     1      44.828 -13.729   6.999  1.00  0.00     0.165 C 
BRANCH   7   8
HETATM    8  C   UNL     1      44.196 -14.899   6.303  1.00  0.00    -0.016 A 
HETATM    9  C   UNL     1      43.620 -14.876   5.036  1.00  0.00     0.021 A 
HETATM   10  C   UNL     1      43.402 -13.680   4.163  1.00  0.00     0.069 C 
HETATM   11  N   UNL     1      43.206 -16.164   4.701  1.00  0.00    -0.319 N 
HETATM   12  C   UNL     1      43.469 -16.993   5.788  1.00  0.00     0.014 A 
HETATM   13  C   UNL     1      43.248 -18.467   5.808  1.00  0.00     0.068 C 
HETATM   14  C   UNL     1      44.079 -16.233   6.767  1.00  0.00     0.035 A 
BRANCH  11  15
HETATM   15  C   UNL     1      42.643 -16.570   3.454  1.00  0.00     0.039 A 
HETATM   16  C   UNL     1      41.252 -16.590   3.288  1.00  0.00     0.030 A 
HETATM   17  C   UNL     1      40.700 -16.977   2.065  1.00  0.00     0.002 A 
HETATM   18  C   UNL     1      41.530 -17.345   1.008  1.00  0.00     0.000 A 
HETATM   19  C   UNL     1      42.914 -17.325   1.169  1.00  0.00     0.002 A 
HETATM   20  C   UNL     1      43.473 -16.936   2.389  1.00  0.00     0.030 A 
ENDBRANCH  11  15
ENDBRANCH   7   8
ENDBRANCH   3   7
BRANCH   1  21
HETATM   21  C   UNL     1      44.209 -11.971  11.522  1.00  0.00     0.162 C 
BRANCH  21  22
HETATM   22  C   UNL     1      43.202 -11.056  12.172  1.00  0.00    -0.040 A 
HETATM   23  C   UNL     1      43.626  -9.874  12.797  1.00  0.00     0.009 A 
HETATM   24  C   UNL     1      42.698  -8.973  13.327  1.00  0.00     0.007 A 
HETATM   25  C   UNL     1      41.327  -9.233  13.240  1.00  0.00    -0.062 A 
HETATM   26  C   UNL     1      40.321  -8.256  13.771  1.00  0.00     0.048 C 
HETATM   27  C   UNL     1      40.898 -10.407  12.612  1.00  0.00     0.007 A 
HETATM   28  C   UNL     1      41.825 -11.306  12.078  1.00  0.00     0.009 A 
ENDBRANCH  21  22
ENDBRANCH   1  21
TORSDOF 5
ENDMDL
MODEL 4
REMARK VINA RESULT:      -9.2      1.230      2.300
REMARK  5 active torsions:
REMARK  status: ('A' for Active; 'I' for Inactive)
REMARK    1  A    between atoms: C_5  and  C_6 
REMARK    2  A    between atoms: C_6  and  N_7 
REMARK       I    between atoms: N_7  and  C_8 
REMARK       I    between atoms: C_8  and  N_9 
REMARK    3  A    between atoms: N_9  and  C_10 
REMARK    4  A    between atoms: C_10  and  C_11 
REMARK    5  A    between atoms: N_14  and  C_15 
ROOT
HETATM    1  N   UNL     1      44.074 -13.081   8.231  1.00  0.00    -0.339 N 
HETATM    2  C   UNL     1      44.381 -13.615   7.012  1.00  0.00     0.316 C 
HETATM    3  N   UNL     1      43.272 -14.053   6.345  1.00  0.00    -0.339 N 
HETATM    4  O   UNL     1      45.521 -13.711   6.579  1.00  0.00    -0.247 OA
HETATM    5  H   UNL     1      43.117 -13.071   8.544  1.00  0.00     0.164 HD
HETATM    6  H   UNL     1      42.371 -13.705   6.628  1.00  0.00     0.164 HD
ENDROOT
BRANCH   3   7
HETATM    7  C   UNL     1      43.375 -14.615   5.019  1.00  0.00     0.165 C 
BRANCH   7   8
HETATM    8  C   UNL     1      43.399 -16.114   5.071  1.00  0.00    -0.016 A 
HETATM    9  C   UNL     1      43.577 -16.962   3.981  1.00  0.00     0.021 A 
HETATM   10  C   UNL     1      43.661 -16.575   2.539  1.00  0.00     0.069 C 
HETATM   11  N   UNL     1      43.613 -18.281   4.432  1.00  0.00    -0.319 N 
HETATM   12  C   UNL     1      43.396 -18.268   5.807  1.00  0.00     0.014 A 
HETATM   13  C   UNL     1      43.437 -19.471   6.687  1.00  0.00     0.068 C 
HETATM   14  C   UNL     1      43.271 -16.951   6.207  1.00  0.00     0.035 A 
BRANCH  11  15
HETATM   15  C   UNL     1      43.861 -19.437   3.633  1.00  0.00     0.039 A 
HETATM   16  C   UNL     1      44.862 -20.343   4.006  1.00  0.00     0.030 A 
HETATM   17  C   UNL     1      45.099 -21.481   3.232  1.00  0.00     0.002 A 
HETATM   18  C   UNL     1      44.343 -21.716   2.086  1.00  0.00     0.000 A 
HETATM   19  C   UNL     1      43.345 -20.817   1.711  1.00  0.00     0.002 A 
HETATM   20  C   UNL     1      43.101 -19.678   2.484  1.00  0.00     0.030 A 
ENDBRANCH  11  15
ENDBRANCH   7   8
ENDBRANCH   3   7
BRANCH   1  21
HETATM   21  C   UNL     1      45.100 -12.674   9.165  1.00  0.00     0.162 C 
BRANCH  21  22
HETATM   22  C   UNL     1      44.551 -11.930  10.356  1.00  0.00    -0.040 A 
HETATM   23  C   UNL     1      44.465 -10.530  10.330  1.00  0.00     0.009 A 
HETATM   24  C   UNL     1      43.878  -9.831  11.390  1.00  0.00     0.007 A 
HETATM   25  C   UNL     1      43.362 -10.517  12.493  1.00  0.00    -0.062 A 
HETATM   26  C   UNL     1      42.696  -9.781  13.618  1.00  0.00     0.048 C 
HETATM   27  C   UNL     1      43.440 -11.914  12.520  1.00  0.00     0.007 A 
HETATM   28  C   UNL     1      44.022 -12.613  11.460  1.00  0.00     0.009 A 
ENDBRANCH  21  22
ENDBRANCH   1  21
TORSDOF 5
ENDMDL
MODEL 5
REMARK VINA RESULT:      -9.0      4.824      8.714
REMARK  5 active torsions:
REMARK  status: ('A' for Active; 'I' for Inactive)
REMARK    1  A    between atoms: C_5  and  C_6 
REMARK    2  A    between atoms: C_6  and  N_7 
REMARK       I    between atoms: N_7  and  C_8 
REMARK       I    between atoms: C_8  and  N_9 
REMARK    3  A    between atoms: N_9  and  C_10 
REMARK    4  A    between atoms: C_10  and  C_11 
REMARK    5  A    between atoms: N_14  and  C_15 
ROOT
HETATM    1  N   UNL     1      43.451 -15.765   3.682  1.00  0.00    -0.339 N 
HETATM    2  C   UNL     1      42.407 -14.950   3.349  1.00  0.00     0.316 C 
HETATM    3  N   UNL     1      42.807 -13.874   2.608  1.00  0.00    -0.339 N 
HETATM    4  O   UNL     1      41.251 -15.148   3.694  1.00  0.00    -0.247 OA
HETATM    5  H   UNL     1      44.386 -15.519   3.399  1.00  0.00     0.164 HD
HETATM    6  H   UNL     1      43.698 -13.914   2.141  1.00  0.00     0.164 HD
ENDROOT
BRANCH   3   7
HETATM    7  C   UNL     1      41.850 -12.909   2.119  1.00  0.00     0.165 C 
BRANCH   7   8
HETATM    8  C   UNL     1      41.629 -13.072   0.644  1.00  0.00    -0.016 A 
HETATM    9  C   UNL     1      40.686 -13.908   0.052  1.00  0.00     0.021 A 
HETATM   10  C   UNL     1      39.791 -14.891   0.738  1.00  0.00     0.069 C 
HETATM   11  N   UNL     1      40.730 -13.736  -1.331  1.00  0.00    -0.319 N 
HETATM   12  C   UNL     1      41.748 -12.831  -1.616  1.00  0.00     0.014 A 
HETATM   13  C   UNL     1      42.072 -12.313  -2.976  1.00  0.00     0.068 C 
HETATM   14  C   UNL     1      42.298 -12.415  -0.419  1.00  0.00     0.035 A 
BRANCH  11  15
HETATM   15  C   UNL     1      39.865 -14.351  -2.284  1.00  0.00     0.039 A 
HETATM   16  C   UNL     1      40.282 -15.500  -2.968  1.00  0.00     0.030 A 
HETATM   17  C   UNL     1      39.432 -16.110  -3.893  1.00  0.00     0.002 A 
HETATM   18  C   UNL     1      38.168 -15.577  -4.140  1.00  0.00     0.000 A 
HETATM   19  C   UNL     1      37.749 -14.434  -3.460  1.00  0.00     0.002 A 
HETATM   20  C   UNL     1      38.594 -13.821  -2.531  1.00  0.00     0.030 A 
ENDBRANCH  11  15
ENDBRANCH   7   8
ENDBRANCH   3   7
BRANCH   1  21
HETATM   21  C   UNL     1      43.283 -16.892   4.572  1.00  0.00     0.162 C 
BRANCH  21  22
HETATM   22  C   UNL     1      43.500 -18.218   3.890  1.00  0.00    -0.040 A 
HETATM   23  C   UNL     1      42.915 -18.470   2.640  1.00  0.00     0.009 A 
HETATM   24  C   UNL     1      43.177 -19.660   1.955  1.00  0.00     0.007 A 
HETATM   25  C   UNL     1      44.032 -20.621   2.503  1.00  0.00    -0.062 A 
HETATM   26  C   UNL     1      44.352 -21.884   1.760  1.00  0.00     0.048 C 
HETATM   27  C   UNL     1      44.623 -20.372   3.746  1.00  0.00     0.007 A 
HETATM   28  C   UNL     1      44.365 -19.181   4.429  1.00  0.00     0.009 A 
ENDBRANCH  21  22
ENDBRANCH   1  21
TORSDOF 5
ENDMDL
MODEL 6
REMARK VINA RESULT:      -8.9      5.492      9.379
REMARK  5 active torsions:
REMARK  status: ('A' for Active; 'I' for Inactive)
REMARK    1  A    between atoms: C_5  and  C_6 
REMARK    2  A    between atoms: C_6  and  N_7 
REMARK       I    between atoms: N_7  and  C_8 
REMARK       I    between atoms: C_8  and  N_9 
REMARK    3  A    between atoms: N_9  and  C_10 
REMARK    4  A    between atoms: C_10  and  C_11 
REMARK    5  A    between atoms: N_14  and  C_15 
ROOT
HETATM    1  N   UNL     1      41.517 -16.817   4.121  1.00  0.00    -0.339 N 
HETATM    2  C   UNL     1      41.330 -15.553   3.640  1.00  0.00     0.316 C 
HETATM    3  N   UNL     1      40.082 -15.379   3.114  1.00  0.00    -0.339 N 
HETATM    4  O   UNL     1      42.191 -14.684   3.658  1.00  0.00    -0.247 OA
HETATM    5  H   UNL     1      40.779 -17.497   4.037  1.00  0.00     0.164 HD
HETATM    6  H   UNL     1      39.355 -16.027   3.371  1.00  0.00     0.164 HD
ENDROOT
BRANCH   3   7
HETATM    7  C   UNL     1      39.667 -14.100   2.587  1.00  0.00     0.165 C 
BRANCH   7   8
HETATM    8  C   UNL     1      39.687 -14.104   1.087  1.00  0.00    -0.016 A 
HETATM    9  C   UNL     1      38.572 -14.005   0.260  1.00  0.00     0.021 A 
HETATM   10  C   UNL     1      37.135 -13.994   0.677  1.00  0.00     0.069 C 
HETATM   11  N   UNL     1      38.992 -13.971  -1.069  1.00  0.00    -0.319 N 
HETATM   12  C   UNL     1      40.377 -14.111  -1.081  1.00  0.00     0.014 A 
HETATM   13  C   UNL     1      41.229 -14.045  -2.304  1.00  0.00     0.068 C 
HETATM   14  C   UNL     1      40.811 -14.185   0.228  1.00  0.00     0.035 A 
BRANCH  11  15
HETATM   15  C   UNL     1      38.158 -13.793  -2.212  1.00  0.00     0.039 A 
HETATM   16  C   UNL     1      37.749 -14.904  -2.960  1.00  0.00     0.030 A 
HETATM   17  C   UNL     1      36.922 -14.732  -4.073  1.00  0.00     0.002 A 
HETATM   18  C   UNL     1      36.505 -13.456  -4.443  1.00  0.00     0.000 A 
HETATM   19  C   UNL     1      36.909 -12.347  -3.701  1.00  0.00     0.002 A 
HETATM   20  C   UNL     1      37.733 -12.513  -2.584  1.00  0.00     0.030 A 
ENDBRANCH  11  15
ENDBRANCH   7   8
ENDBRANCH   3   7
BRANCH   1  21
HETATM   21  C   UNL     1      42.805 -17.266   4.604  1.00  0.00     0.162 C 
BRANCH  21  22
HETATM   22  C   UNL     1      43.330 -18.463   3.853  1.00  0.00    -0.040 A 
HETATM   23  C   UNL     1      44.255 -19.325   4.461  1.00  0.00     0.009 A 
HETATM   24  C   UNL     1      44.684 -20.486   3.812  1.00  0.00     0.007 A 
HETATM   25  C   UNL     1      44.195 -20.811   2.543  1.00  0.00    -0.062 A 
HETATM   26  C   UNL     1      44.620 -22.074   1.853  1.00  0.00     0.048 C 
HETATM   27  C   UNL     1      43.268 -19.959   1.935  1.00  0.00     0.007 A 
HETATM   28  C   UNL     1      42.835 -18.801   2.585  1.00  0.00     0.009 A 
ENDBRANCH  21  22
ENDBRANCH   1  21
TORSDOF 5
ENDMDL
MODEL 7
REMARK VINA RESULT:      -8.7      2.779      3.945
REMARK  5 active torsions:
REMARK  status: ('A' for Active; 'I' for Inactive)
REMARK    1  A    between atoms: C_5  and  C_6 
REMARK    2  A    between atoms: C_6  and  N_7 
REMARK       I    between atoms: N_7  and  C_8 
REMARK       I    between atoms: C_8  and  N_9 
REMARK    3  A    between atoms: N_9  and  C_10 
REMARK    4  A    between atoms: C_10  and  C_11 
REMARK    5  A    between atoms: N_14  and  C_15 
ROOT
HETATM    1  N   UNL     1      39.438 -11.840   8.684  1.00  0.00    -0.339 N 
HETATM    2  C   UNL     1      39.471 -12.020   7.330  1.00  0.00     0.316 C 
HETATM    3  N   UNL     1      39.813 -13.297   6.986  1.00  0.00    -0.339 N 
HETATM    4  O   UNL     1      39.243 -11.132   6.520  1.00  0.00    -0.247 OA
HETATM    5  H   UNL     1      39.677 -12.605   9.294  1.00  0.00     0.164 HD
HETATM    6  H   UNL     1      39.720 -14.024   7.676  1.00  0.00     0.164 HD
ENDROOT
BRANCH   3   7
HETATM    7  C   UNL     1      39.865 -13.707   5.602  1.00  0.00     0.165 C 
BRANCH   7   8
HETATM    8  C   UNL     1      40.936 -14.736   5.387  1.00  0.00    -0.016 A 
HETATM    9  C   UNL     1      41.127 -15.477   4.225  1.00  0.00     0.021 A 
HETATM   10  C   UNL     1      40.253 -15.496   3.010  1.00  0.00     0.069 C 
HETATM   11  N   UNL     1      42.260 -16.276   4.375  1.00  0.00    -0.319 N 
HETATM   12  C   UNL     1      42.752 -16.080   5.662  1.00  0.00     0.014 A 
HETATM   13  C   UNL     1      44.003 -16.688   6.198  1.00  0.00     0.068 C 
HETATM   14  C   UNL     1      41.956 -15.137   6.285  1.00  0.00     0.035 A 
BRANCH  11  15
HETATM   15  C   UNL     1      42.835 -17.118   3.378  1.00  0.00     0.039 A 
HETATM   16  C   UNL     1      42.627 -18.503   3.427  1.00  0.00     0.030 A 
HETATM   17  C   UNL     1      43.180 -19.328   2.445  1.00  0.00     0.002 A 
HETATM   18  C   UNL     1      43.941 -18.778   1.416  1.00  0.00     0.000 A 
HETATM   19  C   UNL     1      44.150 -17.400   1.363  1.00  0.00     0.002 A 
HETATM   20  C   UNL     1      43.596 -16.569   2.341  1.00  0.00     0.030 A 
ENDBRANCH  11  15
ENDBRANCH   7   8
ENDBRANCH   3   7
BRANCH   1  21
HETATM   21  C   UNL     1      39.229 -10.537   9.274  1.00  0.00     0.162 C 
BRANCH  21  22
HETATM   22  C   UNL     1      40.206 -10.228  10.379  1.00  0.00    -0.040 A 
HETATM   23  C   UNL     1      40.386 -11.137  11.433  1.00  0.00     0.009 A 
HETATM   24  C   UNL     1      41.351 -10.906  12.418  1.00  0.00     0.007 A 
HETATM   25  C   UNL     1      42.158  -9.766  12.368  1.00  0.00    -0.062 A 
HETATM   26  C   UNL     1      43.222  -9.527  13.398  1.00  0.00     0.048 C 
HETATM   27  C   UNL     1      41.987  -8.860  11.317  1.00  0.00     0.007 A 
HETATM   28  C   UNL     1      41.026  -9.092  10.329  1.00  0.00     0.009 A 
ENDBRANCH  21  22
ENDBRANCH   1  21
TORSDOF 5
ENDMDL
MODEL 8
REMARK VINA RESULT:      -8.7      1.816     10.489
REMARK  5 active torsions:
REMARK  status: ('A' for Active; 'I' for Inactive)
REMARK    1  A    between atoms: C_5  and  C_6 
REMARK    2  A    between atoms: C_6  and  N_7 
REMARK       I    between atoms: N_7  and  C_8 
REMARK       I    between atoms: C_8  and  N_9 
REMARK    3  A    between atoms: N_9  and  C_10 
REMARK    4  A    between atoms: C_10  and  C_11 
REMARK    5  A    between atoms: N_14  and  C_15 
ROOT
HETATM    1  N   UNL     1      42.603 -14.173   4.869  1.00  0.00    -0.339 N 
HETATM    2  C   UNL     1      42.222 -12.904   5.199  1.00  0.00     0.316 C 
HETATM    3  N   UNL     1      42.088 -12.737   6.548  1.00  0.00    -0.339 N 
HETATM    4  O   UNL     1      42.004 -12.024   4.377  1.00  0.00    -0.247 OA
HETATM    5  H   UNL     1      42.726 -14.861   5.595  1.00  0.00     0.164 HD
HETATM    6  H   UNL     1      42.534 -13.399   7.162  1.00  0.00     0.164 HD
ENDROOT
BRANCH   3   7
HETATM    7  C   UNL     1      41.731 -11.455   7.108  1.00  0.00     0.165 C 
BRANCH   7   8
HETATM    8  C   UNL     1      42.510 -11.180   8.361  1.00  0.00    -0.016 A 
HETATM    9  C   UNL     1      42.015 -10.561   9.505  1.00  0.00     0.021 A 
HETATM   10  C   UNL     1      40.666  -9.941   9.686  1.00  0.00     0.069 C 
HETATM   11  N   UNL     1      43.011 -10.547  10.481  1.00  0.00    -0.319 N 
HETATM   12  C   UNL     1      44.158 -11.108   9.928  1.00  0.00     0.014 A 
HETATM   13  C   UNL     1      45.429 -11.354  10.669  1.00  0.00     0.068 C 
HETATM   14  C   UNL     1      43.861 -11.504   8.638  1.00  0.00     0.035 A 
BRANCH  11  15
HETATM   15  C   UNL     1      42.871 -10.074  11.820  1.00  0.00     0.039 A 
HETATM   16  C   UNL     1      43.010  -8.708  12.097  1.00  0.00     0.030 A 
HETATM   17  C   UNL     1      42.862  -8.241  13.405  1.00  0.00     0.002 A 
HETATM   18  C   UNL     1      42.579  -9.132  14.437  1.00  0.00     0.000 A 
HETATM   19  C   UNL     1      42.440 -10.493  14.166  1.00  0.00     0.002 A 
HETATM   20  C   UNL     1      42.583 -10.966  12.858  1.00  0.00     0.030 A 
ENDBRANCH  11  15
ENDBRANCH   7   8
ENDBRANCH   3   7
BRANCH   1  21
HETATM   21  C   UNL     1      42.679 -14.613   3.494  1.00  0.00     0.162 C 
BRANCH  21  22
HETATM   22  C   UNL     1      43.196 -16.022   3.354  1.00  0.00    -0.040 A 
HETATM   23  C   UNL     1      43.229 -16.872   4.470  1.00  0.00     0.009 A 
HETATM   24  C   UNL     1      43.622 -18.208   4.339  1.00  0.00     0.007 A 
HETATM   25  C   UNL     1      43.988 -18.720   3.091  1.00  0.00    -0.062 A 
HETATM   26  C   UNL     1      44.376 -20.160   2.931  1.00  0.00     0.048 C 
HETATM   27  C   UNL     1      43.953 -17.878   1.975  1.00  0.00     0.007 A 
HETATM   28  C   UNL     1      43.554 -16.545   2.103  1.00  0.00     0.009 A 
ENDBRANCH  21  22
ENDBRANCH   1  21
TORSDOF 5
ENDMDL
MODEL 9
REMARK VINA RESULT:      -8.4      6.020     10.269
REMARK  5 active torsions:
REMARK  status: ('A' for Active; 'I' for Inactive)
REMARK    1  A    between atoms: C_5  and  C_6 
REMARK    2  A    between atoms: C_6  and  N_7 
REMARK       I    between atoms: N_7  and  C_8 
REMARK       I    between atoms: C_8  and  N_9 
REMARK    3  A    between atoms: N_9  and  C_10 
REMARK    4  A    between atoms: C_10  and  C_11 
REMARK    5  A    between atoms: N_14  and  C_15 
ROOT
HETATM    1  N   UNL     1      43.088 -16.667   1.116  1.00  0.00    -0.339 N 
HETATM    2  C   UNL     1      41.956 -16.002   0.740  1.00  0.00     0.316 C 
HETATM    3  N   UNL     1      41.966 -15.672  -0.586  1.00  0.00    -0.339 N 
HETATM    4  O   UNL     1      41.049 -15.714   1.508  1.00  0.00    -0.247 OA
HETATM    5  H   UNL     1      43.816 -16.835   0.440  1.00  0.00     0.164 HD
HETATM    6  H   UNL     1      42.594 -16.163  -1.200  1.00  0.00     0.164 HD
ENDROOT
BRANCH   3   7
HETATM    7  C   UNL     1      40.842 -14.999  -1.194  1.00  0.00     0.165 C 
BRANCH   7   8
HETATM    8  C   UNL     1      41.264 -13.696  -1.808  1.00  0.00    -0.016 A 
HETATM    9  C   UNL     1      41.546 -12.524  -1.111  1.00  0.00     0.021 A 
HETATM   10  C   UNL     1      41.375 -12.281   0.355  1.00  0.00     0.069 C 
HETATM   11  N   UNL     1      41.973 -11.550  -2.013  1.00  0.00    -0.319 N 
HETATM   12  C   UNL     1      41.903 -12.094  -3.292  1.00  0.00     0.014 A 
HETATM   13  C   UNL     1      42.349 -11.404  -4.536  1.00  0.00     0.068 C 
HETATM   14  C   UNL     1      41.479 -13.404  -3.177  1.00  0.00     0.035 A 
BRANCH  11  15
HETATM   15  C   UNL     1      42.432 -10.241  -1.682  1.00  0.00     0.039 A 
HETATM   16  C   UNL     1      41.529  -9.170  -1.652  1.00  0.00     0.030 A 
HETATM   17  C   UNL     1      41.974  -7.889  -1.318  1.00  0.00     0.002 A 
HETATM   18  C   UNL     1      43.317  -7.672  -1.017  1.00  0.00     0.000 A 
HETATM   19  C   UNL     1      44.219  -8.735  -1.045  1.00  0.00     0.002 A 
HETATM   20  C   UNL     1      43.779 -10.020  -1.375  1.00  0.00     0.030 A 
ENDBRANCH  11  15
ENDBRANCH   7   8
ENDBRANCH   3   7
BRANCH   1  21
HETATM   21  C   UNL     1      43.354 -16.998   2.498  1.00  0.00     0.162 C 
BRANCH  21  22
HETATM   22  C   UNL     1      43.761 -18.437   2.691  1.00  0.00    -0.040 A 
HETATM   23  C   UNL     1      44.338 -18.848   3.901  1.00  0.00     0.009 A 
HETATM   24  C   UNL     1      44.640 -20.194   4.128  1.00  0.00     0.007 A 
HETATM   25  C   UNL     1      44.368 -21.156   3.151  1.00  0.00    -0.062 A 
HETATM   26  C   UNL     1      44.652 -22.608   3.397  1.00  0.00     0.048 C 
HETATM   27  C   UNL     1      43.787 -20.752   1.944  1.00  0.00     0.007 A 
HETATM   28  C   UNL     1      43.480 -19.408   1.719  1.00  0.00     0.009 A 
ENDBRANCH  21  22
ENDBRANCH   1  21
TORSDOF 5
ENDMDL
MODEL 10
REMARK VINA RESULT:      -8.4      2.393     10.593
REMARK  5 active torsions:
REMARK  status: ('A' for Active; 'I' for Inactive)
REMARK    1  A    between atoms: C_5  and  C_6 
REMARK    2  A    between atoms: C_6  and  N_7 
REMARK       I    between atoms: N_7  and  C_8 
REMARK       I    between atoms: C_8  and  N_9 
REMARK    3  A    between atoms: N_9  and  C_10 
REMARK    4  A    between atoms: C_10  and  C_11 
REMARK    5  A    between atoms: N_14  and  C_15 
ROOT
HETATM    1  N   UNL     1      41.478 -14.664   6.015  1.00  0.00    -0.339 N 
HETATM    2  C   UNL     1      41.017 -13.379   6.042  1.00  0.00     0.316 C 
HETATM    3  N   UNL     1      41.878 -12.534   6.681  1.00  0.00    -0.339 N 
HETATM    4  O   UNL     1      39.944 -13.031   5.569  1.00  0.00    -0.247 OA
HETATM    5  H   UNL     1      42.352 -14.890   6.461  1.00  0.00     0.164 HD
HETATM    6  H   UNL     1      42.836 -12.820   6.800  1.00  0.00     0.164 HD
ENDROOT
BRANCH   3   7
HETATM    7  C   UNL     1      41.596 -11.121   6.785  1.00  0.00     0.165 C 
BRANCH   7   8
HETATM    8  C   UNL     1      41.198 -10.754   8.184  1.00  0.00    -0.016 A 
HETATM    9  C   UNL     1      42.064 -10.622   9.266  1.00  0.00     0.021 A 
HETATM   10  C   UNL     1      43.528 -10.928   9.296  1.00  0.00     0.069 C 
HETATM   11  N   UNL     1      41.339 -10.201  10.381  1.00  0.00    -0.319 N 
HETATM   12  C   UNL     1      39.998 -10.125  10.013  1.00  0.00     0.014 A 
HETATM   13  C   UNL     1      38.900  -9.635  10.894  1.00  0.00     0.068 C 
HETATM   14  C   UNL     1      39.903 -10.453   8.674  1.00  0.00     0.035 A 
BRANCH  11  15
HETATM   15  C   UNL     1      41.877  -9.873  11.660  1.00  0.00     0.039 A 
HETATM   16  C   UNL     1      41.960 -10.855  12.656  1.00  0.00     0.030 A 
HETATM   17  C   UNL     1      42.496 -10.539  13.906  1.00  0.00     0.002 A 
HETATM   18  C   UNL     1      42.947  -9.247  14.167  1.00  0.00     0.000 A 
HETATM   19  C   UNL     1      42.867  -8.267  13.179  1.00  0.00     0.002 A 
HETATM   20  C   UNL     1      42.334  -8.578  11.925  1.00  0.00     0.030 A 
ENDBRANCH  11  15
ENDBRANCH   7   8
ENDBRANCH   3   7
BRANCH   1  21
HETATM   21  C   UNL     1      40.673 -15.752   5.506  1.00  0.00     0.162 C 
BRANCH  21  22
HETATM   22  C   UNL     1      41.489 -16.819   4.822  1.00  0.00    -0.040 A 
HETATM   23  C   UNL     1      41.454 -16.943   3.425  1.00  0.00     0.009 A 
HETATM   24  C   UNL     1      42.272 -17.868   2.769  1.00  0.00     0.007 A 
HETATM   25  C   UNL     1      43.142 -18.686   3.496  1.00  0.00    -0.062 A 
HETATM   26  C   UNL     1      44.051 -19.656   2.801  1.00  0.00     0.048 C 
HETATM   27  C   UNL     1      43.185 -18.562   4.889  1.00  0.00     0.007 A 
HETATM   28  C   UNL     1      42.372 -17.634   5.544  1.00  0.00     0.009 A 
ENDBRANCH  21  22
ENDBRANCH   1  21
TORSDOF 5
ENDMDL
