MODEL 1
REMARK VINA RESULT:      -8.9      0.000      0.000
REMARK  5 active torsions:
REMARK  status: ('A' for Active; 'I' for Inactive)
REMARK    1  A    between atoms: C_2  and  C_3 
REMARK    2  A    between atoms: C_2  and  C_9 
REMARK    3  A    between atoms: C_9  and  C_10 
REMARK       I    between atoms: C_10  and  N_11 
REMARK    4  A    between atoms: N_11  and  C_12 
REMARK    5  A    between atoms: C_19  and  C_20 
REMARK       I    between atoms: C_20  and  N_21 
ROOT
HETATM    1  C   UNL     1      40.269 -15.770   1.335  1.00  0.00     0.035 A 
HETATM    2  C   UNL     1      40.840 -15.439   0.098  1.00  0.00     0.046 A 
HETATM    3  C   UNL     1      40.243 -14.440  -0.702  1.00  0.00     0.030 A 
HETATM    4  C   UNL     1      39.101 -13.802  -0.235  1.00  0.00     0.063 A 
HETATM    5  N   UNL     1      38.763 -12.903  -1.208  1.00  0.00    -0.277 N 
HETATM    6  H   UNL     1      37.978 -12.263  -1.206  1.00  0.00     0.189 HD
HETATM    7  N   UNL     1      39.580 -12.903  -2.273  1.00  0.00    -0.168 NA
HETATM    8  C   UNL     1      40.501 -13.849  -1.977  1.00  0.00     0.156 A 
HETATM    9  C   UNL     1      38.507 -14.102   0.992  1.00  0.00     0.034 A 
HETATM   10  C   UNL     1      39.114 -15.101   1.763  1.00  0.00     0.032 A 
ENDROOT
BRANCH   1  11
HETATM   11  N   UNL     1      40.771 -16.777   2.187  1.00  0.00    -0.327 N 
HETATM   12  C   UNL     1      41.290 -16.622   3.460  1.00  0.00     0.223 C 
HETATM   13  O   UNL     1      41.309 -15.590   4.121  1.00  0.00    -0.273 OA
HETATM   14  H   UNL     1      40.741 -17.719   1.821  1.00  0.00     0.169 HD
BRANCH  12  15
HETATM   15  C   UNL     1      41.899 -17.903   4.013  1.00  0.00     0.116 C 
BRANCH  15  16
HETATM   16  C   UNL     1      43.437 -18.017   3.824  1.00  0.00    -0.012 C 
HETATM   17  C   UNL     1      44.149 -17.650   5.150  1.00  0.00     0.020 C 
HETATM   18  C   UNL     1      43.954 -17.025   2.756  1.00  0.00     0.020 C 
BRANCH  16  19
HETATM   19  C   UNL     1      43.750 -19.459   3.356  1.00  0.00    -0.050 A 
HETATM   20  C   UNL     1      43.356 -19.947   2.097  1.00  0.00     0.008 A 
HETATM   21  C   UNL     1      43.651 -21.255   1.701  1.00  0.00     0.001 A 
HETATM   22  C   UNL     1      44.353 -22.105   2.549  1.00  0.00     0.000 A 
HETATM   23  C   UNL     1      44.764 -21.646   3.794  1.00  0.00     0.001 A 
HETATM   24  C   UNL     1      44.468 -20.339   4.192  1.00  0.00     0.008 A 
ENDBRANCH  16  19
ENDBRANCH  15  16
ENDBRANCH  12  15
ENDBRANCH   1  11
BRANCH   8  25
HETATM   25  C   UNL     1      41.591 -14.168  -2.909  1.00  0.00     0.270 C 
HETATM   26  N   UNL     1      42.733 -13.443  -2.701  1.00  0.00    -0.365 N 
HETATM   27  H   UNL     1      42.745 -12.762  -1.950  1.00  0.00     0.159 HD
HETATM   28  H   UNL     1      43.532 -13.589  -3.296  1.00  0.00     0.159 HD
HETATM   29  O   UNL     1      41.523 -14.997  -3.809  1.00  0.00    -0.266 OA
ENDBRANCH   8  25
TORSDOF 5
ENDMDL
MODEL 2
REMARK VINA RESULT:      -8.6      3.475      5.246
REMARK  5 active torsions:
REMARK  status: ('A' for Active; 'I' for Inactive)
REMARK    1  A    between atoms: C_2  and  C_3 
REMARK    2  A    between atoms: C_2  and  C_9 
REMARK    3  A    between atoms: C_9  and  C_10 
REMARK       I    between atoms: C_10  and  N_11 
REMARK    4  A    between atoms: N_11  and  C_12 
REMARK    5  A    between atoms: C_19  and  C_20 
REMARK       I    between atoms: C_20  and  N_21 
ROOT
HETATM    1  C   UNL     1      41.074 -14.298   3.504  1.00  0.00     0.035 A 
HETATM    2  C   UNL     1      40.815 -13.624   4.705  1.00  0.00     0.046 A 
HETATM    3  C   UNL     1      39.852 -12.591   4.733  1.00  0.00     0.030 A 
HETATM    4  C   UNL     1      39.178 -12.273   3.561  1.00  0.00     0.063 A 
HETATM    5  N   UNL     1      38.327 -11.256   3.896  1.00  0.00    -0.277 N 
HETATM    6  H   UNL     1      37.678 -10.773   3.286  1.00  0.00     0.189 HD
HETATM    7  N   UNL     1      38.391 -10.878   5.182  1.00  0.00    -0.168 NA
HETATM    8  C   UNL     1      39.331 -11.693   5.714  1.00  0.00     0.156 A 
HETATM    9  C   UNL     1      39.406 -12.924   2.348  1.00  0.00     0.034 A 
HETATM   10  C   UNL     1      40.370 -13.940   2.345  1.00  0.00     0.032 A 
ENDROOT
BRANCH   1  11
HETATM   11  N   UNL     1      42.041 -15.317   3.369  1.00  0.00    -0.327 N 
HETATM   12  C   UNL     1      42.016 -16.582   3.929  1.00  0.00     0.223 C 
HETATM   13  O   UNL     1      41.094 -17.083   4.561  1.00  0.00    -0.273 OA
HETATM   14  H   UNL     1      42.839 -15.093   2.790  1.00  0.00     0.169 HD
BRANCH  12  15
HETATM   15  C   UNL     1      43.311 -17.352   3.713  1.00  0.00     0.116 C 
BRANCH  15  16
HETATM   16  C   UNL     1      43.376 -18.137   2.373  1.00  0.00    -0.012 C 
HETATM   17  C   UNL     1      44.347 -17.421   1.401  1.00  0.00     0.020 C 
HETATM   18  C   UNL     1      41.998 -18.178   1.671  1.00  0.00     0.020 C 
BRANCH  16  19
HETATM   19  C   UNL     1      43.812 -19.586   2.696  1.00  0.00    -0.050 A 
HETATM   20  C   UNL     1      44.431 -19.938   3.908  1.00  0.00     0.008 A 
HETATM   21  C   UNL     1      44.816 -21.256   4.172  1.00  0.00     0.001 A 
HETATM   22  C   UNL     1      44.584 -22.257   3.234  1.00  0.00     0.000 A 
HETATM   23  C   UNL     1      43.963 -21.940   2.032  1.00  0.00     0.001 A 
HETATM   24  C   UNL     1      43.581 -20.622   1.767  1.00  0.00     0.008 A 
ENDBRANCH  16  19
ENDBRANCH  15  16
ENDBRANCH  12  15
ENDBRANCH   1  11
BRANCH   8  25
HETATM   25  C   UNL     1      39.711 -11.593   7.130  1.00  0.00     0.270 C 
HETATM   26  N   UNL     1      39.213 -12.599   7.913  1.00  0.00    -0.365 N 
HETATM   27  H   UNL     1      38.637 -13.311   7.479  1.00  0.00     0.159 HD
HETATM   28  H   UNL     1      39.415 -12.611   8.899  1.00  0.00     0.159 HD
HETATM   29  O   UNL     1      40.404 -10.703   7.609  1.00  0.00    -0.266 OA
ENDBRANCH   8  25
TORSDOF 5
ENDMDL
MODEL 3
REMARK VINA RESULT:      -8.5      5.738      8.630
REMARK  5 active torsions:
REMARK  status: ('A' for Active; 'I' for Inactive)
REMARK    1  A    between atoms: C_2  and  C_3 
REMARK    2  A    between atoms: C_2  and  C_9 
REMARK    3  A    between atoms: C_9  and  C_10 
REMARK       I    between atoms: C_10  and  N_11 
REMARK    4  A    between atoms: N_11  and  C_12 
REMARK    5  A    between atoms: C_19  and  C_20 
REMARK       I    between atoms: C_20  and  N_21 
ROOT
HETATM    1  C   UNL     1      44.565 -14.259   7.209  1.00  0.00     0.035 A 
HETATM    2  C   UNL     1      44.093 -13.485   8.278  1.00  0.00     0.046 A 
HETATM    3  C   UNL     1      44.865 -12.401   8.749  1.00  0.00     0.030 A 
HETATM    4  C   UNL     1      46.077 -12.123   8.132  1.00  0.00     0.063 A 
HETATM    5  N   UNL     1      46.583 -11.040   8.795  1.00  0.00    -0.277 N 
HETATM    6  H   UNL     1      47.458 -10.563   8.614  1.00  0.00     0.189 HD
HETATM    7  N   UNL     1      45.810 -10.589   9.796  1.00  0.00    -0.168 NA
HETATM    8  C   UNL     1      44.743 -11.421   9.782  1.00  0.00     0.156 A 
HETATM    9  C   UNL     1      46.578 -12.868   7.064  1.00  0.00     0.034 A 
HETATM   10  C   UNL     1      45.797 -13.943   6.619  1.00  0.00     0.032 A 
ENDROOT
BRANCH   1  11
HETATM   11  N   UNL     1      43.885 -15.382   6.691  1.00  0.00    -0.327 N 
HETATM   12  C   UNL     1      43.470 -16.508   7.380  1.00  0.00     0.223 C 
HETATM   13  O   UNL     1      43.526 -16.685   8.592  1.00  0.00    -0.273 OA
HETATM   14  H   UNL     1      43.675 -15.352   5.702  1.00  0.00     0.169 HD
BRANCH  12  15
HETATM   15  C   UNL     1      42.923 -17.595   6.467  1.00  0.00     0.116 C 
BRANCH  15  16
HETATM   16  C   UNL     1      43.951 -18.701   6.098  1.00  0.00    -0.012 C 
HETATM   17  C   UNL     1      43.722 -19.941   6.998  1.00  0.00     0.020 C 
HETATM   18  C   UNL     1      45.404 -18.234   6.350  1.00  0.00     0.020 C 
BRANCH  16  19
HETATM   19  C   UNL     1      43.785 -19.016   4.592  1.00  0.00    -0.050 A 
HETATM   20  C   UNL     1      44.477 -20.062   3.957  1.00  0.00     0.008 A 
HETATM   21  C   UNL     1      44.308 -20.323   2.593  1.00  0.00     0.001 A 
HETATM   22  C   UNL     1      43.438 -19.550   1.832  1.00  0.00     0.000 A 
HETATM   23  C   UNL     1      42.732 -18.516   2.436  1.00  0.00     0.001 A 
HETATM   24  C   UNL     1      42.902 -18.254   3.799  1.00  0.00     0.008 A 
ENDBRANCH  16  19
ENDBRANCH  15  16
ENDBRANCH  12  15
ENDBRANCH   1  11
BRANCH   8  25
HETATM   25  C   UNL     1      43.646 -11.267  10.747  1.00  0.00     0.270 C 
HETATM   26  N   UNL     1      43.554 -12.287  11.655  1.00  0.00    -0.365 N 
HETATM   27  H   UNL     1      44.220 -13.049  11.597  1.00  0.00     0.159 HD
HETATM   28  H   UNL     1      42.828 -12.271  12.353  1.00  0.00     0.159 HD
HETATM   29  O   UNL     1      42.859 -10.328  10.769  1.00  0.00    -0.266 OA
ENDBRANCH   8  25
TORSDOF 5
ENDMDL
MODEL 4
REMARK VINA RESULT:      -8.4      2.113      2.980
REMARK  5 active torsions:
REMARK  status: ('A' for Active; 'I' for Inactive)
REMARK    1  A    between atoms: C_2  and  C_3 
REMARK    2  A    between atoms: C_2  and  C_9 
REMARK    3  A    between atoms: C_9  and  C_10 
REMARK       I    between atoms: C_10  and  N_11 
REMARK    4  A    between atoms: N_11  and  C_12 
REMARK    5  A    between atoms: C_19  and  C_20 
REMARK       I    between atoms: C_20  and  N_21 
ROOT
HETATM    1  C   UNL     1      41.256 -15.362  -0.873  1.00  0.00     0.035 A 
HETATM    2  C   UNL     1      41.798 -14.079  -0.720  1.00  0.00     0.046 A 
HETATM    3  C   UNL     1      41.954 -13.247  -1.851  1.00  0.00     0.030 A 
HETATM    4  C   UNL     1      41.557 -13.725  -3.093  1.00  0.00     0.063 A 
HETATM    5  N   UNL     1      41.826 -12.714  -3.974  1.00  0.00    -0.277 N 
HETATM    6  H   UNL     1      41.665 -12.712  -4.974  1.00  0.00     0.189 HD
HETATM    7  N   UNL     1      42.370 -11.620  -3.417  1.00  0.00    -0.168 NA
HETATM    8  C   UNL     1      42.458 -11.934  -2.104  1.00  0.00     0.156 A 
HETATM    9  C   UNL     1      41.011 -14.994  -3.284  1.00  0.00     0.034 A 
HETATM   10  C   UNL     1      40.872 -15.803  -2.148  1.00  0.00     0.032 A 
ENDROOT
BRANCH   1  11
HETATM   11  N   UNL     1      41.094 -16.278   0.188  1.00  0.00    -0.327 N 
HETATM   12  C   UNL     1      40.514 -16.044   1.423  1.00  0.00     0.223 C 
HETATM   13  O   UNL     1      39.939 -15.021   1.778  1.00  0.00    -0.273 OA
HETATM   14  H   UNL     1      41.439 -17.213   0.020  1.00  0.00     0.169 HD
BRANCH  12  15
HETATM   15  C   UNL     1      40.671 -17.213   2.384  1.00  0.00     0.116 C 
BRANCH  15  16
HETATM   16  C   UNL     1      41.855 -17.072   3.380  1.00  0.00    -0.012 C 
HETATM   17  C   UNL     1      41.305 -16.921   4.820  1.00  0.00     0.020 C 
HETATM   18  C   UNL     1      42.693 -15.804   3.092  1.00  0.00     0.020 C 
BRANCH  16  19
HETATM   19  C   UNL     1      42.762 -18.315   3.213  1.00  0.00    -0.050 A 
HETATM   20  C   UNL     1      42.779 -19.087   2.038  1.00  0.00     0.008 A 
HETATM   21  C   UNL     1      43.608 -20.207   1.916  1.00  0.00     0.001 A 
HETATM   22  C   UNL     1      44.447 -20.577   2.962  1.00  0.00     0.000 A 
HETATM   23  C   UNL     1      44.460 -19.826   4.131  1.00  0.00     0.001 A 
HETATM   24  C   UNL     1      43.629 -18.708   4.254  1.00  0.00     0.008 A 
ENDBRANCH  16  19
ENDBRANCH  15  16
ENDBRANCH  12  15
ENDBRANCH   1  11
BRANCH   8  25
HETATM   25  C   UNL     1      43.018 -10.986  -1.131  1.00  0.00     0.270 C 
HETATM   26  N   UNL     1      43.703  -9.945  -1.697  1.00  0.00    -0.365 N 
HETATM   27  H   UNL     1      43.776  -9.906  -2.707  1.00  0.00     0.159 HD
HETATM   28  H   UNL     1      44.128  -9.248  -1.107  1.00  0.00     0.159 HD
HETATM   29  O   UNL     1      42.910 -11.085   0.086  1.00  0.00    -0.266 OA
ENDBRANCH   8  25
TORSDOF 5
ENDMDL
MODEL 5
REMARK VINA RESULT:      -8.2      5.662      8.623
REMARK  5 active torsions:
REMARK  status: ('A' for Active; 'I' for Inactive)
REMARK    1  A    between atoms: C_2  and  C_3 
REMARK    2  A    between atoms: C_2  and  C_9 
REMARK    3  A    between atoms: C_9  and  C_10 
REMARK       I    between atoms: C_10  and  N_11 
REMARK    4  A    between atoms: N_11  and  C_12 
REMARK    5  A    between atoms: C_19  and  C_20 
REMARK       I    between atoms: C_20  and  N_21 
ROOT
HETATM    1  C   UNL     1      44.796 -14.240   7.214  1.00  0.00     0.035 A 
HETATM    2  C   UNL     1      44.270 -13.732   8.410  1.00  0.00     0.046 A 
HETATM    3  C   UNL     1      44.898 -12.632   9.037  1.00  0.00     0.030 A 
HETATM    4  C   UNL     1      46.023 -12.075   8.444  1.00  0.00     0.063 A 
HETATM    5  N   UNL     1      46.397 -11.049   9.266  1.00  0.00    -0.277 N 
HETATM    6  H   UNL     1      47.182 -10.420   9.145  1.00  0.00     0.189 HD
HETATM    7  N   UNL     1      45.618 -10.891  10.348  1.00  0.00    -0.168 NA
HETATM    8  C   UNL     1      44.687 -11.864  10.223  1.00  0.00     0.156 A 
HETATM    9  C   UNL     1      46.572 -12.551   7.253  1.00  0.00     0.034 A 
HETATM   10  C   UNL     1      45.936 -13.646   6.654  1.00  0.00     0.032 A 
ENDROOT
BRANCH   1  11
HETATM   11  N   UNL     1      44.262 -15.355   6.533  1.00  0.00    -0.327 N 
HETATM   12  C   UNL     1      43.018 -15.463   5.939  1.00  0.00     0.223 C 
HETATM   13  O   UNL     1      42.191 -14.567   5.806  1.00  0.00    -0.273 OA
HETATM   14  H   UNL     1      44.866 -16.163   6.471  1.00  0.00     0.169 HD
BRANCH  12  15
HETATM   15  C   UNL     1      42.714 -16.872   5.450  1.00  0.00     0.116 C 
BRANCH  15  16
HETATM   16  C   UNL     1      42.625 -17.011   3.905  1.00  0.00    -0.012 C 
HETATM   17  C   UNL     1      43.333 -15.807   3.236  1.00  0.00     0.020 C 
HETATM   18  C   UNL     1      41.157 -16.988   3.416  1.00  0.00     0.020 C 
BRANCH  16  19
HETATM   19  C   UNL     1      43.256 -18.369   3.517  1.00  0.00    -0.050 A 
HETATM   20  C   UNL     1      43.002 -18.997   2.285  1.00  0.00     0.008 A 
HETATM   21  C   UNL     1      43.586 -20.226   1.961  1.00  0.00     0.001 A 
HETATM   22  C   UNL     1      44.445 -20.854   2.857  1.00  0.00     0.000 A 
HETATM   23  C   UNL     1      44.723 -20.250   4.078  1.00  0.00     0.001 A 
HETATM   24  C   UNL     1      44.138 -19.023   4.402  1.00  0.00     0.008 A 
ENDBRANCH  16  19
ENDBRANCH  15  16
ENDBRANCH  12  15
ENDBRANCH   1  11
BRANCH   8  25
HETATM   25  C   UNL     1      43.630 -12.039  11.229  1.00  0.00     0.270 C 
HETATM   26  N   UNL     1      43.809 -13.125  12.043  1.00  0.00    -0.365 N 
HETATM   27  H   UNL     1      44.623 -13.711  11.897  1.00  0.00     0.159 HD
HETATM   28  H   UNL     1      43.131 -13.329  12.759  1.00  0.00     0.159 HD
HETATM   29  O   UNL     1      42.657 -11.305  11.358  1.00  0.00    -0.266 OA
ENDBRANCH   8  25
TORSDOF 5
ENDMDL
MODEL 6
REMARK VINA RESULT:      -8.0      2.760      3.541
REMARK  5 active torsions:
REMARK  status: ('A' for Active; 'I' for Inactive)
REMARK    1  A    between atoms: C_2  and  C_3 
REMARK    2  A    between atoms: C_2  and  C_9 
REMARK    3  A    between atoms: C_9  and  C_10 
REMARK       I    between atoms: C_10  and  N_11 
REMARK    4  A    between atoms: N_11  and  C_12 
REMARK    5  A    between atoms: C_19  and  C_20 
REMARK       I    between atoms: C_20  and  N_21 
ROOT
HETATM    1  C   UNL     1      40.834 -14.581   4.226  1.00  0.00     0.035 A 
HETATM    2  C   UNL     1      40.306 -14.025   3.052  1.00  0.00     0.046 A 
HETATM    3  C   UNL     1      39.467 -12.892   3.132  1.00  0.00     0.030 A 
HETATM    4  C   UNL     1      39.190 -12.350   4.381  1.00  0.00     0.063 A 
HETATM    5  N   UNL     1      38.369 -11.284   4.140  1.00  0.00    -0.277 N 
HETATM    6  H   UNL     1      37.967 -10.653   4.823  1.00  0.00     0.189 HD
HETATM    7  N   UNL     1      38.080 -11.085   2.844  1.00  0.00    -0.168 NA
HETATM    8  C   UNL     1      38.750 -12.073   2.207  1.00  0.00     0.156 A 
HETATM    9  C   UNL     1      39.700 -12.873   5.569  1.00  0.00     0.034 A 
HETATM   10  C   UNL     1      40.524 -14.001   5.465  1.00  0.00     0.032 A 
ENDROOT
BRANCH   1  11
HETATM   11  N   UNL     1      41.651 -15.731   4.251  1.00  0.00    -0.327 N 
HETATM   12  C   UNL     1      42.941 -15.859   3.768  1.00  0.00     0.223 C 
HETATM   13  O   UNL     1      43.648 -14.961   3.324  1.00  0.00    -0.273 OA
HETATM   14  H   UNL     1      41.243 -16.552   4.677  1.00  0.00     0.169 HD
BRANCH  12  15
HETATM   15  C   UNL     1      43.450 -17.293   3.806  1.00  0.00     0.116 C 
BRANCH  15  16
HETATM   16  C   UNL     1      43.363 -18.042   2.447  1.00  0.00    -0.012 C 
HETATM   17  C   UNL     1      44.267 -17.334   1.408  1.00  0.00     0.020 C 
HETATM   18  C   UNL     1      41.926 -18.017   1.875  1.00  0.00     0.020 C 
BRANCH  16  19
HETATM   19  C   UNL     1      43.773 -19.514   2.693  1.00  0.00    -0.050 A 
HETATM   20  C   UNL     1      43.550 -20.530   1.747  1.00  0.00     0.008 A 
HETATM   21  C   UNL     1      43.930 -21.852   1.997  1.00  0.00     0.001 A 
HETATM   22  C   UNL     1      44.549 -22.191   3.196  1.00  0.00     0.000 A 
HETATM   23  C   UNL     1      44.793 -21.205   4.145  1.00  0.00     0.001 A 
HETATM   24  C   UNL     1      44.411 -19.884   3.896  1.00  0.00     0.008 A 
ENDBRANCH  16  19
ENDBRANCH  15  16
ENDBRANCH  12  15
ENDBRANCH   1  11
BRANCH   8  25
HETATM   25  C   UNL     1      38.687 -12.214   0.746  1.00  0.00     0.270 C 
HETATM   26  N   UNL     1      39.898 -12.088   0.120  1.00  0.00    -0.365 N 
HETATM   27  H   UNL     1      40.720 -11.910   0.687  1.00  0.00     0.159 HD
HETATM   28  H   UNL     1      39.953 -12.164  -0.882  1.00  0.00     0.159 HD
HETATM   29  O   UNL     1      37.663 -12.420   0.105  1.00  0.00    -0.266 OA
ENDBRANCH   8  25
TORSDOF 5
ENDMDL
MODEL 7
REMARK VINA RESULT:      -7.8      2.847      8.538
REMARK  5 active torsions:
REMARK  status: ('A' for Active; 'I' for Inactive)
REMARK    1  A    between atoms: C_2  and  C_3 
REMARK    2  A    between atoms: C_2  and  C_9 
REMARK    3  A    between atoms: C_9  and  C_10 
REMARK       I    between atoms: C_10  and  N_11 
REMARK    4  A    between atoms: N_11  and  C_12 
REMARK    5  A    between atoms: C_19  and  C_20 
REMARK       I    between atoms: C_20  and  N_21 
ROOT
HETATM    1  C   UNL     1      43.251 -17.764   2.660  1.00  0.00     0.035 A 
HETATM    2  C   UNL     1      43.030 -17.538   4.026  1.00  0.00     0.046 A 
HETATM    3  C   UNL     1      43.490 -18.480   4.973  1.00  0.00     0.030 A 
HETATM    4  C   UNL     1      44.162 -19.609   4.523  1.00  0.00     0.063 A 
HETATM    5  N   UNL     1      44.478 -20.317   5.649  1.00  0.00    -0.277 N 
HETATM    6  H   UNL     1      44.972 -21.200   5.700  1.00  0.00     0.189 HD
HETATM    7  N   UNL     1      44.066 -19.752   6.795  1.00  0.00    -0.168 NA
HETATM    8  C   UNL     1      43.452 -18.615   6.394  1.00  0.00     0.156 A 
HETATM    9  C   UNL     1      44.404 -19.865   3.173  1.00  0.00     0.034 A 
HETATM   10  C   UNL     1      43.932 -18.920   2.253  1.00  0.00     0.032 A 
ENDROOT
BRANCH   1  11
HETATM   11  N   UNL     1      42.799 -16.901   1.639  1.00  0.00    -0.327 N 
HETATM   12  C   UNL     1      41.644 -17.020   0.886  1.00  0.00     0.223 C 
HETATM   13  O   UNL     1      40.749 -17.842   1.045  1.00  0.00    -0.273 OA
HETATM   14  H   UNL     1      43.389 -16.104   1.442  1.00  0.00     0.169 HD
BRANCH  12  15
HETATM   15  C   UNL     1      41.567 -16.005  -0.246  1.00  0.00     0.116 C 
BRANCH  15  16
HETATM   16  C   UNL     1      40.769 -14.717   0.099  1.00  0.00    -0.012 C 
HETATM   17  C   UNL     1      41.755 -13.579   0.462  1.00  0.00     0.020 C 
HETATM   18  C   UNL     1      39.860 -14.925   1.333  1.00  0.00     0.020 C 
BRANCH  16  19
HETATM   19  C   UNL     1      39.879 -14.373  -1.120  1.00  0.00    -0.050 A 
HETATM   20  C   UNL     1      38.716 -13.591  -1.012  1.00  0.00     0.008 A 
HETATM   21  C   UNL     1      37.931 -13.297  -2.130  1.00  0.00     0.001 A 
HETATM   22  C   UNL     1      38.292 -13.771  -3.387  1.00  0.00     0.000 A 
HETATM   23  C   UNL     1      39.443 -14.537  -3.526  1.00  0.00     0.001 A 
HETATM   24  C   UNL     1      40.228 -14.833  -2.407  1.00  0.00     0.008 A 
ENDBRANCH  16  19
ENDBRANCH  15  16
ENDBRANCH  12  15
ENDBRANCH   1  11
BRANCH   8  25
HETATM   25  C   UNL     1      42.844 -17.697   7.367  1.00  0.00     0.270 C 
HETATM   26  N   UNL     1      43.482 -17.662   8.577  1.00  0.00    -0.365 N 
HETATM   27  H   UNL     1      44.295 -18.252   8.713  1.00  0.00     0.159 HD
HETATM   28  H   UNL     1      43.133 -17.065   9.309  1.00  0.00     0.159 HD
HETATM   29  O   UNL     1      41.851 -17.009   7.156  1.00  0.00    -0.266 OA
ENDBRANCH   8  25
TORSDOF 5
ENDMDL
MODEL 8
REMARK VINA RESULT:      -7.7      3.391      8.129
REMARK  5 active torsions:
REMARK  status: ('A' for Active; 'I' for Inactive)
REMARK    1  A    between atoms: C_2  and  C_3 
REMARK    2  A    between atoms: C_2  and  C_9 
REMARK    3  A    between atoms: C_9  and  C_10 
REMARK       I    between atoms: C_10  and  N_11 
REMARK    4  A    between atoms: N_11  and  C_12 
REMARK    5  A    between atoms: C_19  and  C_20 
REMARK       I    between atoms: C_20  and  N_21 
ROOT
HETATM    1  C   UNL     1      43.275 -19.314   2.365  1.00  0.00     0.035 A 
HETATM    2  C   UNL     1      43.451 -19.283   3.756  1.00  0.00     0.046 A 
HETATM    3  C   UNL     1      44.036 -20.390   4.410  1.00  0.00     0.030 A 
HETATM    4  C   UNL     1      44.432 -21.484   3.651  1.00  0.00     0.063 A 
HETATM    5  N   UNL     1      44.953 -22.377   4.545  1.00  0.00    -0.277 N 
HETATM    6  H   UNL     1      45.340 -23.292   4.345  1.00  0.00     0.189 HD
HETATM    7  N   UNL     1      44.927 -21.965   5.823  1.00  0.00    -0.168 NA
HETATM    8  C   UNL     1      44.361 -20.738   5.756  1.00  0.00     0.156 A 
HETATM    9  C   UNL     1      44.277 -21.548   2.266  1.00  0.00     0.034 A 
HETATM   10  C   UNL     1      43.687 -20.442   1.641  1.00  0.00     0.032 A 
ENDROOT
BRANCH   1  11
HETATM   11  N   UNL     1      42.669 -18.274   1.628  1.00  0.00    -0.327 N 
HETATM   12  C   UNL     1      43.242 -17.081   1.224  1.00  0.00     0.223 C 
HETATM   13  O   UNL     1      44.419 -16.759   1.345  1.00  0.00    -0.273 OA
HETATM   14  H   UNL     1      41.705 -18.427   1.362  1.00  0.00     0.169 HD
BRANCH  12  15
HETATM   15  C   UNL     1      42.240 -16.123   0.599  1.00  0.00     0.116 C 
BRANCH  15  16
HETATM   16  C   UNL     1      41.271 -15.454   1.613  1.00  0.00    -0.012 C 
HETATM   17  C   UNL     1      40.086 -16.408   1.904  1.00  0.00     0.020 C 
HETATM   18  C   UNL     1      40.660 -14.152   1.042  1.00  0.00     0.020 C 
BRANCH  16  19
HETATM   19  C   UNL     1      42.084 -15.104   2.883  1.00  0.00    -0.050 A 
HETATM   20  C   UNL     1      43.016 -14.052   2.919  1.00  0.00     0.008 A 
HETATM   21  C   UNL     1      43.738 -13.760   4.080  1.00  0.00     0.001 A 
HETATM   22  C   UNL     1      43.541 -14.507   5.236  1.00  0.00     0.000 A 
HETATM   23  C   UNL     1      42.619 -15.547   5.233  1.00  0.00     0.001 A 
HETATM   24  C   UNL     1      41.899 -15.840   4.071  1.00  0.00     0.008 A 
ENDBRANCH  16  19
ENDBRANCH  15  16
ENDBRANCH  12  15
ENDBRANCH   1  11
BRANCH   8  25
HETATM   25  C   UNL     1      44.142 -19.935   6.968  1.00  0.00     0.270 C 
HETATM   26  N   UNL     1      43.539 -20.619   7.989  1.00  0.00    -0.365 N 
HETATM   27  H   UNL     1      43.293 -21.591   7.842  1.00  0.00     0.159 HD
HETATM   28  H   UNL     1      43.342 -20.149   8.857  1.00  0.00     0.159 HD
HETATM   29  O   UNL     1      44.450 -18.755   7.092  1.00  0.00    -0.266 OA
ENDBRANCH   8  25
TORSDOF 5
ENDMDL
MODEL 9
REMARK VINA RESULT:      -7.7      2.925      8.512
REMARK  5 active torsions:
REMARK  status: ('A' for Active; 'I' for Inactive)
REMARK    1  A    between atoms: C_2  and  C_3 
REMARK    2  A    between atoms: C_2  and  C_9 
REMARK    3  A    between atoms: C_9  and  C_10 
REMARK       I    between atoms: C_10  and  N_11 
REMARK    4  A    between atoms: N_11  and  C_12 
REMARK    5  A    between atoms: C_19  and  C_20 
REMARK       I    between atoms: C_20  and  N_21 
ROOT
HETATM    1  C   UNL     1      43.381 -18.481   2.040  1.00  0.00     0.035 A 
HETATM    2  C   UNL     1      43.623 -18.256   3.403  1.00  0.00     0.046 A 
HETATM    3  C   UNL     1      44.058 -19.323   4.220  1.00  0.00     0.030 A 
HETATM    4  C   UNL     1      44.244 -20.574   3.646  1.00  0.00     0.063 A 
HETATM    5  N   UNL     1      44.660 -21.383   4.667  1.00  0.00    -0.277 N 
HETATM    6  H   UNL     1      44.890 -22.368   4.614  1.00  0.00     0.189 HD
HETATM    7  N   UNL     1      44.756 -20.772   5.858  1.00  0.00    -0.168 NA
HETATM    8  C   UNL     1      44.386 -19.497   5.600  1.00  0.00     0.156 A 
HETATM    9  C   UNL     1      44.018 -20.834   2.294  1.00  0.00     0.034 A 
HETATM   10  C   UNL     1      43.580 -19.763   1.506  1.00  0.00     0.032 A 
ENDROOT
BRANCH   1  11
HETATM   11  N   UNL     1      42.911 -17.490   1.152  1.00  0.00    -0.327 N 
HETATM   12  C   UNL     1      41.607 -17.058   0.985  1.00  0.00     0.223 C 
HETATM   13  O   UNL     1      40.637 -17.386   1.658  1.00  0.00    -0.273 OA
HETATM   14  H   UNL     1      43.614 -17.045   0.578  1.00  0.00     0.169 HD
BRANCH  12  15
HETATM   15  C   UNL     1      41.445 -16.100  -0.186  1.00  0.00     0.116 C 
BRANCH  15  16
HETATM   16  C   UNL     1      41.198 -14.621   0.222  1.00  0.00    -0.012 C 
HETATM   17  C   UNL     1      41.987 -14.303   1.517  1.00  0.00     0.020 C 
HETATM   18  C   UNL     1      39.706 -14.360   0.539  1.00  0.00     0.020 C 
BRANCH  16  19
HETATM   19  C   UNL     1      41.616 -13.726  -0.969  1.00  0.00    -0.050 A 
HETATM   20  C   UNL     1      42.268 -12.493  -0.797  1.00  0.00     0.008 A 
HETATM   21  C   UNL     1      42.633 -11.704  -1.893  1.00  0.00     0.001 A 
HETATM   22  C   UNL     1      42.363 -12.133  -3.188  1.00  0.00     0.000 A 
HETATM   23  C   UNL     1      41.730 -13.354  -3.389  1.00  0.00     0.001 A 
HETATM   24  C   UNL     1      41.363 -14.141  -2.293  1.00  0.00     0.008 A 
ENDBRANCH  16  19
ENDBRANCH  15  16
ENDBRANCH  12  15
ENDBRANCH   1  11
BRANCH   8  25
HETATM   25  C   UNL     1      44.349 -18.485   6.665  1.00  0.00     0.270 C 
HETATM   26  N   UNL     1      43.537 -18.812   7.717  1.00  0.00    -0.365 N 
HETATM   27  H   UNL     1      43.034 -19.692   7.686  1.00  0.00     0.159 HD
HETATM   28  H   UNL     1      43.443 -18.176   8.492  1.00  0.00     0.159 HD
HETATM   29  O   UNL     1      44.969 -17.428   6.649  1.00  0.00    -0.266 OA
ENDBRANCH   8  25
TORSDOF 5
ENDMDL
MODEL 10
REMARK VINA RESULT:      -7.7      3.657      7.841
REMARK  5 active torsions:
REMARK  status: ('A' for Active; 'I' for Inactive)
REMARK    1  A    between atoms: C_2  and  C_3 
REMARK    2  A    between atoms: C_2  and  C_9 
REMARK    3  A    between atoms: C_9  and  C_10 
REMARK       I    between atoms: C_10  and  N_11 
REMARK    4  A    between atoms: N_11  and  C_12 
REMARK    5  A    between atoms: C_19  and  C_20 
REMARK       I    between atoms: C_20  and  N_21 
ROOT
HETATM    1  C   UNL     1      43.502 -17.918   3.631  1.00  0.00     0.035 A 
HETATM    2  C   UNL     1      43.917 -19.084   4.289  1.00  0.00     0.046 A 
HETATM    3  C   UNL     1      44.120 -20.269   3.548  1.00  0.00     0.030 A 
HETATM    4  C   UNL     1      43.907 -20.246   2.176  1.00  0.00     0.063 A 
HETATM    5  N   UNL     1      44.180 -21.515   1.744  1.00  0.00    -0.277 N 
HETATM    6  H   UNL     1      44.129 -21.864   0.795  1.00  0.00     0.189 HD
HETATM    7  N   UNL     1      44.546 -22.366   2.716  1.00  0.00    -0.168 NA
HETATM    8  C   UNL     1      44.512 -21.612   3.838  1.00  0.00     0.156 A 
HETATM    9  C   UNL     1      43.498 -19.104   1.486  1.00  0.00     0.034 A 
HETATM   10  C   UNL     1      43.296 -17.943   2.244  1.00  0.00     0.032 A 
ENDROOT
BRANCH   1  11
HETATM   11  N   UNL     1      43.238 -16.697   4.288  1.00  0.00    -0.327 N 
HETATM   12  C   UNL     1      42.033 -16.264   4.811  1.00  0.00     0.223 C 
HETATM   13  O   UNL     1      40.996 -16.912   4.891  1.00  0.00    -0.273 OA
HETATM   14  H   UNL     1      44.027 -16.073   4.389  1.00  0.00     0.169 HD
BRANCH  12  15
HETATM   15  C   UNL     1      42.079 -14.820   5.291  1.00  0.00     0.116 C 
BRANCH  15  16
HETATM   16  C   UNL     1      42.292 -13.774   4.162  1.00  0.00    -0.012 C 
HETATM   17  C   UNL     1      43.774 -13.792   3.712  1.00  0.00     0.020 C 
HETATM   18  C   UNL     1      41.997 -12.337   4.655  1.00  0.00     0.020 C 
BRANCH  16  19
HETATM   19  C   UNL     1      41.312 -14.114   3.012  1.00  0.00    -0.050 A 
HETATM   20  C   UNL     1      39.917 -14.021   3.155  1.00  0.00     0.008 A 
HETATM   21  C   UNL     1      39.056 -14.336   2.099  1.00  0.00     0.001 A 
HETATM   22  C   UNL     1      39.568 -14.744   0.872  1.00  0.00     0.000 A 
HETATM   23  C   UNL     1      40.944 -14.833   0.699  1.00  0.00     0.001 A 
HETATM   24  C   UNL     1      41.805 -14.521   1.755  1.00  0.00     0.008 A 
ENDBRANCH  16  19
ENDBRANCH  15  16
ENDBRANCH  12  15
ENDBRANCH   1  11
BRANCH   8  25
HETATM   25  C   UNL     1      44.847 -22.184   5.149  1.00  0.00     0.270 C 
HETATM   26  N   UNL     1      45.849 -23.116   5.112  1.00  0.00    -0.365 N 
HETATM   27  H   UNL     1      46.270 -23.340   4.217  1.00  0.00     0.159 HD
HETATM   28  H   UNL     1      46.143 -23.568   5.963  1.00  0.00     0.159 HD
HETATM   29  O   UNL     1      44.300 -21.887   6.205  1.00  0.00    -0.266 OA
ENDBRANCH   8  25
TORSDOF 5
ENDMDL
