MODEL 1
REMARK VINA RESULT:      -9.3      0.000      0.000
REMARK  11 active torsions:
REMARK  status: ('A' for Active; 'I' for Inactive)
REMARK    1  A    between atoms: N_13  and  C_14 
REMARK    2  A    between atoms: C_14  and  C_15 
REMARK    3  A    between atoms: N_20  and  C_21 
REMARK    4  A    between atoms: C_21  and  C_22 
REMARK    5  A    between atoms: C_22  and  O_23 
REMARK    6  A    between atoms: C_22  and  C_24 
REMARK    7  A    between atoms: C_24  and  N_25 
REMARK    8  A    between atoms: N_25  and  C_27 
REMARK    9  A    between atoms: N_25  and  C_34 
REMARK   10  A    between atoms: C_27  and  C_28 
REMARK   11  A    between atoms: C_34  and  C_35 
ROOT
HETATM    1  C   UNL     1      37.949 -10.230   1.771  1.00  0.00     0.163 C 
HETATM    2  N   UNL     1      38.590 -11.293   2.528  1.00  0.00    -0.285 N 
HETATM    3  C   UNL     1      38.552 -11.288   3.926  1.00  0.00     0.332 A 
HETATM    4  O   UNL     1      37.991 -10.390   4.557  1.00  0.00    -0.246 OA
HETATM    5  N   UNL     1      39.207 -12.350   4.587  1.00  0.00    -0.269 N 
HETATM    6  C   UNL     1      39.193 -12.351   6.038  1.00  0.00     0.164 C 
HETATM    7  C   UNL     1      39.983 -13.329   3.968  1.00  0.00     0.282 A 
HETATM    8  O   UNL     1      40.688 -14.146   4.558  1.00  0.00    -0.265 OA
HETATM    9  C   UNL     1      39.934 -13.265   2.551  1.00  0.00     0.166 A 
HETATM   10  C   UNL     1      39.278 -12.286   1.875  1.00  0.00     0.186 A 
HETATM   11  N   UNL     1      39.455 -12.399   0.533  1.00  0.00    -0.044 NA
HETATM   12  C   UNL     1      40.210 -13.464   0.367  1.00  0.00     0.705 A 
HETATM   13  N   UNL     1      40.698 -13.946  -0.794  1.00  0.00    -0.218 N 
HETATM   14  N   UNL     1      40.524 -14.035   1.583  1.00  0.00    -0.170 N 
HETATM   15  H   UNL     1      40.830 -14.946  -0.917  1.00  0.00     0.178 HD
ENDROOT
BRANCH  14  16
HETATM   16  C   UNL     1      41.427 -15.148   1.833  1.00  0.00     0.181 C 
BRANCH  16  17
HETATM   17  C   UNL     1      40.775 -16.478   1.441  1.00  0.00     0.163 C 
BRANCH  17  18
HETATM   18  O   UNL     1      39.512 -16.641   2.094  1.00  0.00    -0.392 OA
HETATM   19  H   UNL     1      39.166 -17.535   1.879  1.00  0.00     0.210 HD
ENDBRANCH  17  18
BRANCH  17  20
HETATM   20  C   UNL     1      41.682 -17.696   1.731  1.00  0.00     0.268 C 
BRANCH  20  21
HETATM   21  N   UNL     1      42.668 -17.530   2.893  1.00  0.00    -0.061 N 
HETATM   22  H   UNL     1      42.816 -16.534   3.070  1.00  0.00     0.280 HD
BRANCH  21  23
HETATM   23  C   UNL     1      42.150 -18.134   4.192  1.00  0.00     0.273 C 
BRANCH  23  24
HETATM   24  C   UNL     1      42.696 -17.512   5.451  1.00  0.00    -0.033 A 
HETATM   25  C   UNL     1      42.774 -18.251   6.642  1.00  0.00     0.009 A 
HETATM   26  C   UNL     1      43.267 -17.660   7.807  1.00  0.00     0.001 A 
HETATM   27  C   UNL     1      43.689 -16.332   7.791  1.00  0.00     0.000 A 
HETATM   28  C   UNL     1      43.625 -15.592   6.613  1.00  0.00     0.001 A 
HETATM   29  C   UNL     1      43.131 -16.177   5.447  1.00  0.00     0.009 A 
ENDBRANCH  23  24
ENDBRANCH  21  23
BRANCH  21  30
HETATM   30  C   UNL     1      44.036 -18.084   2.506  1.00  0.00     0.273 C 
BRANCH  30  31
HETATM   31  C   UNL     1      44.161 -19.569   2.735  1.00  0.00    -0.033 A 
HETATM   32  C   UNL     1      44.730 -20.058   3.923  1.00  0.00     0.009 A 
HETATM   33  C   UNL     1      44.859 -21.433   4.130  1.00  0.00     0.001 A 
HETATM   34  C   UNL     1      44.421 -22.328   3.158  1.00  0.00     0.000 A 
HETATM   35  C   UNL     1      43.846 -21.855   1.980  1.00  0.00     0.001 A 
HETATM   36  C   UNL     1      43.714 -20.482   1.769  1.00  0.00     0.009 A 
ENDBRANCH  30  31
ENDBRANCH  21  30
ENDBRANCH  20  21
ENDBRANCH  17  20
ENDBRANCH  16  17
ENDBRANCH  14  16
BRANCH  13  37
HETATM   37  C   UNL     1      40.141 -13.379  -2.028  1.00  0.00     0.203 C 
BRANCH  37  38
HETATM   38  C   UNL     1      39.400 -14.377  -2.856  1.00  0.00     0.070 A 
HETATM   39  O   UNL     1      38.035 -14.267  -2.891  1.00  0.00    -0.325 OA
HETATM   40  C   UNL     1      37.583 -15.250  -3.712  1.00  0.00     0.142 A 
HETATM   41  C   UNL     1      38.631 -15.990  -4.204  1.00  0.00     0.027 A 
HETATM   42  C   UNL     1      39.807 -15.428  -3.652  1.00  0.00     0.036 A 
ENDBRANCH  37  38
ENDBRANCH  13  37
TORSDOF 11
ENDMDL
MODEL 2
REMARK VINA RESULT:      -9.2      1.355      3.775
REMARK  11 active torsions:
REMARK  status: ('A' for Active; 'I' for Inactive)
REMARK    1  A    between atoms: N_13  and  C_14 
REMARK    2  A    between atoms: C_14  and  C_15 
REMARK    3  A    between atoms: N_20  and  C_21 
REMARK    4  A    between atoms: C_21  and  C_22 
REMARK    5  A    between atoms: C_22  and  O_23 
REMARK    6  A    between atoms: C_22  and  C_24 
REMARK    7  A    between atoms: C_24  and  N_25 
REMARK    8  A    between atoms: N_25  and  C_27 
REMARK    9  A    between atoms: N_25  and  C_34 
REMARK   10  A    between atoms: C_27  and  C_28 
REMARK   11  A    between atoms: C_34  and  C_35 
ROOT
HETATM    1  C   UNL     1      41.119 -10.087   1.359  1.00  0.00     0.163 C 
HETATM    2  N   UNL     1      40.717 -11.194   2.211  1.00  0.00    -0.285 N 
HETATM    3  C   UNL     1      40.738 -11.061   3.602  1.00  0.00     0.332 A 
HETATM    4  O   UNL     1      41.104 -10.018   4.149  1.00  0.00    -0.246 OA
HETATM    5  N   UNL     1      40.342 -12.185   4.359  1.00  0.00    -0.269 N 
HETATM    6  C   UNL     1      40.376 -12.070   5.804  1.00  0.00     0.164 C 
HETATM    7  C   UNL     1      40.048 -13.445   3.838  1.00  0.00     0.282 A 
HETATM    8  O   UNL     1      39.872 -14.461   4.507  1.00  0.00    -0.265 OA
HETATM    9  C   UNL     1      40.024 -13.469   2.418  1.00  0.00     0.166 A 
HETATM   10  C   UNL     1      40.355 -12.396   1.653  1.00  0.00     0.186 A 
HETATM   11  N   UNL     1      40.338 -12.701   0.329  1.00  0.00    -0.044 NA
HETATM   12  C   UNL     1      39.977 -13.964   0.265  1.00  0.00     0.705 A 
HETATM   13  N   UNL     1      39.874 -14.729  -0.842  1.00  0.00    -0.218 N 
HETATM   14  N   UNL     1      39.766 -14.478   1.528  1.00  0.00    -0.170 N 
HETATM   15  H   UNL     1      39.174 -15.464  -0.891  1.00  0.00     0.178 HD
ENDROOT
BRANCH  14  16
HETATM   16  C   UNL     1      39.473 -15.857   1.887  1.00  0.00     0.181 C 
BRANCH  16  17
HETATM   17  C   UNL     1      40.700 -16.749   1.671  1.00  0.00     0.163 C 
BRANCH  17  18
HETATM   18  O   UNL     1      40.457 -17.713   0.642  1.00  0.00    -0.392 OA
HETATM   19  H   UNL     1      40.056 -17.251  -0.126  1.00  0.00     0.210 HD
ENDBRANCH  17  18
BRANCH  17  20
HETATM   20  C   UNL     1      41.157 -17.461   2.965  1.00  0.00     0.268 C 
BRANCH  20  21
HETATM   21  N   UNL     1      42.650 -17.351   3.295  1.00  0.00    -0.061 N 
HETATM   22  H   UNL     1      42.821 -17.752   4.219  1.00  0.00     0.280 HD
BRANCH  21  23
HETATM   23  C   UNL     1      43.524 -18.120   2.313  1.00  0.00     0.273 C 
BRANCH  23  24
HETATM   24  C   UNL     1      43.933 -19.499   2.764  1.00  0.00    -0.033 A 
HETATM   25  C   UNL     1      43.815 -20.601   1.901  1.00  0.00     0.009 A 
HETATM   26  C   UNL     1      44.182 -21.876   2.334  1.00  0.00     0.001 A 
HETATM   27  C   UNL     1      44.671 -22.061   3.626  1.00  0.00     0.000 A 
HETATM   28  C   UNL     1      44.800 -20.975   4.486  1.00  0.00     0.001 A 
HETATM   29  C   UNL     1      44.433 -19.698   4.060  1.00  0.00     0.009 A 
ENDBRANCH  23  24
ENDBRANCH  21  23
BRANCH  21  30
HETATM   30  C   UNL     1      43.059 -15.884   3.403  1.00  0.00     0.273 C 
BRANCH  30  31
HETATM   31  C   UNL     1      43.486 -15.490   4.794  1.00  0.00    -0.033 A 
HETATM   32  C   UNL     1      43.637 -16.466   5.793  1.00  0.00     0.009 A 
HETATM   33  C   UNL     1      44.019 -16.099   7.085  1.00  0.00     0.001 A 
HETATM   34  C   UNL     1      44.256 -14.762   7.390  1.00  0.00     0.000 A 
HETATM   35  C   UNL     1      44.119 -13.786   6.404  1.00  0.00     0.001 A 
HETATM   36  C   UNL     1      43.739 -14.147   5.111  1.00  0.00     0.009 A 
ENDBRANCH  30  31
ENDBRANCH  21  30
ENDBRANCH  20  21
ENDBRANCH  17  20
ENDBRANCH  16  17
ENDBRANCH  14  16
BRANCH  13  37
HETATM   37  C   UNL     1      39.928 -14.030  -2.132  1.00  0.00     0.203 C 
BRANCH  37  38
HETATM   38  C   UNL     1      38.671 -14.159  -2.929  1.00  0.00     0.070 A 
HETATM   39  O   UNL     1      37.967 -13.009  -3.170  1.00  0.00    -0.325 OA
HETATM   40  C   UNL     1      36.891 -13.359  -3.921  1.00  0.00     0.142 A 
HETATM   41  C   UNL     1      36.891 -14.712  -4.166  1.00  0.00     0.027 A 
HETATM   42  C   UNL     1      38.041 -15.231  -3.525  1.00  0.00     0.036 A 
ENDBRANCH  37  38
ENDBRANCH  13  37
TORSDOF 11
ENDMDL
MODEL 3
REMARK VINA RESULT:      -9.1      2.440      6.188
REMARK  11 active torsions:
REMARK  status: ('A' for Active; 'I' for Inactive)
REMARK    1  A    between atoms: N_13  and  C_14 
REMARK    2  A    between atoms: C_14  and  C_15 
REMARK    3  A    between atoms: N_20  and  C_21 
REMARK    4  A    between atoms: C_21  and  C_22 
REMARK    5  A    between atoms: C_22  and  O_23 
REMARK    6  A    between atoms: C_22  and  C_24 
REMARK    7  A    between atoms: C_24  and  N_25 
REMARK    8  A    between atoms: N_25  and  C_27 
REMARK    9  A    between atoms: N_25  and  C_34 
REMARK   10  A    between atoms: C_27  and  C_28 
REMARK   11  A    between atoms: C_34  and  C_35 
ROOT
HETATM    1  C   UNL     1      41.808  -9.795  -0.109  1.00  0.00     0.163 C 
HETATM    2  N   UNL     1      41.540 -11.154  -0.551  1.00  0.00    -0.285 N 
HETATM    3  C   UNL     1      41.270 -11.421  -1.897  1.00  0.00     0.332 A 
HETATM    4  O   UNL     1      41.239 -10.524  -2.742  1.00  0.00    -0.246 OA
HETATM    5  N   UNL     1      41.010 -12.764  -2.242  1.00  0.00    -0.269 N 
HETATM    6  C   UNL     1      40.710 -13.056  -3.631  1.00  0.00     0.164 C 
HETATM    7  C   UNL     1      40.884 -13.820  -1.339  1.00  0.00     0.282 A 
HETATM    8  O   UNL     1      40.490 -14.949  -1.626  1.00  0.00    -0.265 OA
HETATM    9  C   UNL     1      41.206 -13.453  -0.006  1.00  0.00     0.166 A 
HETATM   10  C   UNL     1      41.505 -12.180   0.361  1.00  0.00     0.186 A 
HETATM   11  N   UNL     1      41.689 -12.076   1.703  1.00  0.00    -0.044 NA
HETATM   12  C   UNL     1      41.521 -13.293   2.176  1.00  0.00     0.705 A 
HETATM   13  N   UNL     1      41.551 -13.678   3.468  1.00  0.00    -0.218 N 
HETATM   14  N   UNL     1      41.228 -14.177   1.158  1.00  0.00    -0.170 N 
HETATM   15  H   UNL     1      41.892 -14.602   3.718  1.00  0.00     0.178 HD
ENDROOT
BRANCH  14  16
HETATM   16  C   UNL     1      40.862 -15.579   1.279  1.00  0.00     0.181 C 
BRANCH  16  17
HETATM   17  C   UNL     1      42.101 -16.477   1.190  1.00  0.00     0.163 C 
BRANCH  17  18
HETATM   18  O   UNL     1      42.494 -16.673  -0.172  1.00  0.00    -0.392 OA
HETATM   19  H   UNL     1      41.862 -16.189  -0.748  1.00  0.00     0.210 HD
ENDBRANCH  17  18
BRANCH  17  20
HETATM   20  C   UNL     1      41.900 -17.843   1.884  1.00  0.00     0.268 C 
BRANCH  20  21
HETATM   21  N   UNL     1      42.905 -18.182   2.990  1.00  0.00    -0.061 N 
HETATM   22  H   UNL     1      42.471 -18.827   3.655  1.00  0.00     0.280 HD
BRANCH  21  23
HETATM   23  C   UNL     1      44.151 -18.877   2.456  1.00  0.00     0.273 C 
BRANCH  23  24
HETATM   24  C   UNL     1      44.391 -20.264   2.992  1.00  0.00    -0.033 A 
HETATM   25  C   UNL     1      44.307 -21.385   2.150  1.00  0.00     0.009 A 
HETATM   26  C   UNL     1      44.515 -22.667   2.661  1.00  0.00     0.001 A 
HETATM   27  C   UNL     1      44.812 -22.841   4.011  1.00  0.00     0.000 A 
HETATM   28  C   UNL     1      44.907 -21.737   4.853  1.00  0.00     0.001 A 
HETATM   29  C   UNL     1      44.697 -20.454   4.349  1.00  0.00     0.009 A 
ENDBRANCH  23  24
ENDBRANCH  21  23
BRANCH  21  30
HETATM   30  C   UNL     1      43.244 -16.931   3.796  1.00  0.00     0.273 C 
BRANCH  30  31
HETATM   31  C   UNL     1      43.371 -17.196   5.275  1.00  0.00    -0.033 A 
HETATM   32  C   UNL     1      44.603 -17.591   5.821  1.00  0.00     0.009 A 
HETATM   33  C   UNL     1      44.719 -17.850   7.189  1.00  0.00     0.001 A 
HETATM   34  C   UNL     1      43.610 -17.715   8.020  1.00  0.00     0.000 A 
HETATM   35  C   UNL     1      42.385 -17.314   7.491  1.00  0.00     0.001 A 
HETATM   36  C   UNL     1      42.265 -17.053   6.125  1.00  0.00     0.009 A 
ENDBRANCH  30  31
ENDBRANCH  21  30
ENDBRANCH  20  21
ENDBRANCH  17  20
ENDBRANCH  16  17
ENDBRANCH  14  16
BRANCH  13  37
HETATM   37  C   UNL     1      42.062 -12.699   4.435  1.00  0.00     0.203 C 
BRANCH  37  38
HETATM   38  C   UNL     1      43.080 -13.266   5.369  1.00  0.00     0.070 A 
HETATM   39  O   UNL     1      44.294 -13.607   4.835  1.00  0.00    -0.325 OA
HETATM   40  C   UNL     1      45.057 -14.072   5.858  1.00  0.00     0.142 A 
HETATM   41  C   UNL     1      44.356 -14.036   7.039  1.00  0.00     0.027 A 
HETATM   42  C   UNL     1      43.077 -13.516   6.726  1.00  0.00     0.036 A 
ENDBRANCH  37  38
ENDBRANCH  13  37
TORSDOF 11
ENDMDL
MODEL 4
REMARK VINA RESULT:      -9.1      2.238      6.211
REMARK  11 active torsions:
REMARK  status: ('A' for Active; 'I' for Inactive)
REMARK    1  A    between atoms: N_13  and  C_14 
REMARK    2  A    between atoms: C_14  and  C_15 
REMARK    3  A    between atoms: N_20  and  C_21 
REMARK    4  A    between atoms: C_21  and  C_22 
REMARK    5  A    between atoms: C_22  and  O_23 
REMARK    6  A    between atoms: C_22  and  C_24 
REMARK    7  A    between atoms: C_24  and  N_25 
REMARK    8  A    between atoms: N_25  and  C_27 
REMARK    9  A    between atoms: N_25  and  C_34 
REMARK   10  A    between atoms: C_27  and  C_28 
REMARK   11  A    between atoms: C_34  and  C_35 
ROOT
HETATM    1  C   UNL     1      43.032  -9.450  -0.274  1.00  0.00     0.163 C 
HETATM    2  N   UNL     1      42.532 -10.705  -0.812  1.00  0.00    -0.285 N 
HETATM    3  C   UNL     1      42.439 -10.894  -2.195  1.00  0.00     0.332 A 
HETATM    4  O   UNL     1      42.761 -10.013  -2.994  1.00  0.00    -0.246 OA
HETATM    5  N   UNL     1      41.934 -12.136  -2.637  1.00  0.00    -0.269 N 
HETATM    6  C   UNL     1      41.813 -12.343  -4.068  1.00  0.00     0.164 C 
HETATM    7  C   UNL     1      41.415 -13.135  -1.814  1.00  0.00     0.282 A 
HETATM    8  O   UNL     1      40.822 -14.137  -2.210  1.00  0.00    -0.265 OA
HETATM    9  C   UNL     1      41.583 -12.861  -0.432  1.00  0.00     0.166 A 
HETATM   10  C   UNL     1      42.105 -11.697   0.035  1.00  0.00     0.186 A 
HETATM   11  N   UNL     1      42.079 -11.646   1.393  1.00  0.00    -0.044 NA
HETATM   12  C   UNL     1      41.555 -12.789   1.777  1.00  0.00     0.705 A 
HETATM   13  N   UNL     1      41.275 -13.176   3.039  1.00  0.00    -0.218 N 
HETATM   14  N   UNL     1      41.240 -13.574   0.687  1.00  0.00    -0.170 N 
HETATM   15  H   UNL     1      41.344 -14.156   3.300  1.00  0.00     0.178 HD
ENDROOT
BRANCH  14  16
HETATM   16  C   UNL     1      40.541 -14.850   0.686  1.00  0.00     0.181 C 
BRANCH  16  17
HETATM   17  C   UNL     1      41.533 -16.016   0.749  1.00  0.00     0.163 C 
BRANCH  17  18
HETATM   18  O   UNL     1      41.885 -16.461  -0.565  1.00  0.00    -0.392 OA
HETATM   19  H   UNL     1      41.863 -15.687  -1.169  1.00  0.00     0.210 HD
ENDBRANCH  17  18
BRANCH  17  20
HETATM   20  C   UNL     1      41.006 -17.204   1.586  1.00  0.00     0.268 C 
BRANCH  20  21
HETATM   21  N   UNL     1      41.733 -17.458   2.912  1.00  0.00    -0.061 N 
HETATM   22  H   UNL     1      41.364 -18.311   3.340  1.00  0.00     0.280 HD
BRANCH  21  23
HETATM   23  C   UNL     1      43.230 -17.671   2.728  1.00  0.00     0.273 C 
BRANCH  23  24
HETATM   24  C   UNL     1      43.709 -19.082   2.953  1.00  0.00    -0.033 A 
HETATM   25  C   UNL     1      44.307 -19.452   4.168  1.00  0.00     0.009 A 
HETATM   26  C   UNL     1      44.761 -20.757   4.361  1.00  0.00     0.001 A 
HETATM   27  C   UNL     1      44.619 -21.703   3.348  1.00  0.00     0.000 A 
HETATM   28  C   UNL     1      44.019 -21.350   2.143  1.00  0.00     0.001 A 
HETATM   29  C   UNL     1      43.565 -20.046   1.943  1.00  0.00     0.009 A 
ENDBRANCH  23  24
ENDBRANCH  21  23
BRANCH  21  30
HETATM   30  C   UNL     1      41.428 -16.339   3.903  1.00  0.00     0.273 C 
BRANCH  30  31
HETATM   31  C   UNL     1      42.229 -16.441   5.176  1.00  0.00    -0.033 A 
HETATM   32  C   UNL     1      41.914 -17.416   6.136  1.00  0.00     0.009 A 
HETATM   33  C   UNL     1      42.646 -17.502   7.322  1.00  0.00     0.001 A 
HETATM   34  C   UNL     1      43.696 -16.620   7.559  1.00  0.00     0.000 A 
HETATM   35  C   UNL     1      44.024 -15.654   6.610  1.00  0.00     0.001 A 
HETATM   36  C   UNL     1      43.296 -15.565   5.422  1.00  0.00     0.009 A 
ENDBRANCH  30  31
ENDBRANCH  21  30
ENDBRANCH  20  21
ENDBRANCH  17  20
ENDBRANCH  16  17
ENDBRANCH  14  16
BRANCH  13  37
HETATM   37  C   UNL     1      41.830 -12.351   4.119  1.00  0.00     0.203 C 
BRANCH  37  38
HETATM   38  C   UNL     1      40.929 -12.244   5.306  1.00  0.00     0.070 A 
HETATM   39  O   UNL     1      40.920 -11.050   5.975  1.00  0.00    -0.325 OA
HETATM   40  C   UNL     1      40.024 -11.175   6.988  1.00  0.00     0.142 A 
HETATM   41  C   UNL     1      39.458 -12.427   6.982  1.00  0.00     0.027 A 
HETATM   42  C   UNL     1      40.042 -13.121   5.895  1.00  0.00     0.036 A 
ENDBRANCH  37  38
ENDBRANCH  13  37
TORSDOF 11
ENDMDL
MODEL 5
REMARK VINA RESULT:      -9.0      1.616      3.961
REMARK  11 active torsions:
REMARK  status: ('A' for Active; 'I' for Inactive)
REMARK    1  A    between atoms: N_13  and  C_14 
REMARK    2  A    between atoms: C_14  and  C_15 
REMARK    3  A    between atoms: N_20  and  C_21 
REMARK    4  A    between atoms: C_21  and  C_22 
REMARK    5  A    between atoms: C_22  and  O_23 
REMARK    6  A    between atoms: C_22  and  C_24 
REMARK    7  A    between atoms: C_24  and  N_25 
REMARK    8  A    between atoms: N_25  and  C_27 
REMARK    9  A    between atoms: N_25  and  C_34 
REMARK   10  A    between atoms: C_27  and  C_28 
REMARK   11  A    between atoms: C_34  and  C_35 
ROOT
HETATM    1  C   UNL     1      40.534  -9.797   1.923  1.00  0.00     0.163 C 
HETATM    2  N   UNL     1      40.364 -11.018   2.694  1.00  0.00    -0.285 N 
HETATM    3  C   UNL     1      40.606 -11.026   4.071  1.00  0.00     0.332 A 
HETATM    4  O   UNL     1      40.979 -10.015   4.670  1.00  0.00    -0.246 OA
HETATM    5  N   UNL     1      40.428 -12.253   4.745  1.00  0.00    -0.269 N 
HETATM    6  C   UNL     1      40.693 -12.284   6.170  1.00  0.00     0.164 C 
HETATM    7  C   UNL     1      40.147 -13.475   4.134  1.00  0.00     0.282 A 
HETATM    8  O   UNL     1      40.162 -14.566   4.701  1.00  0.00    -0.265 OA
HETATM    9  C   UNL     1      39.890 -13.357   2.743  1.00  0.00     0.166 A 
HETATM   10  C   UNL     1      40.007 -12.185   2.065  1.00  0.00     0.186 A 
HETATM   11  N   UNL     1      39.792 -12.354   0.734  1.00  0.00    -0.044 NA
HETATM   12  C   UNL     1      39.522 -13.632   0.581  1.00  0.00     0.705 A 
HETATM   13  N   UNL     1      39.294 -14.286  -0.577  1.00  0.00    -0.218 N 
HETATM   14  N   UNL     1      39.564 -14.289   1.794  1.00  0.00    -0.170 N 
HETATM   15  H   UNL     1      38.654 -15.075  -0.600  1.00  0.00     0.178 HD
ENDROOT
BRANCH  14  16
HETATM   16  C   UNL     1      39.440 -15.719   2.032  1.00  0.00     0.181 C 
BRANCH  16  17
HETATM   17  C   UNL     1      40.744 -16.446   1.684  1.00  0.00     0.163 C 
BRANCH  17  18
HETATM   18  O   UNL     1      40.637 -17.114   0.424  1.00  0.00    -0.392 OA
HETATM   19  H   UNL     1      40.608 -16.435  -0.285  1.00  0.00     0.210 HD
ENDBRANCH  17  18
BRANCH  17  20
HETATM   20  C   UNL     1      41.181 -17.446   2.778  1.00  0.00     0.268 C 
BRANCH  20  21
HETATM   21  N   UNL     1      42.657 -17.384   3.186  1.00  0.00    -0.061 N 
HETATM   22  H   UNL     1      42.766 -17.786   4.120  1.00  0.00     0.280 HD
BRANCH  21  23
HETATM   23  C   UNL     1      43.556 -18.190   2.255  1.00  0.00     0.273 C 
BRANCH  23  24
HETATM   24  C   UNL     1      43.936 -19.558   2.758  1.00  0.00    -0.033 A 
HETATM   25  C   UNL     1      44.319 -19.752   4.094  1.00  0.00     0.009 A 
HETATM   26  C   UNL     1      44.685 -21.021   4.546  1.00  0.00     0.001 A 
HETATM   27  C   UNL     1      44.666 -22.105   3.671  1.00  0.00     0.000 A 
HETATM   28  C   UNL     1      44.279 -21.927   2.346  1.00  0.00     0.001 A 
HETATM   29  C   UNL     1      43.915 -20.660   1.888  1.00  0.00     0.009 A 
ENDBRANCH  23  24
ENDBRANCH  21  23
BRANCH  21  30
HETATM   30  C   UNL     1      43.110 -15.932   3.309  1.00  0.00     0.273 C 
BRANCH  30  31
HETATM   31  C   UNL     1      43.496 -15.550   4.715  1.00  0.00    -0.033 A 
HETATM   32  C   UNL     1      43.745 -14.206   5.041  1.00  0.00     0.009 A 
HETATM   33  C   UNL     1      44.117 -13.853   6.340  1.00  0.00     0.001 A 
HETATM   34  C   UNL     1      44.241 -14.832   7.321  1.00  0.00     0.000 A 
HETATM   35  C   UNL     1      43.988 -16.167   7.011  1.00  0.00     0.001 A 
HETATM   36  C   UNL     1      43.615 -16.526   5.715  1.00  0.00     0.009 A 
ENDBRANCH  30  31
ENDBRANCH  21  30
ENDBRANCH  20  21
ENDBRANCH  17  20
ENDBRANCH  16  17
ENDBRANCH  14  16
BRANCH  13  37
HETATM   37  C   UNL     1      39.081 -13.458  -1.769  1.00  0.00     0.203 C 
BRANCH  37  38
HETATM   38  C   UNL     1      40.350 -13.056  -2.446  1.00  0.00     0.070 A 
HETATM   39  O   UNL     1      41.497 -13.688  -2.046  1.00  0.00    -0.325 OA
HETATM   40  C   UNL     1      42.506 -13.187  -2.804  1.00  0.00     0.142 A 
HETATM   41  C   UNL     1      42.030 -12.244  -3.682  1.00  0.00     0.027 A 
HETATM   42  C   UNL     1      40.636 -12.157  -3.453  1.00  0.00     0.036 A 
ENDBRANCH  37  38
ENDBRANCH  13  37
TORSDOF 11
ENDMDL
MODEL 6
REMARK VINA RESULT:      -8.9      0.678      3.338
REMARK  11 active torsions:
REMARK  status: ('A' for Active; 'I' for Inactive)
REMARK    1  A    between atoms: N_13  and  C_14 
REMARK    2  A    between atoms: C_14  and  C_15 
REMARK    3  A    between atoms: N_20  and  C_21 
REMARK    4  A    between atoms: C_21  and  C_22 
REMARK    5  A    between atoms: C_22  and  O_23 
REMARK    6  A    between atoms: C_22  and  C_24 
REMARK    7  A    between atoms: C_24  and  N_25 
REMARK    8  A    between atoms: N_25  and  C_27 
REMARK    9  A    between atoms: N_25  and  C_34 
REMARK   10  A    between atoms: C_27  and  C_28 
REMARK   11  A    between atoms: C_34  and  C_35 
ROOT
HETATM    1  C   UNL     1      37.748 -10.482   1.803  1.00  0.00     0.163 C 
HETATM    2  N   UNL     1      38.573 -11.417   2.548  1.00  0.00    -0.285 N 
HETATM    3  C   UNL     1      38.590 -11.389   3.946  1.00  0.00     0.332 A 
HETATM    4  O   UNL     1      37.924 -10.573   4.586  1.00  0.00    -0.246 OA
HETATM    5  N   UNL     1      39.426 -12.324   4.595  1.00  0.00    -0.269 N 
HETATM    6  C   UNL     1      39.469 -12.296   6.044  1.00  0.00     0.164 C 
HETATM    7  C   UNL     1      40.318 -13.186   3.958  1.00  0.00     0.282 A 
HETATM    8  O   UNL     1      41.163 -13.873   4.530  1.00  0.00    -0.265 OA
HETATM    9  C   UNL     1      40.204 -13.161   2.544  1.00  0.00     0.166 A 
HETATM   10  C   UNL     1      39.379 -12.308   1.882  1.00  0.00     0.186 A 
HETATM   11  N   UNL     1      39.518 -12.421   0.535  1.00  0.00    -0.044 NA
HETATM   12  C   UNL     1      40.420 -13.362   0.353  1.00  0.00     0.705 A 
HETATM   13  N   UNL     1      40.930 -13.788  -0.821  1.00  0.00    -0.218 N 
HETATM   14  N   UNL     1      40.866 -13.852   1.563  1.00  0.00    -0.170 N 
HETATM   15  H   UNL     1      41.208 -14.759  -0.934  1.00  0.00     0.178 HD
ENDROOT
BRANCH  14  16
HETATM   16  C   UNL     1      41.938 -14.808   1.791  1.00  0.00     0.181 C 
BRANCH  16  17
HETATM   17  C   UNL     1      41.418 -16.246   1.689  1.00  0.00     0.163 C 
BRANCH  17  18
HETATM   18  O   UNL     1      40.181 -16.293   0.972  1.00  0.00    -0.392 OA
HETATM   19  H   UNL     1      40.188 -17.090   0.396  1.00  0.00     0.210 HD
ENDBRANCH  17  18
BRANCH  17  20
HETATM   20  C   UNL     1      41.255 -16.922   3.070  1.00  0.00     0.268 C 
BRANCH  20  21
HETATM   21  N   UNL     1      42.529 -17.524   3.672  1.00  0.00    -0.061 N 
HETATM   22  H   UNL     1      42.286 -18.355   4.214  1.00  0.00     0.280 HD
BRANCH  21  23
HETATM   23  C   UNL     1      43.525 -17.969   2.608  1.00  0.00     0.273 C 
BRANCH  23  24
HETATM   24  C   UNL     1      43.829 -19.445   2.593  1.00  0.00    -0.033 A 
HETATM   25  C   UNL     1      43.202 -20.298   1.671  1.00  0.00     0.009 A 
HETATM   26  C   UNL     1      43.479 -21.666   1.677  1.00  0.00     0.001 A 
HETATM   27  C   UNL     1      44.384 -22.192   2.596  1.00  0.00     0.000 A 
HETATM   28  C   UNL     1      45.019 -21.354   3.509  1.00  0.00     0.001 A 
HETATM   29  C   UNL     1      44.744 -19.987   3.510  1.00  0.00     0.009 A 
ENDBRANCH  23  24
ENDBRANCH  21  23
BRANCH  21  30
HETATM   30  C   UNL     1      43.150 -16.551   4.671  1.00  0.00     0.273 C 
BRANCH  30  31
HETATM   31  C   UNL     1      43.366 -17.159   6.033  1.00  0.00    -0.033 A 
HETATM   32  C   UNL     1      43.305 -16.358   7.185  1.00  0.00     0.009 A 
HETATM   33  C   UNL     1      43.519 -16.917   8.446  1.00  0.00     0.001 A 
HETATM   34  C   UNL     1      43.793 -18.277   8.569  1.00  0.00     0.000 A 
HETATM   35  C   UNL     1      43.847 -19.083   7.434  1.00  0.00     0.001 A 
HETATM   36  C   UNL     1      43.632 -18.529   6.171  1.00  0.00     0.009 A 
ENDBRANCH  30  31
ENDBRANCH  21  30
ENDBRANCH  20  21
ENDBRANCH  17  20
ENDBRANCH  16  17
ENDBRANCH  14  16
BRANCH  13  37
HETATM   37  C   UNL     1      40.244 -13.339  -2.038  1.00  0.00     0.203 C 
BRANCH  37  38
HETATM   38  C   UNL     1      39.582 -14.449  -2.788  1.00  0.00     0.070 A 
HETATM   39  O   UNL     1      38.223 -14.373  -2.941  1.00  0.00    -0.325 OA
HETATM   40  C   UNL     1      37.848 -15.461  -3.663  1.00  0.00     0.142 A 
HETATM   41  C   UNL     1      38.941 -16.234  -3.976  1.00  0.00     0.027 A 
HETATM   42  C   UNL     1      40.063 -15.582  -3.410  1.00  0.00     0.036 A 
ENDBRANCH  37  38
ENDBRANCH  13  37
TORSDOF 11
ENDMDL
MODEL 7
REMARK VINA RESULT:      -8.9      2.585      6.732
REMARK  11 active torsions:
REMARK  status: ('A' for Active; 'I' for Inactive)
REMARK    1  A    between atoms: N_13  and  C_14 
REMARK    2  A    between atoms: C_14  and  C_15 
REMARK    3  A    between atoms: N_20  and  C_21 
REMARK    4  A    between atoms: C_21  and  C_22 
REMARK    5  A    between atoms: C_22  and  O_23 
REMARK    6  A    between atoms: C_22  and  C_24 
REMARK    7  A    between atoms: C_24  and  N_25 
REMARK    8  A    between atoms: N_25  and  C_27 
REMARK    9  A    between atoms: N_25  and  C_34 
REMARK   10  A    between atoms: C_27  and  C_28 
REMARK   11  A    between atoms: C_34  and  C_35 
ROOT
HETATM    1  C   UNL     1      37.856  -9.350   3.925  1.00  0.00     0.163 C 
HETATM    2  N   UNL     1      38.525 -10.586   3.552  1.00  0.00    -0.285 N 
HETATM    3  C   UNL     1      38.676 -10.930   2.205  1.00  0.00     0.332 A 
HETATM    4  O   UNL     1      38.245 -10.213   1.300  1.00  0.00    -0.246 OA
HETATM    5  N   UNL     1      39.327 -12.151   1.926  1.00  0.00    -0.269 N 
HETATM    6  C   UNL     1      39.477 -12.532   0.535  1.00  0.00     0.164 C 
HETATM    7  C   UNL     1      39.722 -13.090   2.879  1.00  0.00     0.282 A 
HETATM    8  O   UNL     1      40.130 -14.222   2.625  1.00  0.00    -0.265 OA
HETATM    9  C   UNL     1      39.554 -12.635   4.213  1.00  0.00     0.166 A 
HETATM   10  C   UNL     1      38.972 -11.447   4.523  1.00  0.00     0.186 A 
HETATM   11  N   UNL     1      38.851 -11.285   5.866  1.00  0.00    -0.044 NA
HETATM   12  C   UNL     1      39.374 -12.368   6.399  1.00  0.00     0.705 A 
HETATM   13  N   UNL     1      39.431 -12.688   7.709  1.00  0.00    -0.218 N 
HETATM   14  N   UNL     1      39.827 -13.226   5.418  1.00  0.00    -0.170 N 
HETATM   15  H   UNL     1      40.214 -13.226   8.069  1.00  0.00     0.178 HD
ENDROOT
BRANCH  14  16
HETATM   16  C   UNL     1      40.358 -14.569   5.592  1.00  0.00     0.181 C 
BRANCH  16  17
HETATM   17  C   UNL     1      41.875 -14.533   5.808  1.00  0.00     0.163 C 
BRANCH  17  18
HETATM   18  O   UNL     1      42.562 -14.288   4.577  1.00  0.00    -0.392 OA
HETATM   19  H   UNL     1      42.221 -14.916   3.903  1.00  0.00     0.210 HD
ENDBRANCH  17  18
BRANCH  17  20
HETATM   20  C   UNL     1      42.415 -15.821   6.468  1.00  0.00     0.268 C 
BRANCH  20  21
HETATM   21  N   UNL     1      43.241 -16.739   5.559  1.00  0.00    -0.061 N 
HETATM   22  H   UNL     1      43.711 -16.174   4.848  1.00  0.00     0.280 HD
BRANCH  21  23
HETATM   23  C   UNL     1      44.332 -17.486   6.317  1.00  0.00     0.273 C 
BRANCH  23  24
HETATM   24  C   UNL     1      44.330 -18.981   6.132  1.00  0.00    -0.033 A 
HETATM   25  C   UNL     1      43.715 -19.821   7.075  1.00  0.00     0.009 A 
HETATM   26  C   UNL     1      43.733 -21.206   6.902  1.00  0.00     0.001 A 
HETATM   27  C   UNL     1      44.359 -21.763   5.789  1.00  0.00     0.000 A 
HETATM   28  C   UNL     1      44.964 -20.940   4.843  1.00  0.00     0.001 A 
HETATM   29  C   UNL     1      44.951 -19.555   5.012  1.00  0.00     0.009 A 
ENDBRANCH  23  24
ENDBRANCH  21  23
BRANCH  21  30
HETATM   30  C   UNL     1      42.323 -17.684   4.790  1.00  0.00     0.273 C 
BRANCH  30  31
HETATM   31  C   UNL     1      42.372 -17.474   3.298  1.00  0.00    -0.033 A 
HETATM   32  C   UNL     1      41.185 -17.442   2.547  1.00  0.00     0.009 A 
HETATM   33  C   UNL     1      41.231 -17.262   1.163  1.00  0.00     0.001 A 
HETATM   34  C   UNL     1      42.456 -17.111   0.519  1.00  0.00     0.000 A 
HETATM   35  C   UNL     1      43.639 -17.131   1.255  1.00  0.00     0.001 A 
HETATM   36  C   UNL     1      43.599 -17.310   2.639  1.00  0.00     0.009 A 
ENDBRANCH  30  31
ENDBRANCH  21  30
ENDBRANCH  20  21
ENDBRANCH  17  20
ENDBRANCH  16  17
ENDBRANCH  14  16
BRANCH  13  37
HETATM   37  C   UNL     1      39.101 -11.622   8.662  1.00  0.00     0.203 C 
BRANCH  37  38
HETATM   38  C   UNL     1      40.294 -11.077   9.377  1.00  0.00     0.070 A 
HETATM   39  O   UNL     1      40.356 -11.282  10.730  1.00  0.00    -0.325 OA
HETATM   40  C   UNL     1      41.521 -10.729  11.158  1.00  0.00     0.142 A 
HETATM   41  C   UNL     1      42.208 -10.174  10.105  1.00  0.00     0.027 A 
HETATM   42  C   UNL     1      41.417 -10.397   8.953  1.00  0.00     0.036 A 
ENDBRANCH  37  38
ENDBRANCH  13  37
TORSDOF 11
ENDMDL
MODEL 8
REMARK VINA RESULT:      -8.6      2.122      5.240
REMARK  11 active torsions:
REMARK  status: ('A' for Active; 'I' for Inactive)
REMARK    1  A    between atoms: N_13  and  C_14 
REMARK    2  A    between atoms: C_14  and  C_15 
REMARK    3  A    between atoms: N_20  and  C_21 
REMARK    4  A    between atoms: C_21  and  C_22 
REMARK    5  A    between atoms: C_22  and  O_23 
REMARK    6  A    between atoms: C_22  and  C_24 
REMARK    7  A    between atoms: C_24  and  N_25 
REMARK    8  A    between atoms: N_25  and  C_27 
REMARK    9  A    between atoms: N_25  and  C_34 
REMARK   10  A    between atoms: C_27  and  C_28 
REMARK   11  A    between atoms: C_34  and  C_35 
ROOT
HETATM    1  C   UNL     1      43.039 -10.007  -0.338  1.00  0.00     0.163 C 
HETATM    2  N   UNL     1      42.425 -11.254  -0.766  1.00  0.00    -0.285 N 
HETATM    3  C   UNL     1      42.133 -11.473  -2.116  1.00  0.00     0.332 A 
HETATM    4  O   UNL     1      42.371 -10.624  -2.977  1.00  0.00    -0.246 OA
HETATM    5  N   UNL     1      41.528 -12.704  -2.448  1.00  0.00    -0.269 N 
HETATM    6  C   UNL     1      41.201 -12.940  -3.841  1.00  0.00     0.164 C 
HETATM    7  C   UNL     1      41.095 -13.663  -1.532  1.00  0.00     0.282 A 
HETATM    8  O   UNL     1      40.418 -14.650  -1.813  1.00  0.00    -0.265 OA
HETATM    9  C   UNL     1      41.464 -13.363  -0.195  1.00  0.00     0.166 A 
HETATM   10  C   UNL     1      42.087 -12.209   0.161  1.00  0.00     0.186 A 
HETATM   11  N   UNL     1      42.252 -12.124   1.507  1.00  0.00    -0.044 NA
HETATM   12  C   UNL     1      41.747 -13.237   1.994  1.00  0.00     0.705 A 
HETATM   13  N   UNL     1      41.633 -13.582   3.293  1.00  0.00    -0.218 N 
HETATM   14  N   UNL     1      41.256 -14.035   0.981  1.00  0.00    -0.170 N 
HETATM   15  H   UNL     1      41.704 -14.557   3.570  1.00  0.00     0.178 HD
ENDROOT
BRANCH  14  16
HETATM   16  C   UNL     1      40.520 -15.282   1.114  1.00  0.00     0.181 C 
BRANCH  16  17
HETATM   17  C   UNL     1      41.389 -16.476   0.705  1.00  0.00     0.163 C 
BRANCH  17  18
HETATM   18  O   UNL     1      40.953 -17.023  -0.543  1.00  0.00    -0.392 OA
HETATM   19  H   UNL     1      41.196 -17.975  -0.564  1.00  0.00     0.210 HD
ENDBRANCH  17  18
BRANCH  17  20
HETATM   20  C   UNL     1      41.430 -17.582   1.783  1.00  0.00     0.268 C 
BRANCH  20  21
HETATM   21  N   UNL     1      42.329 -17.302   2.992  1.00  0.00    -0.061 N 
HETATM   22  H   UNL     1      42.384 -16.293   3.144  1.00  0.00     0.280 HD
BRANCH  21  23
HETATM   23  C   UNL     1      41.788 -17.912   4.279  1.00  0.00     0.273 C 
BRANCH  23  24
HETATM   24  C   UNL     1      42.465 -17.447   5.542  1.00  0.00    -0.033 A 
HETATM   25  C   UNL     1      42.899 -18.371   6.506  1.00  0.00     0.009 A 
HETATM   26  C   UNL     1      43.511 -17.929   7.680  1.00  0.00     0.001 A 
HETATM   27  C   UNL     1      43.699 -16.566   7.899  1.00  0.00     0.000 A 
HETATM   28  C   UNL     1      43.281 -15.641   6.946  1.00  0.00     0.001 A 
HETATM   29  C   UNL     1      42.667 -16.077   5.772  1.00  0.00     0.009 A 
ENDBRANCH  23  24
ENDBRANCH  21  23
BRANCH  21  30
HETATM   30  C   UNL     1      43.759 -17.750   2.700  1.00  0.00     0.273 C 
BRANCH  30  31
HETATM   31  C   UNL     1      43.931 -19.247   2.738  1.00  0.00    -0.033 A 
HETATM   32  C   UNL     1      44.644 -19.853   3.785  1.00  0.00     0.009 A 
HETATM   33  C   UNL     1      44.816 -21.238   3.813  1.00  0.00     0.001 A 
HETATM   34  C   UNL     1      44.277 -22.028   2.802  1.00  0.00     0.000 A 
HETATM   35  C   UNL     1      43.560 -21.439   1.763  1.00  0.00     0.001 A 
HETATM   36  C   UNL     1      43.384 -20.055   1.731  1.00  0.00     0.009 A 
ENDBRANCH  30  31
ENDBRANCH  21  30
ENDBRANCH  20  21
ENDBRANCH  17  20
ENDBRANCH  16  17
ENDBRANCH  14  16
BRANCH  13  37
HETATM   37  C   UNL     1      42.362 -12.754   4.261  1.00  0.00     0.203 C 
BRANCH  37  38
HETATM   38  C   UNL     1      41.476 -12.118   5.282  1.00  0.00     0.070 A 
HETATM   39  O   UNL     1      40.529 -12.915   5.866  1.00  0.00    -0.325 OA
HETATM   40  C   UNL     1      39.866 -12.141   6.765  1.00  0.00     0.142 A 
HETATM   41  C   UNL     1      40.371 -10.863   6.768  1.00  0.00     0.027 A 
HETATM   42  C   UNL     1      41.412 -10.845   5.809  1.00  0.00     0.036 A 
ENDBRANCH  37  38
ENDBRANCH  13  37
TORSDOF 11
ENDMDL
MODEL 9
REMARK VINA RESULT:      -8.6      2.421      8.951
REMARK  11 active torsions:
REMARK  status: ('A' for Active; 'I' for Inactive)
REMARK    1  A    between atoms: N_13  and  C_14 
REMARK    2  A    between atoms: C_14  and  C_15 
REMARK    3  A    between atoms: N_20  and  C_21 
REMARK    4  A    between atoms: C_21  and  C_22 
REMARK    5  A    between atoms: C_22  and  O_23 
REMARK    6  A    between atoms: C_22  and  C_24 
REMARK    7  A    between atoms: C_24  and  N_25 
REMARK    8  A    between atoms: N_25  and  C_27 
REMARK    9  A    between atoms: N_25  and  C_34 
REMARK   10  A    between atoms: C_27  and  C_28 
REMARK   11  A    between atoms: C_34  and  C_35 
ROOT
HETATM    1  C   UNL     1      44.387 -18.843   6.915  1.00  0.00     0.163 C 
HETATM    2  N   UNL     1      44.168 -18.988   5.485  1.00  0.00    -0.285 N 
HETATM    3  C   UNL     1      44.412 -20.211   4.852  1.00  0.00     0.332 A 
HETATM    4  O   UNL     1      44.826 -21.192   5.473  1.00  0.00    -0.246 OA
HETATM    5  N   UNL     1      44.184 -20.267   3.460  1.00  0.00    -0.269 N 
HETATM    6  C   UNL     1      44.449 -21.523   2.784  1.00  0.00     0.164 C 
HETATM    7  C   UNL     1      43.853 -19.180   2.652  1.00  0.00     0.282 A 
HETATM    8  O   UNL     1      43.824 -19.198   1.423  1.00  0.00    -0.265 OA
HETATM    9  C   UNL     1      43.598 -17.995   3.391  1.00  0.00     0.166 A 
HETATM   10  C   UNL     1      43.762 -17.910   4.737  1.00  0.00     0.186 A 
HETATM   11  N   UNL     1      43.539 -16.649   5.191  1.00  0.00    -0.044 NA
HETATM   12  C   UNL     1      43.217 -15.946   4.127  1.00  0.00     0.705 A 
HETATM   13  N   UNL     1      42.961 -14.622   4.070  1.00  0.00    -0.218 N 
HETATM   14  N   UNL     1      43.234 -16.734   2.995  1.00  0.00    -0.170 N 
HETATM   15  H   UNL     1      42.289 -14.261   3.399  1.00  0.00     0.178 HD
ENDROOT
BRANCH  14  16
HETATM   16  C   UNL     1      43.052 -16.310   1.616  1.00  0.00     0.181 C 
BRANCH  16  17
HETATM   17  C   UNL     1      41.577 -16.398   1.207  1.00  0.00     0.163 C 
BRANCH  17  18
HETATM   18  O   UNL     1      41.118 -17.753   1.240  1.00  0.00    -0.392 OA
HETATM   19  H   UNL     1      40.691 -17.956   0.378  1.00  0.00     0.210 HD
ENDBRANCH  17  18
BRANCH  17  20
HETATM   20  C   UNL     1      41.305 -15.781  -0.183  1.00  0.00     0.268 C 
BRANCH  20  21
HETATM   21  N   UNL     1      40.712 -14.367  -0.179  1.00  0.00    -0.061 N 
HETATM   22  H   UNL     1      41.426 -13.703   0.129  1.00  0.00     0.280 HD
BRANCH  21  23
HETATM   23  C   UNL     1      40.262 -13.917  -1.563  1.00  0.00     0.273 C 
BRANCH  23  24
HETATM   24  C   UNL     1      41.089 -12.819  -2.180  1.00  0.00    -0.033 A 
HETATM   25  C   UNL     1      41.024 -12.560  -3.558  1.00  0.00     0.009 A 
HETATM   26  C   UNL     1      41.807 -11.551  -4.123  1.00  0.00     0.001 A 
HETATM   27  C   UNL     1      42.654 -10.792  -3.318  1.00  0.00     0.000 A 
HETATM   28  C   UNL     1      42.720 -11.034  -1.949  1.00  0.00     0.001 A 
HETATM   29  C   UNL     1      41.942 -12.043  -1.380  1.00  0.00     0.009 A 
ENDBRANCH  23  24
ENDBRANCH  21  23
BRANCH  21  30
HETATM   30  C   UNL     1      39.591 -14.268   0.852  1.00  0.00     0.273 C 
BRANCH  30  31
HETATM   31  C   UNL     1      39.605 -12.972   1.621  1.00  0.00    -0.033 A 
HETATM   32  C   UNL     1      38.400 -12.336   1.961  1.00  0.00     0.009 A 
HETATM   33  C   UNL     1      38.413 -11.128   2.662  1.00  0.00     0.001 A 
HETATM   34  C   UNL     1      39.625 -10.548   3.029  1.00  0.00     0.000 A 
HETATM   35  C   UNL     1      40.826 -11.174   2.704  1.00  0.00     0.001 A 
HETATM   36  C   UNL     1      40.818 -12.383   2.006  1.00  0.00     0.009 A 
ENDBRANCH  30  31
ENDBRANCH  21  30
ENDBRANCH  20  21
ENDBRANCH  17  20
ENDBRANCH  16  17
ENDBRANCH  14  16
BRANCH  13  37
HETATM   37  C   UNL     1      42.780 -13.931   5.352  1.00  0.00     0.203 C 
BRANCH  37  38
HETATM   38  C   UNL     1      41.374 -13.487   5.592  1.00  0.00     0.070 A 
HETATM   39  O   UNL     1      41.201 -12.294   6.242  1.00  0.00    -0.325 OA
HETATM   40  C   UNL     1      39.861 -12.085   6.327  1.00  0.00     0.142 A 
HETATM   41  C   UNL     1      39.172 -13.121   5.744  1.00  0.00     0.027 A 
HETATM   42  C   UNL     1      40.148 -14.029   5.268  1.00  0.00     0.036 A 
ENDBRANCH  37  38
ENDBRANCH  13  37
TORSDOF 11
ENDMDL
MODEL 10
REMARK VINA RESULT:      -8.6      2.435      6.983
REMARK  11 active torsions:
REMARK  status: ('A' for Active; 'I' for Inactive)
REMARK    1  A    between atoms: N_13  and  C_14 
REMARK    2  A    between atoms: C_14  and  C_15 
REMARK    3  A    between atoms: N_20  and  C_21 
REMARK    4  A    between atoms: C_21  and  C_22 
REMARK    5  A    between atoms: C_22  and  O_23 
REMARK    6  A    between atoms: C_22  and  C_24 
REMARK    7  A    between atoms: C_24  and  N_25 
REMARK    8  A    between atoms: N_25  and  C_27 
REMARK    9  A    between atoms: N_25  and  C_34 
REMARK   10  A    between atoms: C_27  and  C_28 
REMARK   11  A    between atoms: C_34  and  C_35 
ROOT
HETATM    1  C   UNL     1      37.865 -10.539   2.763  1.00  0.00     0.163 C 
HETATM    2  N   UNL     1      39.212 -11.071   2.626  1.00  0.00    -0.285 N 
HETATM    3  C   UNL     1      39.829 -11.122   1.372  1.00  0.00     0.332 A 
HETATM    4  O   UNL     1      39.257 -10.734   0.351  1.00  0.00    -0.246 OA
HETATM    5  N   UNL     1      41.132 -11.661   1.322  1.00  0.00    -0.269 N 
HETATM    6  C   UNL     1      41.780 -11.739   0.027  1.00  0.00     0.164 C 
HETATM    7  C   UNL     1      41.803 -12.251   2.393  1.00  0.00     0.282 A 
HETATM    8  O   UNL     1      42.861 -12.870   2.307  1.00  0.00    -0.265 OA
HETATM    9  C   UNL     1      41.108 -12.122   3.624  1.00  0.00     0.166 A 
HETATM   10  C   UNL     1      39.870 -11.569   3.723  1.00  0.00     0.186 A 
HETATM   11  N   UNL     1      39.389 -11.642   4.991  1.00  0.00    -0.044 NA
HETATM   12  C   UNL     1      40.335 -12.227   5.693  1.00  0.00     0.705 A 
HETATM   13  N   UNL     1      40.293 -12.569   6.997  1.00  0.00    -0.218 N 
HETATM   14  N   UNL     1      41.417 -12.535   4.894  1.00  0.00    -0.170 N 
HETATM   15  H   UNL     1      41.140 -12.550   7.558  1.00  0.00     0.178 HD
ENDROOT
BRANCH  14  16
HETATM   16  C   UNL     1      42.607 -13.286   5.263  1.00  0.00     0.181 C 
BRANCH  16  17
HETATM   17  C   UNL     1      42.320 -14.791   5.277  1.00  0.00     0.163 C 
BRANCH  17  18
HETATM   18  O   UNL     1      42.188 -15.274   6.618  1.00  0.00    -0.392 OA
HETATM   19  H   UNL     1      42.954 -15.857   6.813  1.00  0.00     0.210 HD
ENDBRANCH  17  18
BRANCH  17  20
HETATM   20  C   UNL     1      43.391 -15.611   4.523  1.00  0.00     0.268 C 
BRANCH  20  21
HETATM   21  N   UNL     1      42.910 -16.932   3.912  1.00  0.00    -0.061 N 
HETATM   22  H   UNL     1      43.310 -17.036   2.976  1.00  0.00     0.280 HD
BRANCH  21  23
HETATM   23  C   UNL     1      43.356 -18.146   4.717  1.00  0.00     0.273 C 
BRANCH  23  24
HETATM   24  C   UNL     1      43.738 -19.352   3.899  1.00  0.00    -0.033 A 
HETATM   25  C   UNL     1      43.353 -19.459   2.553  1.00  0.00     0.009 A 
HETATM   26  C   UNL     1      43.699 -20.588   1.808  1.00  0.00     0.001 A 
HETATM   27  C   UNL     1      44.434 -21.614   2.398  1.00  0.00     0.000 A 
HETATM   28  C   UNL     1      44.830 -21.515   3.729  1.00  0.00     0.001 A 
HETATM   29  C   UNL     1      44.484 -20.391   4.478  1.00  0.00     0.009 A 
ENDBRANCH  23  24
ENDBRANCH  21  23
BRANCH  21  30
HETATM   30  C   UNL     1      41.398 -16.900   3.709  1.00  0.00     0.273 C 
BRANCH  30  31
HETATM   31  C   UNL     1      40.986 -16.211   2.433  1.00  0.00    -0.033 A 
HETATM   32  C   UNL     1      39.821 -15.427   2.394  1.00  0.00     0.009 A 
HETATM   33  C   UNL     1      39.431 -14.800   1.209  1.00  0.00     0.001 A 
HETATM   34  C   UNL     1      40.199 -14.947   0.057  1.00  0.00     0.000 A 
HETATM   35  C   UNL     1      41.361 -15.715   0.086  1.00  0.00     0.001 A 
HETATM   36  C   UNL     1      41.756 -16.343   1.268  1.00  0.00     0.009 A 
ENDBRANCH  30  31
ENDBRANCH  21  30
ENDBRANCH  20  21
ENDBRANCH  17  20
ENDBRANCH  16  17
ENDBRANCH  14  16
BRANCH  13  37
HETATM   37  C   UNL     1      39.183 -12.020   7.785  1.00  0.00     0.203 C 
BRANCH  37  38
HETATM   38  C   UNL     1      39.566 -10.826   8.597  1.00  0.00     0.070 A 
HETATM   39  O   UNL     1      40.735 -10.905   9.307  1.00  0.00    -0.325 OA
HETATM   40  C   UNL     1      40.890  -9.714   9.941  1.00  0.00     0.142 A 
HETATM   41  C   UNL     1      39.843  -8.872   9.653  1.00  0.00     0.027 A 
HETATM   42  C   UNL     1      38.985  -9.589   8.784  1.00  0.00     0.036 A 
ENDBRANCH  37  38
ENDBRANCH  13  37
TORSDOF 11
ENDMDL
