MODEL 1
REMARK VINA RESULT:      -9.0      0.000      0.000
REMARK  3 active torsions:
REMARK  status: ('A' for Active; 'I' for Inactive)
REMARK    1  A    between atoms: C_3  and  N_4 
REMARK       I    between atoms: N_4  and  C_5 
REMARK    2  A    between atoms: C_5  and  C_6 
REMARK    3  A    between atoms: C_6  and  N_7 
ROOT
HETATM    1  N   UNL     1      41.630 -17.146   4.414  1.00  0.00    -0.367 N 
HETATM    2  C   UNL     1      42.623 -17.879   4.882  1.00  0.00     0.108 C 
HETATM    3  C   UNL     1      43.243 -18.912   4.014  1.00  0.00     0.014 A 
HETATM    4  C   UNL     1      44.017 -19.928   4.611  1.00  0.00    -0.042 A 
HETATM    5  C   UNL     1      44.610 -20.927   3.829  1.00  0.00     0.008 A 
HETATM    6  C   UNL     1      44.470 -20.901   2.445  1.00  0.00     0.001 A 
HETATM    7  C   UNL     1      43.739 -19.885   1.838  1.00  0.00     0.001 A 
HETATM    8  C   UNL     1      43.130 -18.897   2.614  1.00  0.00     0.016 A 
HETATM    9  C   UNL     1      44.171 -19.938   6.111  1.00  0.00     0.069 C 
HETATM   10  C   UNL     1      44.208 -18.508   6.684  1.00  0.00     0.028 C 
HETATM   11  C   UNL     1      44.000 -18.555   8.202  1.00  0.00     0.038 C 
HETATM   12  C   UNL     1      45.520 -17.781   6.366  1.00  0.00     0.038 C 
HETATM   13  N   UNL     1      43.094 -17.702   6.111  1.00  0.00    -0.367 N 
HETATM   14  H   UNL     1      42.661 -17.012   6.706  1.00  0.00     0.162 HD
HETATM   15  H   UNL     1      41.204 -17.436   3.533  1.00  0.00     0.161 HD
ENDROOT
BRANCH   1  16
HETATM   16  C   UNL     1      40.987 -15.997   5.069  1.00  0.00     0.224 C 
BRANCH  16  17
HETATM   17  C   UNL     1      40.493 -15.072   3.961  1.00  0.00     0.239 C 
HETATM   18  N   UNL     1      39.987 -15.728   2.856  1.00  0.00    -0.325 N 
HETATM   19  H   UNL     1      39.776 -16.715   2.936  1.00  0.00     0.169 HD
HETATM   20  O   UNL     1      40.485 -13.860   4.160  1.00  0.00    -0.271 OA
BRANCH  18  21
HETATM   21  C   UNL     1      39.587 -15.130   1.636  1.00  0.00     0.040 A 
HETATM   22  C   UNL     1      40.515 -15.041   0.576  1.00  0.00    -0.035 A 
HETATM   23  C   UNL     1      41.897 -15.633   0.649  1.00  0.00     0.050 C 
HETATM   24  C   UNL     1      40.146 -14.374  -0.605  1.00  0.00     0.009 A 
HETATM   25  C   UNL     1      38.876 -13.817  -0.746  1.00  0.00     0.001 A 
HETATM   26  C   UNL     1      37.959 -13.921   0.292  1.00  0.00     0.002 A 
HETATM   27  C   UNL     1      38.311 -14.574   1.475  1.00  0.00     0.030 A 
ENDBRANCH  18  21
ENDBRANCH  16  17
ENDBRANCH   1  16
TORSDOF 3
ENDMDL
MODEL 2
REMARK VINA RESULT:      -8.5      2.163      3.423
REMARK  3 active torsions:
REMARK  status: ('A' for Active; 'I' for Inactive)
REMARK    1  A    between atoms: C_3  and  N_4 
REMARK       I    between atoms: N_4  and  C_5 
REMARK    2  A    between atoms: C_5  and  C_6 
REMARK    3  A    between atoms: C_6  and  N_7 
ROOT
HETATM    1  N   UNL     1      40.213 -16.337   1.816  1.00  0.00    -0.367 N 
HETATM    2  C   UNL     1      40.924 -16.700   2.868  1.00  0.00     0.108 C 
HETATM    3  C   UNL     1      42.066 -17.633   2.694  1.00  0.00     0.014 A 
HETATM    4  C   UNL     1      42.573 -18.307   3.824  1.00  0.00    -0.042 A 
HETATM    5  C   UNL     1      43.641 -19.203   3.700  1.00  0.00     0.008 A 
HETATM    6  C   UNL     1      44.239 -19.406   2.460  1.00  0.00     0.001 A 
HETATM    7  C   UNL     1      43.773 -18.722   1.342  1.00  0.00     0.001 A 
HETATM    8  C   UNL     1      42.696 -17.841   1.455  1.00  0.00     0.016 A 
HETATM    9  C   UNL     1      41.924 -18.070   5.164  1.00  0.00     0.069 C 
HETATM   10  C   UNL     1      41.420 -16.619   5.297  1.00  0.00     0.028 C 
HETATM   11  C   UNL     1      40.465 -16.513   6.492  1.00  0.00     0.038 C 
HETATM   12  C   UNL     1      42.564 -15.612   5.462  1.00  0.00     0.038 C 
HETATM   13  N   UNL     1      40.651 -16.235   4.082  1.00  0.00    -0.367 N 
HETATM   14  H   UNL     1      39.864 -15.614   4.202  1.00  0.00     0.162 HD
HETATM   15  H   UNL     1      40.361 -16.850   0.947  1.00  0.00     0.161 HD
ENDROOT
BRANCH   1  16
HETATM   16  C   UNL     1      39.143 -15.329   1.770  1.00  0.00     0.224 C 
BRANCH  16  17
HETATM   17  C   UNL     1      39.477 -14.378   0.625  1.00  0.00     0.239 C 
HETATM   18  N   UNL     1      40.676 -14.646  -0.006  1.00  0.00    -0.325 N 
HETATM   19  H   UNL     1      41.123 -15.537   0.168  1.00  0.00     0.169 HD
HETATM   20  O   UNL     1      38.645 -13.539   0.290  1.00  0.00    -0.271 OA
BRANCH  18  21
HETATM   21  C   UNL     1      41.294 -13.853  -1.004  1.00  0.00     0.040 A 
HETATM   22  C   UNL     1      41.292 -14.306  -2.341  1.00  0.00    -0.035 A 
HETATM   23  C   UNL     1      40.583 -15.560  -2.778  1.00  0.00     0.050 C 
HETATM   24  C   UNL     1      41.976 -13.562  -3.318  1.00  0.00     0.009 A 
HETATM   25  C   UNL     1      42.640 -12.383  -2.986  1.00  0.00     0.001 A 
HETATM   26  C   UNL     1      42.627 -11.931  -1.672  1.00  0.00     0.002 A 
HETATM   27  C   UNL     1      41.957 -12.660  -0.687  1.00  0.00     0.030 A 
ENDBRANCH  18  21
ENDBRANCH  16  17
ENDBRANCH   1  16
TORSDOF 3
ENDMDL
MODEL 3
REMARK VINA RESULT:      -8.4      2.232      7.890
REMARK  3 active torsions:
REMARK  status: ('A' for Active; 'I' for Inactive)
REMARK    1  A    between atoms: C_3  and  N_4 
REMARK       I    between atoms: N_4  and  C_5 
REMARK    2  A    between atoms: C_5  and  C_6 
REMARK    3  A    between atoms: C_6  and  N_7 
ROOT
HETATM    1  N   UNL     1      42.254 -15.511   0.638  1.00  0.00    -0.367 N 
HETATM    2  C   UNL     1      41.145 -14.849   0.364  1.00  0.00     0.108 C 
HETATM    3  C   UNL     1      40.631 -14.825  -1.028  1.00  0.00     0.014 A 
HETATM    4  C   UNL     1      39.695 -13.836  -1.392  1.00  0.00    -0.042 A 
HETATM    5  C   UNL     1      39.195 -13.772  -2.698  1.00  0.00     0.008 A 
HETATM    6  C   UNL     1      39.591 -14.715  -3.642  1.00  0.00     0.001 A 
HETATM    7  C   UNL     1      40.488 -15.719  -3.289  1.00  0.00     0.001 A 
HETATM    8  C   UNL     1      41.005 -15.776  -1.993  1.00  0.00     0.016 A 
HETATM    9  C   UNL     1      39.264 -12.827  -0.358  1.00  0.00     0.069 C 
HETATM   10  C   UNL     1      39.215 -13.451   1.051  1.00  0.00     0.028 C 
HETATM   11  C   UNL     1      39.132 -12.340   2.103  1.00  0.00     0.038 C 
HETATM   12  C   UNL     1      38.035 -14.415   1.226  1.00  0.00     0.038 C 
HETATM   13  N   UNL     1      40.466 -14.214   1.313  1.00  0.00    -0.367 N 
HETATM   14  H   UNL     1      40.824 -14.217   2.256  1.00  0.00     0.162 HD
HETATM   15  H   UNL     1      42.817 -15.835  -0.149  1.00  0.00     0.161 HD
ENDROOT
BRANCH   1  16
HETATM   16  C   UNL     1      42.837 -15.759   1.966  1.00  0.00     0.224 C 
BRANCH  16  17
HETATM   17  C   UNL     1      43.575 -17.091   1.886  1.00  0.00     0.239 C 
HETATM   18  N   UNL     1      42.950 -18.129   2.549  1.00  0.00    -0.325 N 
HETATM   19  H   UNL     1      41.987 -18.007   2.836  1.00  0.00     0.169 HD
HETATM   20  O   UNL     1      44.579 -17.172   1.182  1.00  0.00    -0.271 OA
BRANCH  18  21
HETATM   21  C   UNL     1      43.471 -19.430   2.751  1.00  0.00     0.040 A 
HETATM   22  C   UNL     1      44.214 -19.699   3.921  1.00  0.00    -0.035 A 
HETATM   23  C   UNL     1      44.409 -18.685   5.016  1.00  0.00     0.050 C 
HETATM   24  C   UNL     1      44.802 -20.966   4.085  1.00  0.00     0.009 A 
HETATM   25  C   UNL     1      44.648 -21.957   3.118  1.00  0.00     0.001 A 
HETATM   26  C   UNL     1      43.903 -21.695   1.975  1.00  0.00     0.002 A 
HETATM   27  C   UNL     1      43.316 -20.441   1.793  1.00  0.00     0.030 A 
ENDBRANCH  18  21
ENDBRANCH  16  17
ENDBRANCH   1  16
TORSDOF 3
ENDMDL
MODEL 4
REMARK VINA RESULT:      -8.4      2.311      8.339
REMARK  3 active torsions:
REMARK  status: ('A' for Active; 'I' for Inactive)
REMARK    1  A    between atoms: C_3  and  N_4 
REMARK       I    between atoms: N_4  and  C_5 
REMARK    2  A    between atoms: C_5  and  C_6 
REMARK    3  A    between atoms: C_6  and  N_7 
ROOT
HETATM    1  N   UNL     1      41.756 -16.455   1.251  1.00  0.00    -0.367 N 
HETATM    2  C   UNL     1      41.266 -15.548   0.425  1.00  0.00     0.108 C 
HETATM    3  C   UNL     1      40.275 -14.562   0.923  1.00  0.00     0.014 A 
HETATM    4  C   UNL     1      39.483 -13.861  -0.008  1.00  0.00    -0.042 A 
HETATM    5  C   UNL     1      38.529 -12.931   0.422  1.00  0.00     0.008 A 
HETATM    6  C   UNL     1      38.383 -12.661   1.780  1.00  0.00     0.001 A 
HETATM    7  C   UNL     1      39.181 -13.319   2.710  1.00  0.00     0.001 A 
HETATM    8  C   UNL     1      40.121 -14.262   2.288  1.00  0.00     0.016 A 
HETATM    9  C   UNL     1      39.659 -14.152  -1.477  1.00  0.00     0.069 C 
HETATM   10  C   UNL     1      41.126 -14.487  -1.813  1.00  0.00     0.028 C 
HETATM   11  C   UNL     1      41.203 -15.120  -3.207  1.00  0.00     0.038 C 
HETATM   12  C   UNL     1      42.038 -13.256  -1.756  1.00  0.00     0.038 C 
HETATM   13  N   UNL     1      41.654 -15.487  -0.845  1.00  0.00    -0.367 N 
HETATM   14  H   UNL     1      42.314 -16.168  -1.187  1.00  0.00     0.162 HD
HETATM   15  H   UNL     1      41.303 -16.559   2.158  1.00  0.00     0.161 HD
ENDROOT
BRANCH   1  16
HETATM   16  C   UNL     1      42.835 -17.416   0.977  1.00  0.00     0.224 C 
BRANCH  16  17
HETATM   17  C   UNL     1      42.949 -18.316   2.203  1.00  0.00     0.239 C 
HETATM   18  N   UNL     1      44.059 -19.139   2.203  1.00  0.00    -0.325 N 
HETATM   19  H   UNL     1      44.802 -18.945   1.545  1.00  0.00     0.169 HD
HETATM   20  O   UNL     1      42.138 -18.181   3.116  1.00  0.00    -0.271 OA
BRANCH  18  21
HETATM   21  C   UNL     1      44.344 -20.162   3.140  1.00  0.00     0.040 A 
HETATM   22  C   UNL     1      44.326 -21.508   2.716  1.00  0.00    -0.035 A 
HETATM   23  C   UNL     1      44.101 -21.910   1.283  1.00  0.00     0.050 C 
HETATM   24  C   UNL     1      44.528 -22.529   3.662  1.00  0.00     0.009 A 
HETATM   25  C   UNL     1      44.758 -22.227   5.002  1.00  0.00     0.001 A 
HETATM   26  C   UNL     1      44.791 -20.901   5.415  1.00  0.00     0.002 A 
HETATM   27  C   UNL     1      44.587 -19.874   4.490  1.00  0.00     0.030 A 
ENDBRANCH  18  21
ENDBRANCH  16  17
ENDBRANCH   1  16
TORSDOF 3
ENDMDL
MODEL 5
REMARK VINA RESULT:      -8.2      4.294      7.016
REMARK  3 active torsions:
REMARK  status: ('A' for Active; 'I' for Inactive)
REMARK    1  A    between atoms: C_3  and  N_4 
REMARK       I    between atoms: N_4  and  C_5 
REMARK    2  A    between atoms: C_5  and  C_6 
REMARK    3  A    between atoms: C_6  and  N_7 
ROOT
HETATM    1  N   UNL     1      43.532 -15.547   4.915  1.00  0.00    -0.367 N 
HETATM    2  C   UNL     1      43.188 -16.193   3.817  1.00  0.00     0.108 C 
HETATM    3  C   UNL     1      43.621 -17.601   3.628  1.00  0.00     0.014 A 
HETATM    4  C   UNL     1      43.589 -18.157   2.333  1.00  0.00    -0.042 A 
HETATM    5  C   UNL     1      44.000 -19.477   2.112  1.00  0.00     0.008 A 
HETATM    6  C   UNL     1      44.408 -20.267   3.183  1.00  0.00     0.001 A 
HETATM    7  C   UNL     1      44.411 -19.745   4.472  1.00  0.00     0.001 A 
HETATM    8  C   UNL     1      44.021 -18.423   4.696  1.00  0.00     0.016 A 
HETATM    9  C   UNL     1      43.134 -17.294   1.184  1.00  0.00     0.069 C 
HETATM   10  C   UNL     1      42.037 -16.304   1.622  1.00  0.00     0.028 C 
HETATM   11  C   UNL     1      41.861 -15.223   0.550  1.00  0.00     0.038 C 
HETATM   12  C   UNL     1      40.692 -16.993   1.883  1.00  0.00     0.038 C 
HETATM   13  N   UNL     1      42.445 -15.617   2.878  1.00  0.00    -0.367 N 
HETATM   14  H   UNL     1      42.165 -14.656   2.998  1.00  0.00     0.162 HD
HETATM   15  H   UNL     1      44.235 -15.979   5.516  1.00  0.00     0.161 HD
ENDROOT
BRANCH   1  16
HETATM   16  C   UNL     1      43.089 -14.209   5.336  1.00  0.00     0.224 C 
BRANCH  16  17
HETATM   17  C   UNL     1      43.887 -13.849   6.584  1.00  0.00     0.239 C 
HETATM   18  N   UNL     1      43.340 -12.825   7.333  1.00  0.00    -0.325 N 
HETATM   19  H   UNL     1      42.385 -12.548   7.145  1.00  0.00     0.169 HD
HETATM   20  O   UNL     1      44.864 -14.531   6.881  1.00  0.00    -0.271 OA
BRANCH  18  21
HETATM   21  C   UNL     1      43.931 -12.200   8.458  1.00  0.00     0.040 A 
HETATM   22  C   UNL     1      43.284 -11.093   9.049  1.00  0.00    -0.035 A 
HETATM   23  C   UNL     1      41.940 -10.593   8.592  1.00  0.00     0.050 C 
HETATM   24  C   UNL     1      43.910 -10.420  10.113  1.00  0.00     0.009 A 
HETATM   25  C   UNL     1      45.148 -10.840  10.597  1.00  0.00     0.001 A 
HETATM   26  C   UNL     1      45.775 -11.939  10.024  1.00  0.00     0.002 A 
HETATM   27  C   UNL     1      45.170 -12.617   8.962  1.00  0.00     0.030 A 
ENDBRANCH  18  21
ENDBRANCH  16  17
ENDBRANCH   1  16
TORSDOF 3
ENDMDL
MODEL 6
REMARK VINA RESULT:      -8.2      5.731      8.212
REMARK  3 active torsions:
REMARK  status: ('A' for Active; 'I' for Inactive)
REMARK    1  A    between atoms: C_3  and  N_4 
REMARK       I    between atoms: N_4  and  C_5 
REMARK    2  A    between atoms: C_5  and  C_6 
REMARK    3  A    between atoms: C_6  and  N_7 
ROOT
HETATM    1  N   UNL     1      44.179 -13.144   7.218  1.00  0.00    -0.367 N 
HETATM    2  C   UNL     1      43.592 -14.263   6.838  1.00  0.00     0.108 C 
HETATM    3  C   UNL     1      42.534 -14.219   5.798  1.00  0.00     0.014 A 
HETATM    4  C   UNL     1      41.660 -15.318   5.667  1.00  0.00    -0.042 A 
HETATM    5  C   UNL     1      40.643 -15.310   4.706  1.00  0.00     0.008 A 
HETATM    6  C   UNL     1      40.510 -14.228   3.841  1.00  0.00     0.001 A 
HETATM    7  C   UNL     1      41.386 -13.152   3.934  1.00  0.00     0.001 A 
HETATM    8  C   UNL     1      42.392 -13.145   4.903  1.00  0.00     0.016 A 
HETATM    9  C   UNL     1      41.821 -16.490   6.602  1.00  0.00     0.069 C 
HETATM   10  C   UNL     1      43.302 -16.724   6.962  1.00  0.00     0.028 C 
HETATM   11  C   UNL     1      43.395 -17.664   8.169  1.00  0.00     0.038 C 
HETATM   12  C   UNL     1      44.107 -17.305   5.794  1.00  0.00     0.038 C 
HETATM   13  N   UNL     1      43.939 -15.437   7.355  1.00  0.00    -0.367 N 
HETATM   14  H   UNL     1      44.645 -15.465   8.074  1.00  0.00     0.162 HD
HETATM   15  H   UNL     1      43.761 -12.265   6.913  1.00  0.00     0.161 HD
ENDROOT
BRANCH   1  16
HETATM   16  C   UNL     1      45.328 -13.006   8.126  1.00  0.00     0.224 C 
BRANCH  16  17
HETATM   17  C   UNL     1      45.051 -11.797   9.013  1.00  0.00     0.239 C 
HETATM   18  N   UNL     1      43.921 -11.915   9.800  1.00  0.00    -0.325 N 
HETATM   19  H   UNL     1      43.500 -12.829   9.903  1.00  0.00     0.169 HD
HETATM   20  O   UNL     1      45.871 -10.882   9.043  1.00  0.00    -0.271 OA
BRANCH  18  21
HETATM   21  C   UNL     1      43.355 -10.902  10.612  1.00  0.00     0.040 A 
HETATM   22  C   UNL     1      42.352 -10.068  10.072  1.00  0.00    -0.035 A 
HETATM   23  C   UNL     1      41.787 -10.260   8.690  1.00  0.00     0.050 C 
HETATM   24  C   UNL     1      41.847  -9.010  10.849  1.00  0.00     0.009 A 
HETATM   25  C   UNL     1      42.314  -8.786  12.142  1.00  0.00     0.001 A 
HETATM   26  C   UNL     1      43.290  -9.617  12.677  1.00  0.00     0.002 A 
HETATM   27  C   UNL     1      43.807 -10.670  11.918  1.00  0.00     0.030 A 
ENDBRANCH  18  21
ENDBRANCH  16  17
ENDBRANCH   1  16
TORSDOF 3
ENDMDL
MODEL 7
REMARK VINA RESULT:      -8.2      2.221      7.222
REMARK  3 active torsions:
REMARK  status: ('A' for Active; 'I' for Inactive)
REMARK    1  A    between atoms: C_3  and  N_4 
REMARK       I    between atoms: N_4  and  C_5 
REMARK    2  A    between atoms: C_5  and  C_6 
REMARK    3  A    between atoms: C_6  and  N_7 
ROOT
HETATM    1  N   UNL     1      41.852 -15.593   4.045  1.00  0.00    -0.367 N 
HETATM    2  C   UNL     1      41.141 -14.492   4.208  1.00  0.00     0.108 C 
HETATM    3  C   UNL     1      40.105 -14.133   3.207  1.00  0.00     0.014 A 
HETATM    4  C   UNL     1      39.625 -12.808   3.168  1.00  0.00    -0.042 A 
HETATM    5  C   UNL     1      38.656 -12.427   2.232  1.00  0.00     0.008 A 
HETATM    6  C   UNL     1      38.128 -13.369   1.354  1.00  0.00     0.001 A 
HETATM    7  C   UNL     1      38.566 -14.689   1.404  1.00  0.00     0.001 A 
HETATM    8  C   UNL     1      39.545 -15.071   2.323  1.00  0.00     0.016 A 
HETATM    9  C   UNL     1      40.196 -11.800   4.132  1.00  0.00     0.069 C 
HETATM   10  C   UNL     1      40.548 -12.449   5.485  1.00  0.00     0.028 C 
HETATM   11  C   UNL     1      41.442 -11.502   6.294  1.00  0.00     0.038 C 
HETATM   12  C   UNL     1      39.304 -12.809   6.306  1.00  0.00     0.038 C 
HETATM   13  N   UNL     1      41.321 -13.702   5.261  1.00  0.00    -0.367 N 
HETATM   14  H   UNL     1      42.037 -13.937   5.932  1.00  0.00     0.162 HD
HETATM   15  H   UNL     1      41.788 -16.066   3.143  1.00  0.00     0.161 HD
ENDROOT
BRANCH   1  16
HETATM   16  C   UNL     1      42.817 -16.176   4.988  1.00  0.00     0.224 C 
BRANCH  16  17
HETATM   17  C   UNL     1      42.800 -17.685   4.766  1.00  0.00     0.239 C 
HETATM   18  N   UNL     1      43.985 -18.202   4.279  1.00  0.00    -0.325 N 
HETATM   19  H   UNL     1      44.813 -17.622   4.314  1.00  0.00     0.169 HD
HETATM   20  O   UNL     1      41.811 -18.325   5.115  1.00  0.00    -0.271 OA
BRANCH  18  21
HETATM   21  C   UNL     1      44.207 -19.536   3.857  1.00  0.00     0.040 A 
HETATM   22  C   UNL     1      43.946 -19.885   2.515  1.00  0.00    -0.035 A 
HETATM   23  C   UNL     1      43.520 -18.881   1.477  1.00  0.00     0.050 C 
HETATM   24  C   UNL     1      44.087 -21.226   2.115  1.00  0.00     0.009 A 
HETATM   25  C   UNL     1      44.494 -22.204   3.020  1.00  0.00     0.001 A 
HETATM   26  C   UNL     1      44.766 -21.854   4.336  1.00  0.00     0.002 A 
HETATM   27  C   UNL     1      44.626 -20.528   4.753  1.00  0.00     0.030 A 
ENDBRANCH  18  21
ENDBRANCH  16  17
ENDBRANCH   1  16
TORSDOF 3
ENDMDL
MODEL 8
REMARK VINA RESULT:      -8.1      2.178      7.631
REMARK  3 active torsions:
REMARK  status: ('A' for Active; 'I' for Inactive)
REMARK    1  A    between atoms: C_3  and  N_4 
REMARK       I    between atoms: N_4  and  C_5 
REMARK    2  A    between atoms: C_5  and  C_6 
REMARK    3  A    between atoms: C_6  and  N_7 
ROOT
HETATM    1  N   UNL     1      41.714 -13.495   0.846  1.00  0.00    -0.367 N 
HETATM    2  C   UNL     1      40.503 -13.528   0.320  1.00  0.00     0.108 C 
HETATM    3  C   UNL     1      40.290 -14.200  -0.987  1.00  0.00     0.014 A 
HETATM    4  C   UNL     1      39.118 -13.914  -1.717  1.00  0.00    -0.042 A 
HETATM    5  C   UNL     1      38.885 -14.518  -2.958  1.00  0.00     0.008 A 
HETATM    6  C   UNL     1      39.795 -15.440  -3.466  1.00  0.00     0.001 A 
HETATM    7  C   UNL     1      40.939 -15.759  -2.741  1.00  0.00     0.001 A 
HETATM    8  C   UNL     1      41.187 -15.146  -1.511  1.00  0.00     0.016 A 
HETATM    9  C   UNL     1      38.133 -12.922  -1.152  1.00  0.00     0.069 C 
HETATM   10  C   UNL     1      38.082 -12.994   0.387  1.00  0.00     0.028 C 
HETATM   11  C   UNL     1      37.364 -11.756   0.937  1.00  0.00     0.038 C 
HETATM   12  C   UNL     1      37.382 -14.261   0.894  1.00  0.00     0.038 C 
HETATM   13  N   UNL     1      39.463 -12.986   0.943  1.00  0.00    -0.367 N 
HETATM   14  H   UNL     1      39.611 -12.515   1.822  1.00  0.00     0.162 HD
HETATM   15  H   UNL     1      42.494 -13.776   0.251  1.00  0.00     0.161 HD
ENDROOT
BRANCH   1  16
HETATM   16  C   UNL     1      42.091 -13.001   2.178  1.00  0.00     0.224 C 
BRANCH  16  17
HETATM   17  C   UNL     1      42.986 -14.063   2.809  1.00  0.00     0.239 C 
HETATM   18  N   UNL     1      42.545 -15.359   2.628  1.00  0.00    -0.325 N 
HETATM   19  H   UNL     1      41.826 -15.531   1.937  1.00  0.00     0.169 HD
HETATM   20  O   UNL     1      44.045 -13.715   3.326  1.00  0.00    -0.271 OA
BRANCH  18  21
HETATM   21  C   UNL     1      43.101 -16.523   3.213  1.00  0.00     0.040 A 
HETATM   22  C   UNL     1      43.538 -17.572   2.376  1.00  0.00    -0.035 A 
HETATM   23  C   UNL     1      43.523 -17.479   0.874  1.00  0.00     0.050 C 
HETATM   24  C   UNL     1      44.013 -18.762   2.956  1.00  0.00     0.009 A 
HETATM   25  C   UNL     1      44.069 -18.909   4.341  1.00  0.00     0.001 A 
HETATM   26  C   UNL     1      43.653 -17.870   5.162  1.00  0.00     0.002 A 
HETATM   27  C   UNL     1      43.173 -16.683   4.603  1.00  0.00     0.030 A 
ENDBRANCH  18  21
ENDBRANCH  16  17
ENDBRANCH   1  16
TORSDOF 3
ENDMDL
MODEL 9
REMARK VINA RESULT:      -7.8      4.725      7.299
REMARK  3 active torsions:
REMARK  status: ('A' for Active; 'I' for Inactive)
REMARK    1  A    between atoms: C_3  and  N_4 
REMARK       I    between atoms: N_4  and  C_5 
REMARK    2  A    between atoms: C_5  and  C_6 
REMARK    3  A    between atoms: C_6  and  N_7 
ROOT
HETATM    1  N   UNL     1      42.428 -13.902   6.178  1.00  0.00    -0.367 N 
HETATM    2  C   UNL     1      42.548 -14.969   5.409  1.00  0.00     0.108 C 
HETATM    3  C   UNL     1      43.092 -16.227   5.981  1.00  0.00     0.014 A 
HETATM    4  C   UNL     1      43.571 -17.223   5.106  1.00  0.00    -0.042 A 
HETATM    5  C   UNL     1      44.102 -18.418   5.606  1.00  0.00     0.008 A 
HETATM    6  C   UNL     1      44.124 -18.649   6.978  1.00  0.00     0.001 A 
HETATM    7  C   UNL     1      43.623 -17.691   7.854  1.00  0.00     0.001 A 
HETATM    8  C   UNL     1      43.110 -16.489   7.362  1.00  0.00     0.016 A 
HETATM    9  C   UNL     1      43.530 -16.966   3.621  1.00  0.00     0.069 C 
HETATM   10  C   UNL     1      42.300 -16.124   3.228  1.00  0.00     0.028 C 
HETATM   11  C   UNL     1      42.479 -15.584   1.804  1.00  0.00     0.038 C 
HETATM   12  C   UNL     1      40.992 -16.919   3.316  1.00  0.00     0.038 C 
HETATM   13  N   UNL     1      42.178 -14.949   4.134  1.00  0.00    -0.367 N 
HETATM   14  H   UNL     1      41.824 -14.090   3.741  1.00  0.00     0.162 HD
HETATM   15  H   UNL     1      42.879 -13.927   7.092  1.00  0.00     0.161 HD
ENDROOT
BRANCH   1  16
HETATM   16  C   UNL     1      41.792 -12.623   5.829  1.00  0.00     0.224 C 
BRANCH  16  17
HETATM   17  C   UNL     1      42.163 -11.629   6.925  1.00  0.00     0.239 C 
HETATM   18  N   UNL     1      43.077 -12.109   7.843  1.00  0.00    -0.325 N 
HETATM   19  H   UNL     1      43.586 -12.954   7.618  1.00  0.00     0.169 HD
HETATM   20  O   UNL     1      41.720 -10.484   6.862  1.00  0.00    -0.271 OA
BRANCH  18  21
HETATM   21  C   UNL     1      43.495 -11.458   9.029  1.00  0.00     0.040 A 
HETATM   22  C   UNL     1      44.843 -11.565   9.434  1.00  0.00    -0.035 A 
HETATM   23  C   UNL     1      45.888 -12.273   8.614  1.00  0.00     0.050 C 
HETATM   24  C   UNL     1      45.242 -10.989  10.653  1.00  0.00     0.009 A 
HETATM   25  C   UNL     1      44.329 -10.306  11.454  1.00  0.00     0.001 A 
HETATM   26  C   UNL     1      43.007 -10.187  11.046  1.00  0.00     0.002 A 
HETATM   27  C   UNL     1      42.592 -10.758   9.840  1.00  0.00     0.030 A 
ENDBRANCH  18  21
ENDBRANCH  16  17
ENDBRANCH   1  16
TORSDOF 3
ENDMDL
MODEL 10
REMARK VINA RESULT:      -7.8      2.206      7.196
REMARK  3 active torsions:
REMARK  status: ('A' for Active; 'I' for Inactive)
REMARK    1  A    between atoms: C_3  and  N_4 
REMARK       I    between atoms: N_4  and  C_5 
REMARK    2  A    between atoms: C_5  and  C_6 
REMARK    3  A    between atoms: C_6  and  N_7 
ROOT
HETATM    1  N   UNL     1      42.553 -15.961   3.276  1.00  0.00    -0.367 N 
HETATM    2  C   UNL     1      41.985 -14.846   2.855  1.00  0.00     0.108 C 
HETATM    3  C   UNL     1      41.664 -14.686   1.414  1.00  0.00     0.014 A 
HETATM    4  C   UNL     1      41.421 -13.393   0.909  1.00  0.00    -0.042 A 
HETATM    5  C   UNL     1      41.127 -13.199  -0.445  1.00  0.00     0.008 A 
HETATM    6  C   UNL     1      41.032 -14.292  -1.301  1.00  0.00     0.001 A 
HETATM    7  C   UNL     1      41.234 -15.578  -0.811  1.00  0.00     0.001 A 
HETATM    8  C   UNL     1      41.547 -15.777   0.536  1.00  0.00     0.016 A 
HETATM    9  C   UNL     1      41.515 -12.217   1.848  1.00  0.00     0.069 C 
HETATM   10  C   UNL     1      41.041 -12.589   3.267  1.00  0.00     0.028 C 
HETATM   11  C   UNL     1      41.483 -11.506   4.258  1.00  0.00     0.038 C 
HETATM   12  C   UNL     1      39.522 -12.774   3.350  1.00  0.00     0.038 C 
HETATM   13  N   UNL     1      41.677 -13.865   3.696  1.00  0.00    -0.367 N 
HETATM   14  H   UNL     1      41.910 -13.967   4.672  1.00  0.00     0.162 HD
HETATM   15  H   UNL     1      42.915 -16.602   2.570  1.00  0.00     0.161 HD
ENDROOT
BRANCH   1  16
HETATM   16  C   UNL     1      42.819 -16.352   4.669  1.00  0.00     0.224 C 
BRANCH  16  17
HETATM   17  C   UNL     1      42.858 -17.876   4.702  1.00  0.00     0.239 C 
HETATM   18  N   UNL     1      44.049 -18.425   4.267  1.00  0.00    -0.325 N 
HETATM   19  H   UNL     1      44.853 -17.817   4.174  1.00  0.00     0.169 HD
HETATM   20  O   UNL     1      41.908 -18.484   5.189  1.00  0.00    -0.271 OA
BRANCH  18  21
HETATM   21  C   UNL     1      44.315 -19.801   4.067  1.00  0.00     0.040 A 
HETATM   22  C   UNL     1      44.077 -20.370   2.797  1.00  0.00    -0.035 A 
HETATM   23  C   UNL     1      43.631 -19.560   1.609  1.00  0.00     0.050 C 
HETATM   24  C   UNL     1      44.262 -21.752   2.618  1.00  0.00     0.009 A 
HETATM   25  C   UNL     1      44.689 -22.559   3.671  1.00  0.00     0.001 A 
HETATM   26  C   UNL     1      44.938 -21.994   4.915  1.00  0.00     0.002 A 
HETATM   27  C   UNL     1      44.754 -20.623   5.112  1.00  0.00     0.030 A 
ENDBRANCH  18  21
ENDBRANCH  16  17
ENDBRANCH   1  16
TORSDOF 3
ENDMDL
