MODEL 1
REMARK VINA RESULT:      -8.5      0.000      0.000
REMARK  6 active torsions:
REMARK  status: ('A' for Active; 'I' for Inactive)
REMARK    1  A    between atoms: C_3  and  N_4 
REMARK    2  A    between atoms: N_4  and  C_5 
REMARK    3  A    between atoms: C_5  and  C_6 
REMARK    4  A    between atoms: N_8  and  C_10 
REMARK    5  A    between atoms: C_10  and  C_11 
REMARK    6  A    between atoms: C_16  and  O_17 
ROOT
HETATM    1  C   UNL     1      43.107 -16.366   6.961  1.00  0.00     0.031 C 
HETATM    2  C   UNL     1      43.030 -17.144   5.646  1.00  0.00     0.241 C 
HETATM    3  N   UNL     1      43.743 -18.456   5.903  1.00  0.00    -0.067 N 
HETATM    4  H   UNL     1      43.055 -19.208   5.733  1.00  0.00     0.280 HD
HETATM    5  C   UNL     1      44.104 -18.520   7.366  1.00  0.00     0.235 C 
HETATM    6  C   UNL     1      43.200 -17.480   8.003  1.00  0.00     0.035 C 
ENDROOT
BRANCH   3   7
HETATM    7  C   UNL     1      44.875 -18.748   4.948  1.00  0.00     0.274 C 
BRANCH   7   8
HETATM    8  C   UNL     1      44.562 -19.829   3.952  1.00  0.00    -0.013 A 
HETATM    9  C   UNL     1      44.007 -19.568   2.689  1.00  0.00     0.019 A 
HETATM   10 BR   UNL     1      43.575 -17.803   2.135  1.00  0.00    -0.051 Br
HETATM   11  C   UNL     1      43.735 -20.611   1.797  1.00  0.00     0.022 A 
HETATM   12  C   UNL     1      44.004 -21.932   2.157  1.00  0.00     0.038 A 
HETATM   13  C   UNL     1      44.542 -22.196   3.408  1.00  0.00     0.066 A 
HETATM   14  C   UNL     1      44.824 -21.165   4.299  1.00  0.00     0.046 A 
BRANCH  13  15
HETATM   15  O   UNL     1      44.815 -23.463   3.823  1.00  0.00    -0.361 OA
HETATM   16  H   UNL     1      44.510 -24.098   3.149  1.00  0.00     0.217 HD
ENDBRANCH  13  15
ENDBRANCH   7   8
ENDBRANCH   3   7
BRANCH   1  17
HETATM   17  C   UNL     1      44.299 -15.390   7.028  1.00  0.00     0.127 C 
BRANCH  17  18
HETATM   18  N   UNL     1      43.817 -14.031   7.244  1.00  0.00    -0.376 N 
HETATM   19  H   UNL     1      43.467 -13.592   6.386  1.00  0.00     0.161 HD
BRANCH  18  20
HETATM   20  C   UNL     1      44.424 -13.059   8.037  1.00  0.00     0.100 A 
HETATM   21  C   UNL     1      45.802 -12.831   7.882  1.00  0.00     0.048 A 
HETATM   22  C   UNL     1      46.446 -11.848   8.631  1.00  0.00     0.005 A 
HETATM   23  C   UNL     1      45.712 -11.087   9.527  1.00  0.00     0.017 A 
HETATM   24  C   UNL     1      44.352 -11.319   9.640  1.00  0.00     0.089 A 
HETATM   25  N   UNL     1      43.759 -12.271   8.898  1.00  0.00    -0.353 N 
HETATM   26  H   UNL     1      42.761 -12.395   9.018  1.00  0.00     0.166 HD
ENDBRANCH  18  20
ENDBRANCH  17  18
ENDBRANCH   1  17
TORSDOF 6
ENDMDL
MODEL 2
REMARK VINA RESULT:      -8.1      3.029      4.533
REMARK  6 active torsions:
REMARK  status: ('A' for Active; 'I' for Inactive)
REMARK    1  A    between atoms: C_3  and  N_4 
REMARK    2  A    between atoms: N_4  and  C_5 
REMARK    3  A    between atoms: C_5  and  C_6 
REMARK    4  A    between atoms: N_8  and  C_10 
REMARK    5  A    between atoms: C_10  and  C_11 
REMARK    6  A    between atoms: C_16  and  O_17 
ROOT
HETATM    1  C   UNL     1      42.072 -16.981   6.485  1.00  0.00     0.031 C 
HETATM    2  C   UNL     1      42.380 -18.169   5.571  1.00  0.00     0.241 C 
HETATM    3  N   UNL     1      43.725 -18.698   6.024  1.00  0.00    -0.067 N 
HETATM    4  H   UNL     1      43.580 -19.680   6.308  1.00  0.00     0.280 HD
HETATM    5  C   UNL     1      44.138 -17.943   7.264  1.00  0.00     0.235 C 
HETATM    6  C   UNL     1      42.838 -17.334   7.759  1.00  0.00     0.035 C 
ENDROOT
BRANCH   3   7
HETATM    7  C   UNL     1      44.769 -18.764   4.935  1.00  0.00     0.274 C 
BRANCH   7   8
HETATM    8  C   UNL     1      44.520 -19.848   3.925  1.00  0.00    -0.013 A 
HETATM    9  C   UNL     1      44.024 -19.594   2.635  1.00  0.00     0.019 A 
HETATM   10 BR   UNL     1      43.596 -17.834   2.062  1.00  0.00    -0.051 Br
HETATM   11  C   UNL     1      43.812 -20.640   1.731  1.00  0.00     0.022 A 
HETATM   12  C   UNL     1      44.081 -21.957   2.104  1.00  0.00     0.038 A 
HETATM   13  C   UNL     1      44.559 -22.215   3.380  1.00  0.00     0.066 A 
HETATM   14  C   UNL     1      44.782 -21.181   4.284  1.00  0.00     0.046 A 
BRANCH  13  15
HETATM   15  O   UNL     1      44.828 -23.479   3.807  1.00  0.00    -0.361 OA
HETATM   16  H   UNL     1      44.965 -24.060   3.037  1.00  0.00     0.217 HD
ENDBRANCH  13  15
ENDBRANCH   7   8
ENDBRANCH   3   7
BRANCH   1  17
HETATM   17  C   UNL     1      42.499 -15.623   5.893  1.00  0.00     0.127 C 
BRANCH  17  18
HETATM   18  N   UNL     1      41.385 -15.028   5.163  1.00  0.00    -0.376 N 
HETATM   19  H   UNL     1      40.501 -15.072   5.682  1.00  0.00     0.161 HD
BRANCH  18  20
HETATM   20  C   UNL     1      41.122 -15.173   3.803  1.00  0.00     0.100 A 
HETATM   21  C   UNL     1      41.803 -14.343   2.895  1.00  0.00     0.048 A 
HETATM   22  C   UNL     1      41.594 -14.473   1.524  1.00  0.00     0.005 A 
HETATM   23  C   UNL     1      40.713 -15.437   1.058  1.00  0.00     0.017 A 
HETATM   24  C   UNL     1      40.075 -16.254   1.976  1.00  0.00     0.089 A 
HETATM   25  N   UNL     1      40.303 -16.108   3.293  1.00  0.00    -0.353 N 
HETATM   26  H   UNL     1      39.813 -16.736   3.919  1.00  0.00     0.166 HD
ENDBRANCH  18  20
ENDBRANCH  17  18
ENDBRANCH   1  17
TORSDOF 6
ENDMDL
MODEL 3
REMARK VINA RESULT:      -8.1      5.386      7.901
REMARK  6 active torsions:
REMARK  status: ('A' for Active; 'I' for Inactive)
REMARK    1  A    between atoms: C_3  and  N_4 
REMARK    2  A    between atoms: N_4  and  C_5 
REMARK    3  A    between atoms: C_5  and  C_6 
REMARK    4  A    between atoms: N_8  and  C_10 
REMARK    5  A    between atoms: C_10  and  C_11 
REMARK    6  A    between atoms: C_16  and  O_17 
ROOT
HETATM    1  C   UNL     1      40.851 -16.302   1.047  1.00  0.00     0.031 C 
HETATM    2  C   UNL     1      41.587 -17.628   1.247  1.00  0.00     0.241 C 
HETATM    3  N   UNL     1      42.090 -17.607   2.676  1.00  0.00    -0.067 N 
HETATM    4  H   UNL     1      41.667 -18.419   3.154  1.00  0.00     0.280 HD
HETATM    5  C   UNL     1      41.545 -16.373   3.352  1.00  0.00     0.235 C 
HETATM    6  C   UNL     1      40.385 -15.962   2.463  1.00  0.00     0.035 C 
ENDROOT
BRANCH   3   7
HETATM    7  C   UNL     1      43.579 -17.811   2.817  1.00  0.00     0.274 C 
BRANCH   7   8
HETATM    8  C   UNL     1      43.968 -19.232   3.113  1.00  0.00    -0.013 A 
HETATM    9  C   UNL     1      44.450 -19.648   4.366  1.00  0.00     0.019 A 
HETATM   10 BR   UNL     1      44.678 -18.426   5.802  1.00  0.00    -0.051 Br
HETATM   11  C   UNL     1      44.796 -20.985   4.591  1.00  0.00     0.022 A 
HETATM   12  C   UNL     1      44.678 -21.924   3.566  1.00  0.00     0.038 A 
HETATM   13  C   UNL     1      44.213 -21.516   2.324  1.00  0.00     0.066 A 
HETATM   14  C   UNL     1      43.858 -20.191   2.092  1.00  0.00     0.046 A 
BRANCH  13  15
HETATM   15  O   UNL     1      44.087 -22.381   1.282  1.00  0.00    -0.361 OA
HETATM   16  H   UNL     1      43.351 -22.095   0.710  1.00  0.00     0.217 HD
ENDBRANCH  13  15
ENDBRANCH   7   8
ENDBRANCH   3   7
BRANCH   1  17
HETATM   17  C   UNL     1      41.733 -15.197   0.431  1.00  0.00     0.127 C 
BRANCH  17  18
HETATM   18  N   UNL     1      41.705 -15.293  -1.023  1.00  0.00    -0.376 N 
HETATM   19  H   UNL     1      42.502 -14.824  -1.468  1.00  0.00     0.161 HD
BRANCH  18  20
HETATM   20  C   UNL     1      40.583 -15.151  -1.836  1.00  0.00     0.100 A 
HETATM   21  C   UNL     1      40.523 -15.884  -3.033  1.00  0.00     0.048 A 
HETATM   22  C   UNL     1      39.406 -15.797  -3.862  1.00  0.00     0.005 A 
HETATM   23  C   UNL     1      38.346 -14.986  -3.491  1.00  0.00     0.017 A 
HETATM   24  C   UNL     1      38.425 -14.293  -2.295  1.00  0.00     0.089 A 
HETATM   25  N   UNL     1      39.514 -14.404  -1.513  1.00  0.00    -0.353 N 
HETATM   26  H   UNL     1      39.515 -13.879  -0.647  1.00  0.00     0.166 HD
ENDBRANCH  18  20
ENDBRANCH  17  18
ENDBRANCH   1  17
TORSDOF 6
ENDMDL
MODEL 4
REMARK VINA RESULT:      -8.0      2.193      3.322
REMARK  6 active torsions:
REMARK  status: ('A' for Active; 'I' for Inactive)
REMARK    1  A    between atoms: C_3  and  N_4 
REMARK    2  A    between atoms: N_4  and  C_5 
REMARK    3  A    between atoms: C_5  and  C_6 
REMARK    4  A    between atoms: N_8  and  C_10 
REMARK    5  A    between atoms: C_10  and  C_11 
REMARK    6  A    between atoms: C_16  and  O_17 
ROOT
HETATM    1  C   UNL     1      42.916 -16.570   6.998  1.00  0.00     0.031 C 
HETATM    2  C   UNL     1      42.871 -17.497   5.780  1.00  0.00     0.241 C 
HETATM    3  N   UNL     1      43.843 -18.619   6.083  1.00  0.00    -0.067 N 
HETATM    4  H   UNL     1      43.299 -19.498   6.063  1.00  0.00     0.280 HD
HETATM    5  C   UNL     1      44.339 -18.448   7.498  1.00  0.00     0.235 C 
HETATM    6  C   UNL     1      43.313 -17.522   8.126  1.00  0.00     0.035 C 
ENDROOT
BRANCH   3   7
HETATM    7  C   UNL     1      44.920 -18.810   5.043  1.00  0.00     0.274 C 
BRANCH   7   8
HETATM    8  C   UNL     1      44.589 -19.855   4.015  1.00  0.00    -0.013 A 
HETATM    9  C   UNL     1      44.038 -19.547   2.760  1.00  0.00     0.019 A 
HETATM   10 BR   UNL     1      43.634 -17.759   2.261  1.00  0.00    -0.051 Br
HETATM   11  C   UNL     1      43.749 -20.558   1.838  1.00  0.00     0.022 A 
HETATM   12  C   UNL     1      43.997 -21.894   2.158  1.00  0.00     0.038 A 
HETATM   13  C   UNL     1      44.531 -22.204   3.399  1.00  0.00     0.066 A 
HETATM   14  C   UNL     1      44.829 -21.205   4.321  1.00  0.00     0.046 A 
BRANCH  13  15
HETATM   15  O   UNL     1      44.783 -23.487   3.775  1.00  0.00    -0.361 OA
HETATM   16  H   UNL     1      44.334 -23.672   4.620  1.00  0.00     0.217 HD
ENDBRANCH  13  15
ENDBRANCH   7   8
ENDBRANCH   3   7
BRANCH   1  17
HETATM   17  C   UNL     1      43.900 -15.394   6.840  1.00  0.00     0.127 C 
BRANCH  17  18
HETATM   18  N   UNL     1      43.171 -14.179   6.496  1.00  0.00    -0.376 N 
HETATM   19  H   UNL     1      43.023 -13.563   7.302  1.00  0.00     0.161 HD
BRANCH  18  20
HETATM   20  C   UNL     1      42.067 -14.095   5.650  1.00  0.00     0.100 A 
HETATM   21  C   UNL     1      42.280 -14.146   4.261  1.00  0.00     0.048 A 
HETATM   22  C   UNL     1      41.204 -14.095   3.378  1.00  0.00     0.005 A 
HETATM   23  C   UNL     1      39.916 -14.004   3.880  1.00  0.00     0.017 A 
HETATM   24  C   UNL     1      39.737 -13.978   5.253  1.00  0.00     0.089 A 
HETATM   25  N   UNL     1      40.796 -14.036   6.080  1.00  0.00    -0.353 N 
HETATM   26  H   UNL     1      40.606 -14.019   7.074  1.00  0.00     0.166 HD
ENDBRANCH  18  20
ENDBRANCH  17  18
ENDBRANCH   1  17
TORSDOF 6
ENDMDL
MODEL 5
REMARK VINA RESULT:      -7.7      3.255      6.911
REMARK  6 active torsions:
REMARK  status: ('A' for Active; 'I' for Inactive)
REMARK    1  A    between atoms: C_3  and  N_4 
REMARK    2  A    between atoms: N_4  and  C_5 
REMARK    3  A    between atoms: C_5  and  C_6 
REMARK    4  A    between atoms: N_8  and  C_10 
REMARK    5  A    between atoms: C_10  and  C_11 
REMARK    6  A    between atoms: C_16  and  O_17 
ROOT
HETATM    1  C   UNL     1      44.189 -17.551   6.796  1.00  0.00     0.031 C 
HETATM    2  C   UNL     1      44.156 -16.028   6.641  1.00  0.00     0.241 C 
HETATM    3  N   UNL     1      42.947 -15.730   5.778  1.00  0.00    -0.067 N 
HETATM    4  H   UNL     1      42.326 -15.120   6.335  1.00  0.00     0.280 HD
HETATM    5  C   UNL     1      42.198 -17.020   5.549  1.00  0.00     0.235 C 
HETATM    6  C   UNL     1      42.717 -17.933   6.646  1.00  0.00     0.035 C 
ENDROOT
BRANCH   3   7
HETATM    7  C   UNL     1      43.250 -14.934   4.532  1.00  0.00     0.274 C 
BRANCH   7   8
HETATM    8  C   UNL     1      42.635 -15.505   3.286  1.00  0.00    -0.013 A 
HETATM    9  C   UNL     1      41.287 -15.312   2.941  1.00  0.00     0.019 A 
HETATM   10 BR   UNL     1      40.105 -14.322   4.051  1.00  0.00    -0.051 Br
HETATM   11  C   UNL     1      40.763 -15.864   1.767  1.00  0.00     0.022 A 
HETATM   12  C   UNL     1      41.574 -16.626   0.925  1.00  0.00     0.038 A 
HETATM   13  C   UNL     1      42.902 -16.828   1.266  1.00  0.00     0.066 A 
HETATM   14  C   UNL     1      43.436 -16.276   2.428  1.00  0.00     0.046 A 
BRANCH  13  15
HETATM   15  O   UNL     1      43.741 -17.571   0.494  1.00  0.00    -0.361 OA
HETATM   16  H   UNL     1      44.626 -17.163   0.491  1.00  0.00     0.217 HD
ENDBRANCH  13  15
ENDBRANCH   7   8
ENDBRANCH   3   7
BRANCH   1  17
HETATM   17  C   UNL     1      45.093 -18.254   5.764  1.00  0.00     0.127 C 
BRANCH  17  18
HETATM   18  N   UNL     1      44.791 -19.680   5.730  1.00  0.00    -0.376 N 
HETATM   19  H   UNL     1      45.353 -20.222   6.395  1.00  0.00     0.161 HD
BRANCH  18  20
HETATM   20  C   UNL     1      44.573 -20.447   4.587  1.00  0.00     0.100 A 
HETATM   21  C   UNL     1      44.161 -19.798   3.411  1.00  0.00     0.048 A 
HETATM   22  C   UNL     1      43.961 -20.520   2.236  1.00  0.00     0.005 A 
HETATM   23  C   UNL     1      44.181 -21.888   2.234  1.00  0.00     0.017 A 
HETATM   24  C   UNL     1      44.608 -22.496   3.403  1.00  0.00     0.089 A 
HETATM   25  N   UNL     1      44.799 -21.770   4.518  1.00  0.00    -0.353 N 
HETATM   26  H   UNL     1      45.117 -22.265   5.343  1.00  0.00     0.166 HD
ENDBRANCH  18  20
ENDBRANCH  17  18
ENDBRANCH   1  17
TORSDOF 6
ENDMDL
MODEL 6
REMARK VINA RESULT:      -7.6      5.621      8.267
REMARK  6 active torsions:
REMARK  status: ('A' for Active; 'I' for Inactive)
REMARK    1  A    between atoms: C_3  and  N_4 
REMARK    2  A    between atoms: N_4  and  C_5 
REMARK    3  A    between atoms: C_5  and  C_6 
REMARK    4  A    between atoms: N_8  and  C_10 
REMARK    5  A    between atoms: C_10  and  C_11 
REMARK    6  A    between atoms: C_16  and  O_17 
ROOT
HETATM    1  C   UNL     1      40.988 -16.429   0.811  1.00  0.00     0.031 C 
HETATM    2  C   UNL     1      41.920 -17.544   1.292  1.00  0.00     0.241 C 
HETATM    3  N   UNL     1      41.942 -17.437   2.803  1.00  0.00    -0.067 N 
HETATM    4  H   UNL     1      41.598 -18.339   3.171  1.00  0.00     0.280 HD
HETATM    5  C   UNL     1      40.940 -16.388   3.219  1.00  0.00     0.235 C 
HETATM    6  C   UNL     1      40.045 -16.247   2.000  1.00  0.00     0.035 C 
ENDROOT
BRANCH   3   7
HETATM    7  C   UNL     1      43.321 -17.280   3.398  1.00  0.00     0.274 C 
BRANCH   7   8
HETATM    8  C   UNL     1      43.537 -18.093   4.643  1.00  0.00    -0.013 A 
HETATM    9  C   UNL     1      44.060 -19.397   4.624  1.00  0.00     0.019 A 
HETATM   10 BR   UNL     1      44.519 -20.263   2.997  1.00  0.00    -0.051 Br
HETATM   11  C   UNL     1      44.244 -20.111   5.813  1.00  0.00     0.022 A 
HETATM   12  C   UNL     1      43.899 -19.539   7.038  1.00  0.00     0.038 A 
HETATM   13  C   UNL     1      43.371 -18.257   7.061  1.00  0.00     0.066 A 
HETATM   14  C   UNL     1      43.192 -17.534   5.885  1.00  0.00     0.046 A 
BRANCH  13  15
HETATM   15  O   UNL     1      43.004 -17.649   8.221  1.00  0.00    -0.361 OA
HETATM   16  H   UNL     1      42.356 -16.947   8.029  1.00  0.00     0.217 HD
ENDBRANCH  13  15
ENDBRANCH   7   8
ENDBRANCH   3   7
BRANCH   1  17
HETATM   17  C   UNL     1      41.728 -15.130   0.436  1.00  0.00     0.127 C 
BRANCH  17  18
HETATM   18  N   UNL     1      41.712 -14.949  -1.011  1.00  0.00    -0.376 N 
HETATM   19  H   UNL     1      42.335 -14.198  -1.326  1.00  0.00     0.161 HD
BRANCH  18  20
HETATM   20  C   UNL     1      40.585 -14.978  -1.831  1.00  0.00     0.100 A 
HETATM   21  C   UNL     1      40.592 -15.826  -2.952  1.00  0.00     0.048 A 
HETATM   22  C   UNL     1      39.477 -15.910  -3.782  1.00  0.00     0.005 A 
HETATM   23  C   UNL     1      38.351 -15.157  -3.488  1.00  0.00     0.017 A 
HETATM   24  C   UNL     1      38.366 -14.349  -2.364  1.00  0.00     0.089 A 
HETATM   25  N   UNL     1      39.457 -14.294  -1.578  1.00  0.00    -0.353 N 
HETATM   26  H   UNL     1      39.411 -13.691  -0.766  1.00  0.00     0.166 HD
ENDBRANCH  18  20
ENDBRANCH  17  18
ENDBRANCH   1  17
TORSDOF 6
ENDMDL
MODEL 7
REMARK VINA RESULT:      -7.5      4.103      7.452
REMARK  6 active torsions:
REMARK  status: ('A' for Active; 'I' for Inactive)
REMARK    1  A    between atoms: C_3  and  N_4 
REMARK    2  A    between atoms: N_4  and  C_5 
REMARK    3  A    between atoms: C_5  and  C_6 
REMARK    4  A    between atoms: N_8  and  C_10 
REMARK    5  A    between atoms: C_10  and  C_11 
REMARK    6  A    between atoms: C_16  and  O_17 
ROOT
HETATM    1  C   UNL     1      43.762 -16.728   6.034  1.00  0.00     0.031 C 
HETATM    2  C   UNL     1      43.345 -16.217   4.653  1.00  0.00     0.241 C 
HETATM    3  N   UNL     1      41.832 -16.291   4.628  1.00  0.00    -0.067 N 
HETATM    4  H   UNL     1      41.489 -15.330   4.462  1.00  0.00     0.280 HD
HETATM    5  C   UNL     1      41.354 -16.691   6.002  1.00  0.00     0.235 C 
HETATM    6  C   UNL     1      42.545 -16.391   6.895  1.00  0.00     0.035 C 
ENDROOT
BRANCH   3   7
HETATM    7  C   UNL     1      41.265 -17.103   3.489  1.00  0.00     0.274 C 
BRANCH   7   8
HETATM    8  C   UNL     1      40.938 -16.287   2.270  1.00  0.00    -0.013 A 
HETATM    9  C   UNL     1      41.728 -16.296   1.108  1.00  0.00     0.019 A 
HETATM   10 BR   UNL     1      43.314 -17.334   0.990  1.00  0.00    -0.051 Br
HETATM   11  C   UNL     1      41.377 -15.519  -0.001  1.00  0.00     0.022 A 
HETATM   12  C   UNL     1      40.239 -14.713   0.036  1.00  0.00     0.038 A 
HETATM   13  C   UNL     1      39.461 -14.693   1.184  1.00  0.00     0.066 A 
HETATM   14  C   UNL     1      39.796 -15.468   2.290  1.00  0.00     0.046 A 
BRANCH  13  15
HETATM   15  O   UNL     1      38.347 -13.919   1.287  1.00  0.00    -0.361 OA
HETATM   16  H   UNL     1      38.063 -13.880   2.218  1.00  0.00     0.217 HD
ENDBRANCH  13  15
ENDBRANCH   7   8
ENDBRANCH   3   7
BRANCH   1  17
HETATM   17  C   UNL     1      44.106 -18.231   6.056  1.00  0.00     0.127 C 
BRANCH  17  18
HETATM   18  N   UNL     1      44.378 -18.697   4.701  1.00  0.00    -0.376 N 
HETATM   19  H   UNL     1      43.898 -18.140   3.985  1.00  0.00     0.161 HD
BRANCH  18  20
HETATM   20  C   UNL     1      44.432 -20.025   4.284  1.00  0.00     0.100 A 
HETATM   21  C   UNL     1      44.281 -20.306   2.915  1.00  0.00     0.048 A 
HETATM   22  C   UNL     1      44.359 -21.616   2.448  1.00  0.00     0.005 A 
HETATM   23  C   UNL     1      44.595 -22.645   3.346  1.00  0.00     0.017 A 
HETATM   24  C   UNL     1      44.761 -22.335   4.685  1.00  0.00     0.089 A 
HETATM   25  N   UNL     1      44.688 -21.058   5.103  1.00  0.00    -0.353 N 
HETATM   26  H   UNL     1      44.823 -20.889   6.093  1.00  0.00     0.166 HD
ENDBRANCH  18  20
ENDBRANCH  17  18
ENDBRANCH   1  17
TORSDOF 6
ENDMDL
MODEL 8
REMARK VINA RESULT:      -7.2      4.123      7.539
REMARK  6 active torsions:
REMARK  status: ('A' for Active; 'I' for Inactive)
REMARK    1  A    between atoms: C_3  and  N_4 
REMARK    2  A    between atoms: N_4  and  C_5 
REMARK    3  A    between atoms: C_5  and  C_6 
REMARK    4  A    between atoms: N_8  and  C_10 
REMARK    5  A    between atoms: C_10  and  C_11 
REMARK    6  A    between atoms: C_16  and  O_17 
ROOT
HETATM    1  C   UNL     1      44.325 -17.496   6.944  1.00  0.00     0.031 C 
HETATM    2  C   UNL     1      43.946 -16.637   5.735  1.00  0.00     0.241 C 
HETATM    3  N   UNL     1      42.432 -16.615   5.706  1.00  0.00    -0.067 N 
HETATM    4  H   UNL     1      42.146 -15.625   5.785  1.00  0.00     0.280 HD
HETATM    5  C   UNL     1      41.923 -17.314   6.943  1.00  0.00     0.235 C 
HETATM    6  C   UNL     1      43.124 -17.313   7.872  1.00  0.00     0.035 C 
ENDROOT
BRANCH   3   7
HETATM    7  C   UNL     1      41.825 -17.087   4.406  1.00  0.00     0.274 C 
BRANCH   7   8
HETATM    8  C   UNL     1      40.998 -16.042   3.712  1.00  0.00    -0.013 A 
HETATM    9  C   UNL     1      40.602 -16.148   2.368  1.00  0.00     0.019 A 
HETATM   10 BR   UNL     1      41.109 -17.630   1.294  1.00  0.00    -0.051 Br
HETATM   11  C   UNL     1      39.829 -15.147   1.769  1.00  0.00     0.022 A 
HETATM   12  C   UNL     1      39.449 -14.020   2.499  1.00  0.00     0.038 A 
HETATM   13  C   UNL     1      39.847 -13.905   3.822  1.00  0.00     0.066 A 
HETATM   14  C   UNL     1      40.609 -14.899   4.431  1.00  0.00     0.046 A 
BRANCH  13  15
HETATM   15  O   UNL     1      39.520 -12.826   4.583  1.00  0.00    -0.361 OA
HETATM   16  H   UNL     1      40.156 -12.740   5.316  1.00  0.00     0.217 HD
ENDBRANCH  13  15
ENDBRANCH   7   8
ENDBRANCH   3   7
BRANCH   1  17
HETATM   17  C   UNL     1      44.581 -18.975   6.591  1.00  0.00     0.127 C 
BRANCH  17  18
HETATM   18  N   UNL     1      45.094 -19.078   5.229  1.00  0.00    -0.376 N 
HETATM   19  H   UNL     1      45.054 -18.189   4.721  1.00  0.00     0.161 HD
BRANCH  18  20
HETATM   20  C   UNL     1      44.855 -20.122   4.338  1.00  0.00     0.100 A 
HETATM   21  C   UNL     1      44.980 -21.443   4.802  1.00  0.00     0.048 A 
HETATM   22  C   UNL     1      44.722 -22.518   3.955  1.00  0.00     0.005 A 
HETATM   23  C   UNL     1      44.330 -22.276   2.648  1.00  0.00     0.017 A 
HETATM   24  C   UNL     1      44.193 -20.964   2.227  1.00  0.00     0.089 A 
HETATM   25  N   UNL     1      44.443 -19.947   3.071  1.00  0.00    -0.353 N 
HETATM   26  H   UNL     1      44.322 -19.008   2.712  1.00  0.00     0.166 HD
ENDBRANCH  18  20
ENDBRANCH  17  18
ENDBRANCH   1  17
TORSDOF 6
ENDMDL
MODEL 9
REMARK VINA RESULT:      -7.2      4.039      6.811
REMARK  6 active torsions:
REMARK  status: ('A' for Active; 'I' for Inactive)
REMARK    1  A    between atoms: C_3  and  N_4 
REMARK    2  A    between atoms: N_4  and  C_5 
REMARK    3  A    between atoms: C_5  and  C_6 
REMARK    4  A    between atoms: N_8  and  C_10 
REMARK    5  A    between atoms: C_10  and  C_11 
REMARK    6  A    between atoms: C_16  and  O_17 
ROOT
HETATM    1  C   UNL     1      39.733 -13.832   5.375  1.00  0.00     0.031 C 
HETATM    2  C   UNL     1      40.545 -15.016   5.905  1.00  0.00     0.241 C 
HETATM    3  N   UNL     1      41.945 -14.484   6.134  1.00  0.00    -0.067 N 
HETATM    4  H   UNL     1      42.155 -14.619   7.137  1.00  0.00     0.280 HD
HETATM    5  C   UNL     1      41.931 -12.995   5.890  1.00  0.00     0.235 C 
HETATM    6  C   UNL     1      40.460 -12.632   5.980  1.00  0.00     0.035 C 
ENDROOT
BRANCH   3   7
HETATM    7  C   UNL     1      43.029 -15.244   5.408  1.00  0.00     0.274 C 
BRANCH   7   8
HETATM    8  C   UNL     1      43.381 -16.555   6.052  1.00  0.00    -0.013 A 
HETATM    9  C   UNL     1      43.666 -17.717   5.316  1.00  0.00     0.019 A 
HETATM   10 BR   UNL     1      43.601 -17.734   3.417  1.00  0.00    -0.051 Br
HETATM   11  C   UNL     1      43.991 -18.913   5.964  1.00  0.00     0.022 A 
HETATM   12  C   UNL     1      44.027 -18.971   7.358  1.00  0.00     0.038 A 
HETATM   13  C   UNL     1      43.736 -17.829   8.090  1.00  0.00     0.066 A 
HETATM   14  C   UNL     1      43.419 -16.632   7.454  1.00  0.00     0.046 A 
BRANCH  13  15
HETATM   15  O   UNL     1      43.742 -17.824   9.450  1.00  0.00    -0.361 OA
HETATM   16  H   UNL     1      43.546 -18.720   9.779  1.00  0.00     0.217 HD
ENDBRANCH  13  15
ENDBRANCH   7   8
ENDBRANCH   3   7
BRANCH   1  17
HETATM   17  C   UNL     1      39.668 -13.772   3.835  1.00  0.00     0.127 C 
BRANCH  17  18
HETATM   18  N   UNL     1      39.551 -15.120   3.291  1.00  0.00    -0.376 N 
HETATM   19  H   UNL     1      39.572 -15.845   4.016  1.00  0.00     0.161 HD
BRANCH  18  20
HETATM   20  C   UNL     1      40.184 -15.602   2.147  1.00  0.00     0.100 A 
HETATM   21  C   UNL     1      40.738 -14.677   1.245  1.00  0.00     0.048 A 
HETATM   22  C   UNL     1      41.406 -15.114   0.104  1.00  0.00     0.005 A 
HETATM   23  C   UNL     1      41.531 -16.474  -0.132  1.00  0.00     0.017 A 
HETATM   24  C   UNL     1      40.995 -17.361   0.786  1.00  0.00     0.089 A 
HETATM   25  N   UNL     1      40.361 -16.907   1.882  1.00  0.00    -0.353 N 
HETATM   26  H   UNL     1      39.993 -17.600   2.523  1.00  0.00     0.166 HD
ENDBRANCH  18  20
ENDBRANCH  17  18
ENDBRANCH   1  17
TORSDOF 6
ENDMDL
MODEL 10
REMARK VINA RESULT:      -7.1      2.355      3.411
REMARK  6 active torsions:
REMARK  status: ('A' for Active; 'I' for Inactive)
REMARK    1  A    between atoms: C_3  and  N_4 
REMARK    2  A    between atoms: N_4  and  C_5 
REMARK    3  A    between atoms: C_5  and  C_6 
REMARK    4  A    between atoms: N_8  and  C_10 
REMARK    5  A    between atoms: C_10  and  C_11 
REMARK    6  A    between atoms: C_16  and  O_17 
ROOT
HETATM    1  C   UNL     1      43.526 -14.193   4.584  1.00  0.00     0.031 C 
HETATM    2  C   UNL     1      43.316 -15.320   3.569  1.00  0.00     0.241 C 
HETATM    3  N   UNL     1      41.831 -15.620   3.590  1.00  0.00    -0.067 N 
HETATM    4  H   UNL     1      41.480 -15.457   2.632  1.00  0.00     0.280 HD
HETATM    5  C   UNL     1      41.155 -14.604   4.478  1.00  0.00     0.235 C 
HETATM    6  C   UNL     1      42.173 -13.482   4.576  1.00  0.00     0.035 C 
ENDROOT
BRANCH   3   7
HETATM    7  C   UNL     1      41.488 -17.060   3.885  1.00  0.00     0.274 C 
BRANCH   7   8
HETATM    8  C   UNL     1      42.562 -17.794   4.638  1.00  0.00    -0.013 A 
HETATM    9  C   UNL     1      43.557 -18.557   4.003  1.00  0.00     0.019 A 
HETATM   10 BR   UNL     1      43.611 -18.749   2.114  1.00  0.00    -0.051 Br
HETATM   11  C   UNL     1      44.536 -19.220   4.751  1.00  0.00     0.022 A 
HETATM   12  C   UNL     1      44.532 -19.140   6.144  1.00  0.00     0.038 A 
HETATM   13  C   UNL     1      43.546 -18.397   6.776  1.00  0.00     0.066 A 
HETATM   14  C   UNL     1      42.572 -17.727   6.041  1.00  0.00     0.046 A 
BRANCH  13  15
HETATM   15  O   UNL     1      43.480 -18.291   8.130  1.00  0.00    -0.361 OA
HETATM   16  H   UNL     1      44.379 -18.339   8.504  1.00  0.00     0.217 HD
ENDBRANCH  13  15
ENDBRANCH   7   8
ENDBRANCH   3   7
BRANCH   1  17
HETATM   17  C   UNL     1      43.924 -14.696   5.986  1.00  0.00     0.127 C 
BRANCH  17  18
HETATM   18  N   UNL     1      43.398 -13.794   7.004  1.00  0.00    -0.376 N 
HETATM   19  H   UNL     1      42.565 -13.283   6.691  1.00  0.00     0.161 HD
BRANCH  18  20
HETATM   20  C   UNL     1      44.149 -12.969   7.840  1.00  0.00     0.100 A 
HETATM   21  C   UNL     1      45.550 -13.003   7.734  1.00  0.00     0.048 A 
HETATM   22  C   UNL     1      46.340 -12.175   8.528  1.00  0.00     0.005 A 
HETATM   23  C   UNL     1      45.732 -11.306   9.420  1.00  0.00     0.017 A 
HETATM   24  C   UNL     1      44.348 -11.279   9.485  1.00  0.00     0.089 A 
HETATM   25  N   UNL     1      43.613 -12.087   8.700  1.00  0.00    -0.353 N 
HETATM   26  H   UNL     1      42.606 -12.022   8.785  1.00  0.00     0.166 HD
ENDBRANCH  18  20
ENDBRANCH  17  18
ENDBRANCH   1  17
TORSDOF 6
ENDMDL
