MODEL 1
REMARK VINA RESULT:      -9.6      0.000      0.000
REMARK  9 active torsions:
REMARK  status: ('A' for Active; 'I' for Inactive)
REMARK    1  A    between atoms: C_4  and  S_5 
REMARK    2  A    between atoms: S_5  and  C_6 
REMARK    3  A    between atoms: C_6  and  C_7 
REMARK       I    between atoms: C_7  and  N_8 
REMARK    4  A    between atoms: N_8  and  C_9 
REMARK    5  A    between atoms: C_9  and  C_10 
REMARK    6  A    between atoms: C_20  and  C_21 
REMARK    7  A    between atoms: C_26  and  C_27 
REMARK       I    between atoms: C_27  and  N_28 
REMARK    8  A    between atoms: N_28  and  C_29 
REMARK    9  A    between atoms: C_31  and  C_32 
ROOT
HETATM    1  C   UNL     1      44.416 -14.508   7.009  1.00  0.00     0.069 C 
HETATM    2  C   UNL     1      43.234 -13.979   6.231  1.00  0.00     0.019 C 
HETATM    3  N   UNL     1      43.003 -12.613   6.353  1.00  0.00    -0.353 N 
HETATM    4  C   UNL     1      41.819 -11.987   5.983  1.00  0.00     0.087 C 
HETATM    5  C   UNL     1      40.935 -12.676   5.226  1.00  0.00     0.057 C 
HETATM    6  C   UNL     1      39.537 -12.184   4.890  1.00  0.00     0.019 C 
HETATM    7  N   UNL     1      38.378 -11.774   4.612  1.00  0.00    -0.096 N 
HETATM    8  C   UNL     1      41.293 -14.060   4.679  1.00  0.00     0.129 C 
HETATM    9  C   UNL     1      42.419 -14.734   5.456  1.00  0.00     0.048 C 
HETATM   10  H   UNL     1      43.483 -12.163   7.130  1.00  0.00     0.166 HD
ENDROOT
BRANCH   4  11
HETATM   11  S   UNL     1      41.477 -10.341   6.499  1.00  0.00    -0.102 SA
BRANCH  11  12
HETATM   12  C   UNL     1      41.046 -10.668   8.238  1.00  0.00     0.183 C 
BRANCH  12  13
HETATM   13  C   UNL     1      42.222 -10.860   9.179  1.00  0.00     0.227 C 
HETATM   14  N   UNL     1      41.975 -11.374  10.426  1.00  0.00    -0.356 N 
HETATM   15  H   UNL     1      41.014 -11.474  10.734  1.00  0.00     0.162 HD
HETATM   16  O   UNL     1      43.352 -10.525   8.821  1.00  0.00    -0.273 OA
BRANCH  14  17
HETATM   17  C   UNL     1      43.035 -11.448  11.408  1.00  0.00     0.161 C 
BRANCH  17  18
HETATM   18  C   UNL     1      42.755 -10.633  12.642  1.00  0.00    -0.041 A 
HETATM   19  C   UNL     1      41.669 -10.928  13.479  1.00  0.00     0.009 A 
HETATM   20  C   UNL     1      41.460 -10.204  14.655  1.00  0.00     0.001 A 
HETATM   21  C   UNL     1      42.343  -9.189  15.017  1.00  0.00     0.000 A 
HETATM   22  C   UNL     1      43.435  -8.896  14.204  1.00  0.00     0.001 A 
HETATM   23  C   UNL     1      43.642  -9.615  13.025  1.00  0.00     0.009 A 
ENDBRANCH  17  18
ENDBRANCH  14  17
ENDBRANCH  12  13
ENDBRANCH  11  12
ENDBRANCH   4  11
BRANCH   8  24
HETATM   24  C   UNL     1      41.600 -13.979   3.202  1.00  0.00     0.066 A 
HETATM   25  O   UNL     1      41.214 -15.045   2.442  1.00  0.00    -0.326 OA
HETATM   26  C   UNL     1      41.592 -14.778   1.165  1.00  0.00     0.142 A 
HETATM   27  C   UNL     1      42.239 -13.567   1.097  1.00  0.00     0.027 A 
HETATM   28  C   UNL     1      42.250 -13.050   2.413  1.00  0.00     0.035 A 
ENDBRANCH   8  24
BRANCH   9  29
HETATM   29  C   UNL     1      42.518 -16.236   5.466  1.00  0.00     0.255 C 
HETATM   30  N   UNL     1      43.515 -16.769   4.676  1.00  0.00    -0.323 N 
HETATM   31  H   UNL     1      44.091 -16.139   4.131  1.00  0.00     0.169 HD
HETATM   32  O   UNL     1      41.702 -16.891   6.106  1.00  0.00    -0.268 OA
BRANCH  30  33
HETATM   33  C   UNL     1      43.849 -18.133   4.516  1.00  0.00     0.035 A 
HETATM   34  C   UNL     1      43.750 -18.830   3.309  1.00  0.00     0.045 A 
HETATM   35  C   UNL     1      44.083 -20.195   3.236  1.00  0.00     0.050 A 
HETATM   36  C   UNL     1      44.527 -20.854   4.392  1.00  0.00     0.016 A 
HETATM   37  C   UNL     1      44.630 -20.165   5.598  1.00  0.00     0.003 A 
HETATM   38  C   UNL     1      44.286 -18.814   5.658  1.00  0.00     0.029 A 
BRANCH  35  39
HETATM   39  C   UNL     1      43.944 -20.962   1.944  1.00  0.00     0.417 C 
HETATM   40  F   UNL     1      42.845 -21.765   1.889  1.00  0.00    -0.166 F 
HETATM   41  F   UNL     1      43.861 -20.143   0.858  1.00  0.00    -0.166 F 
HETATM   42  F   UNL     1      45.011 -21.776   1.712  1.00  0.00    -0.166 F 
ENDBRANCH  35  39
ENDBRANCH  30  33
ENDBRANCH   9  29
TORSDOF 9
ENDMDL
MODEL 2
REMARK VINA RESULT:      -9.6      4.391      5.215
REMARK  9 active torsions:
REMARK  status: ('A' for Active; 'I' for Inactive)
REMARK    1  A    between atoms: C_4  and  S_5 
REMARK    2  A    between atoms: S_5  and  C_6 
REMARK    3  A    between atoms: C_6  and  C_7 
REMARK       I    between atoms: C_7  and  N_8 
REMARK    4  A    between atoms: N_8  and  C_9 
REMARK    5  A    between atoms: C_9  and  C_10 
REMARK    6  A    between atoms: C_20  and  C_21 
REMARK    7  A    between atoms: C_26  and  C_27 
REMARK       I    between atoms: C_27  and  N_28 
REMARK    8  A    between atoms: N_28  and  C_29 
REMARK    9  A    between atoms: C_31  and  C_32 
ROOT
HETATM    1  C   UNL     1      43.849 -13.973   3.216  1.00  0.00     0.069 C 
HETATM    2  C   UNL     1      42.555 -14.042   2.440  1.00  0.00     0.019 C 
HETATM    3  N   UNL     1      41.746 -12.914   2.527  1.00  0.00    -0.353 N 
HETATM    4  C   UNL     1      40.408 -12.884   2.156  1.00  0.00     0.087 C 
HETATM    5  C   UNL     1      39.917 -13.914   1.430  1.00  0.00     0.057 C 
HETATM    6  C   UNL     1      38.445 -14.097   1.099  1.00  0.00     0.019 C 
HETATM    7  N   UNL     1      37.224 -14.248   0.826  1.00  0.00    -0.096 N 
HETATM    8  C   UNL     1      40.848 -15.015   0.916  1.00  0.00     0.129 C 
HETATM    9  C   UNL     1      42.156 -15.101   1.696  1.00  0.00     0.048 C 
HETATM   10  H   UNL     1      41.980 -12.275   3.286  1.00  0.00     0.166 HD
ENDROOT
BRANCH   4  11
HETATM   11  S   UNL     1      39.376 -11.541   2.632  1.00  0.00    -0.102 SA
BRANCH  11  12
HETATM   12  C   UNL     1      39.816 -11.452   4.397  1.00  0.00     0.183 C 
BRANCH  12  13
HETATM   13  C   UNL     1      39.589 -12.723   5.194  1.00  0.00     0.227 C 
HETATM   14  N   UNL     1      40.527 -13.719   5.105  1.00  0.00    -0.356 N 
HETATM   15  H   UNL     1      41.260 -13.640   4.409  1.00  0.00     0.162 HD
HETATM   16  O   UNL     1      38.566 -12.847   5.870  1.00  0.00    -0.273 OA
BRANCH  14  17
HETATM   17  C   UNL     1      40.293 -15.001   5.732  1.00  0.00     0.161 C 
BRANCH  17  18
HETATM   18  C   UNL     1      41.542 -15.618   6.301  1.00  0.00    -0.041 A 
HETATM   19  C   UNL     1      42.750 -14.907   6.348  1.00  0.00     0.009 A 
HETATM   20  C   UNL     1      43.884 -15.468   6.938  1.00  0.00     0.001 A 
HETATM   21  C   UNL     1      43.820 -16.740   7.503  1.00  0.00     0.000 A 
HETATM   22  C   UNL     1      42.624 -17.452   7.478  1.00  0.00     0.001 A 
HETATM   23  C   UNL     1      41.490 -16.894   6.884  1.00  0.00     0.009 A 
ENDBRANCH  17  18
ENDBRANCH  14  17
ENDBRANCH  12  13
ENDBRANCH  11  12
ENDBRANCH   4  11
BRANCH   8  24
HETATM   24  C   UNL     1      41.087 -14.852  -0.567  1.00  0.00     0.066 A 
HETATM   25  O   UNL     1      41.539 -13.632  -0.978  1.00  0.00    -0.326 OA
HETATM   26  C   UNL     1      41.673 -13.695  -2.328  1.00  0.00     0.142 A 
HETATM   27  C   UNL     1      41.289 -14.929  -2.794  1.00  0.00     0.027 A 
HETATM   28  C   UNL     1      40.905 -15.679  -1.658  1.00  0.00     0.035 A 
ENDBRANCH   8  24
BRANCH   9  29
HETATM   29  C   UNL     1      42.906 -16.406   1.746  1.00  0.00     0.255 C 
HETATM   30  N   UNL     1      42.951 -17.017   2.980  1.00  0.00    -0.323 N 
HETATM   31  H   UNL     1      42.510 -16.555   3.766  1.00  0.00     0.169 HD
HETATM   32  O   UNL     1      43.469 -16.816   0.735  1.00  0.00    -0.268 OA
BRANCH  30  33
HETATM   33  C   UNL     1      43.559 -18.249   3.308  1.00  0.00     0.035 A 
HETATM   34  C   UNL     1      43.502 -19.392   2.507  1.00  0.00     0.045 A 
HETATM   35  C   UNL     1      44.118 -20.590   2.913  1.00  0.00     0.050 A 
HETATM   36  C   UNL     1      44.803 -20.625   4.137  1.00  0.00     0.016 A 
HETATM   37  C   UNL     1      44.868 -19.490   4.939  1.00  0.00     0.003 A 
HETATM   38  C   UNL     1      44.242 -18.312   4.529  1.00  0.00     0.029 A 
BRANCH  35  39
HETATM   39  C   UNL     1      44.029 -21.837   2.069  1.00  0.00     0.417 C 
HETATM   40  F   UNL     1      44.784 -21.798   0.936  1.00  0.00    -0.166 F 
HETATM   41  F   UNL     1      44.426 -22.953   2.743  1.00  0.00    -0.166 F 
HETATM   42  F   UNL     1      42.755 -22.089   1.657  1.00  0.00    -0.166 F 
ENDBRANCH  35  39
ENDBRANCH  30  33
ENDBRANCH   9  29
TORSDOF 9
ENDMDL
MODEL 3
REMARK VINA RESULT:      -9.5      1.517      2.125
REMARK  9 active torsions:
REMARK  status: ('A' for Active; 'I' for Inactive)
REMARK    1  A    between atoms: C_4  and  S_5 
REMARK    2  A    between atoms: S_5  and  C_6 
REMARK    3  A    between atoms: C_6  and  C_7 
REMARK       I    between atoms: C_7  and  N_8 
REMARK    4  A    between atoms: N_8  and  C_9 
REMARK    5  A    between atoms: C_9  and  C_10 
REMARK    6  A    between atoms: C_20  and  C_21 
REMARK    7  A    between atoms: C_26  and  C_27 
REMARK       I    between atoms: C_27  and  N_28 
REMARK    8  A    between atoms: N_28  and  C_29 
REMARK    9  A    between atoms: C_31  and  C_32 
ROOT
HETATM    1  C   UNL     1      44.235 -15.220   6.922  1.00  0.00     0.069 C 
HETATM    2  C   UNL     1      43.106 -14.530   6.195  1.00  0.00     0.019 C 
HETATM    3  N   UNL     1      42.891 -13.203   6.549  1.00  0.00    -0.353 N 
HETATM    4  C   UNL     1      41.739 -12.490   6.239  1.00  0.00     0.087 C 
HETATM    5  C   UNL     1      40.886 -13.009   5.327  1.00  0.00     0.057 C 
HETATM    6  C   UNL     1      39.517 -12.428   5.016  1.00  0.00     0.019 C 
HETATM    7  N   UNL     1      38.381 -11.946   4.759  1.00  0.00    -0.096 N 
HETATM    8  C   UNL     1      41.250 -14.281   4.558  1.00  0.00     0.129 C 
HETATM    9  C   UNL     1      42.321 -15.113   5.256  1.00  0.00     0.048 C 
HETATM   10  H   UNL     1      43.336 -12.912   7.418  1.00  0.00     0.166 HD
ENDROOT
BRANCH   4  11
HETATM   11  S   UNL     1      41.397 -10.954   7.026  1.00  0.00    -0.102 SA
BRANCH  11  12
HETATM   12  C   UNL     1      39.970 -11.461   8.038  1.00  0.00     0.183 C 
BRANCH  12  13
HETATM   13  C   UNL     1      39.855 -10.786   9.392  1.00  0.00     0.227 C 
HETATM   14  N   UNL     1      40.206 -11.506  10.505  1.00  0.00    -0.356 N 
HETATM   15  H   UNL     1      40.390 -12.499  10.409  1.00  0.00     0.162 HD
HETATM   16  O   UNL     1      39.426  -9.634   9.467  1.00  0.00    -0.273 OA
BRANCH  14  17
HETATM   17  C   UNL     1      39.986 -10.961  11.827  1.00  0.00     0.161 C 
BRANCH  17  18
HETATM   18  C   UNL     1      41.251 -10.484  12.488  1.00  0.00    -0.041 A 
HETATM   19  C   UNL     1      42.374 -10.115  11.733  1.00  0.00     0.009 A 
HETATM   20  C   UNL     1      43.517  -9.611  12.356  1.00  0.00     0.001 A 
HETATM   21  C   UNL     1      43.546  -9.456  13.741  1.00  0.00     0.000 A 
HETATM   22  C   UNL     1      42.433  -9.802  14.502  1.00  0.00     0.001 A 
HETATM   23  C   UNL     1      41.291 -10.311  13.881  1.00  0.00     0.009 A 
ENDBRANCH  17  18
ENDBRANCH  14  17
ENDBRANCH  12  13
ENDBRANCH  11  12
ENDBRANCH   4  11
BRANCH   8  24
HETATM   24  C   UNL     1      41.637 -13.945   3.137  1.00  0.00     0.066 A 
HETATM   25  O   UNL     1      41.550 -14.959   2.228  1.00  0.00    -0.326 OA
HETATM   26  C   UNL     1      41.951 -14.454   1.032  1.00  0.00     0.142 A 
HETATM   27  C   UNL     1      42.321 -13.137   1.165  1.00  0.00     0.027 A 
HETATM   28  C   UNL     1      42.124 -12.806   2.526  1.00  0.00     0.035 A 
ENDBRANCH   8  24
BRANCH   9  29
HETATM   29  C   UNL     1      42.395 -16.594   5.000  1.00  0.00     0.255 C 
HETATM   30  N   UNL     1      43.340 -16.990   4.077  1.00  0.00    -0.323 N 
HETATM   31  H   UNL     1      43.897 -16.279   3.620  1.00  0.00     0.169 HD
HETATM   32  O   UNL     1      41.601 -17.344   5.561  1.00  0.00    -0.268 OA
BRANCH  30  33
HETATM   33  C   UNL     1      43.641 -18.307   3.665  1.00  0.00     0.035 A 
HETATM   34  C   UNL     1      43.995 -19.342   4.536  1.00  0.00     0.045 A 
HETATM   35  C   UNL     1      44.300 -20.624   4.045  1.00  0.00     0.050 A 
HETATM   36  C   UNL     1      44.239 -20.860   2.663  1.00  0.00     0.016 A 
HETATM   37  C   UNL     1      43.885 -19.836   1.790  1.00  0.00     0.003 A 
HETATM   38  C   UNL     1      43.594 -18.566   2.290  1.00  0.00     0.029 A 
BRANCH  35  39
HETATM   39  C   UNL     1      44.718 -21.735   4.976  1.00  0.00     0.417 C 
HETATM   40  F   UNL     1      46.059 -21.975   4.990  1.00  0.00    -0.166 F 
HETATM   41  F   UNL     1      44.371 -21.488   6.271  1.00  0.00    -0.166 F 
HETATM   42  F   UNL     1      44.131 -22.922   4.657  1.00  0.00    -0.166 F 
ENDBRANCH  35  39
ENDBRANCH  30  33
ENDBRANCH   9  29
TORSDOF 9
ENDMDL
MODEL 4
REMARK VINA RESULT:      -9.4      2.113      2.772
REMARK  9 active torsions:
REMARK  status: ('A' for Active; 'I' for Inactive)
REMARK    1  A    between atoms: C_4  and  S_5 
REMARK    2  A    between atoms: S_5  and  C_6 
REMARK    3  A    between atoms: C_6  and  C_7 
REMARK       I    between atoms: C_7  and  N_8 
REMARK    4  A    between atoms: N_8  and  C_9 
REMARK    5  A    between atoms: C_9  and  C_10 
REMARK    6  A    between atoms: C_20  and  C_21 
REMARK    7  A    between atoms: C_26  and  C_27 
REMARK       I    between atoms: C_27  and  N_28 
REMARK    8  A    between atoms: N_28  and  C_29 
REMARK    9  A    between atoms: C_31  and  C_32 
ROOT
HETATM    1  C   UNL     1      43.884 -13.987   5.384  1.00  0.00     0.069 C 
HETATM    2  C   UNL     1      42.716 -13.620   4.499  1.00  0.00     0.019 C 
HETATM    3  N   UNL     1      42.437 -12.260   4.412  1.00  0.00    -0.353 N 
HETATM    4  C   UNL     1      41.248 -11.739   3.917  1.00  0.00     0.087 C 
HETATM    5  C   UNL     1      40.416 -12.562   3.239  1.00  0.00     0.057 C 
HETATM    6  C   UNL     1      39.017 -12.176   2.790  1.00  0.00     0.019 C 
HETATM    7  N   UNL     1      37.856 -11.854   2.418  1.00  0.00    -0.096 N 
HETATM    8  C   UNL     1      40.838 -13.997   2.913  1.00  0.00     0.129 C 
HETATM    9  C   UNL     1      41.955 -14.509   3.816  1.00  0.00     0.048 C 
HETATM   10  H   UNL     1      42.873 -11.685   5.131  1.00  0.00     0.166 HD
ENDROOT
BRANCH   4  11
HETATM   11  S   UNL     1      40.835 -10.049   4.175  1.00  0.00    -0.102 SA
BRANCH  11  12
HETATM   12  C   UNL     1      40.225 -10.161   5.888  1.00  0.00     0.183 C 
BRANCH  12  13
HETATM   13  C   UNL     1      41.197  -9.705   6.960  1.00  0.00     0.227 C 
HETATM   14  N   UNL     1      41.232 -10.401   8.141  1.00  0.00    -0.356 N 
HETATM   15  H   UNL     1      40.517 -11.099   8.320  1.00  0.00     0.162 HD
HETATM   16  O   UNL     1      41.904  -8.715   6.764  1.00  0.00    -0.273 OA
BRANCH  14  17
HETATM   17  C   UNL     1      42.038  -9.928   9.245  1.00  0.00     0.161 C 
BRANCH  17  18
HETATM   18  C   UNL     1      43.326 -10.690   9.406  1.00  0.00    -0.041 A 
HETATM   19  C   UNL     1      44.199 -10.430  10.472  1.00  0.00     0.009 A 
HETATM   20  C   UNL     1      45.357 -11.190  10.645  1.00  0.00     0.001 A 
HETATM   21  C   UNL     1      45.649 -12.229   9.764  1.00  0.00     0.000 A 
HETATM   22  C   UNL     1      44.783 -12.510   8.711  1.00  0.00     0.001 A 
HETATM   23  C   UNL     1      43.627 -11.748   8.533  1.00  0.00     0.009 A 
ENDBRANCH  17  18
ENDBRANCH  14  17
ENDBRANCH  12  13
ENDBRANCH  11  12
ENDBRANCH   4  11
BRANCH   8  24
HETATM   24  C   UNL     1      41.198 -14.119   1.450  1.00  0.00     0.066 A 
HETATM   25  O   UNL     1      40.915 -15.313   0.853  1.00  0.00    -0.326 OA
HETATM   26  C   UNL     1      41.325 -15.217  -0.438  1.00  0.00     0.142 A 
HETATM   27  C   UNL     1      41.892 -13.987  -0.673  1.00  0.00     0.027 A 
HETATM   28  C   UNL     1      41.816 -13.276   0.547  1.00  0.00     0.035 A 
ENDBRANCH   8  24
BRANCH   9  29
HETATM   29  C   UNL     1      42.102 -15.989   4.048  1.00  0.00     0.255 C 
HETATM   30  N   UNL     1      43.303 -16.536   3.649  1.00  0.00    -0.323 N 
HETATM   31  H   UNL     1      43.989 -15.931   3.213  1.00  0.00     0.169 HD
HETATM   32  O   UNL     1      41.159 -16.624   4.511  1.00  0.00    -0.268 OA
BRANCH  30  33
HETATM   33  C   UNL     1      43.718 -17.881   3.768  1.00  0.00     0.035 A 
HETATM   34  C   UNL     1      43.541 -18.849   2.777  1.00  0.00     0.045 A 
HETATM   35  C   UNL     1      43.964 -20.175   2.980  1.00  0.00     0.050 A 
HETATM   36  C   UNL     1      44.580 -20.518   4.193  1.00  0.00     0.016 A 
HETATM   37  C   UNL     1      44.763 -19.559   5.184  1.00  0.00     0.003 A 
HETATM   38  C   UNL     1      44.327 -18.249   4.974  1.00  0.00     0.029 A 
BRANCH  35  39
HETATM   39  C   UNL     1      43.743 -21.233   1.927  1.00  0.00     0.417 C 
HETATM   40  F   UNL     1      44.362 -20.977   0.742  1.00  0.00    -0.166 F 
HETATM   41  F   UNL     1      44.185 -22.461   2.321  1.00  0.00    -0.166 F 
HETATM   42  F   UNL     1      42.423 -21.394   1.630  1.00  0.00    -0.166 F 
ENDBRANCH  35  39
ENDBRANCH  30  33
ENDBRANCH   9  29
TORSDOF 9
ENDMDL
MODEL 5
REMARK VINA RESULT:      -9.4      2.601      3.625
REMARK  9 active torsions:
REMARK  status: ('A' for Active; 'I' for Inactive)
REMARK    1  A    between atoms: C_4  and  S_5 
REMARK    2  A    between atoms: S_5  and  C_6 
REMARK    3  A    between atoms: C_6  and  C_7 
REMARK       I    between atoms: C_7  and  N_8 
REMARK    4  A    between atoms: N_8  and  C_9 
REMARK    5  A    between atoms: C_9  and  C_10 
REMARK    6  A    between atoms: C_20  and  C_21 
REMARK    7  A    between atoms: C_26  and  C_27 
REMARK       I    between atoms: C_27  and  N_28 
REMARK    8  A    between atoms: N_28  and  C_29 
REMARK    9  A    between atoms: C_31  and  C_32 
ROOT
HETATM    1  C   UNL     1      43.701 -13.861   3.642  1.00  0.00     0.069 C 
HETATM    2  C   UNL     1      42.454 -13.975   2.798  1.00  0.00     0.019 C 
HETATM    3  N   UNL     1      41.584 -12.892   2.868  1.00  0.00    -0.353 N 
HETATM    4  C   UNL     1      40.267 -12.919   2.429  1.00  0.00     0.087 C 
HETATM    5  C   UNL     1      39.867 -13.954   1.656  1.00  0.00     0.057 C 
HETATM    6  C   UNL     1      38.425 -14.202   1.245  1.00  0.00     0.019 C 
HETATM    7  N   UNL     1      37.229 -14.407   0.905  1.00  0.00    -0.096 N 
HETATM    8  C   UNL     1      40.877 -14.995   1.167  1.00  0.00     0.129 C 
HETATM    9  C   UNL     1      42.147 -15.035   2.012  1.00  0.00     0.048 C 
HETATM   10  H   UNL     1      41.746 -12.261   3.652  1.00  0.00     0.166 HD
ENDROOT
BRANCH   4  11
HETATM   11  S   UNL     1      39.145 -11.642   2.880  1.00  0.00    -0.102 SA
BRANCH  11  12
HETATM   12  C   UNL     1      40.070 -10.927   4.277  1.00  0.00     0.183 C 
BRANCH  12  13
HETATM   13  C   UNL     1      39.487 -11.191   5.652  1.00  0.00     0.227 C 
HETATM   14  N   UNL     1      39.885 -10.388   6.690  1.00  0.00    -0.356 N 
HETATM   15  H   UNL     1      40.656  -9.745   6.543  1.00  0.00     0.162 HD
HETATM   16  O   UNL     1      38.703 -12.128   5.815  1.00  0.00    -0.273 OA
BRANCH  14  17
HETATM   17  C   UNL     1      39.469 -10.682   8.044  1.00  0.00     0.161 C 
BRANCH  17  18
HETATM   18  C   UNL     1      40.611 -10.699   9.023  1.00  0.00    -0.041 A 
HETATM   19  C   UNL     1      40.398 -10.947  10.387  1.00  0.00     0.009 A 
HETATM   20  C   UNL     1      41.475 -11.025  11.273  1.00  0.00     0.001 A 
HETATM   21  C   UNL     1      42.777 -10.870  10.804  1.00  0.00     0.000 A 
HETATM   22  C   UNL     1      43.005 -10.638   9.450  1.00  0.00     0.001 A 
HETATM   23  C   UNL     1      41.929 -10.555   8.563  1.00  0.00     0.009 A 
ENDBRANCH  17  18
ENDBRANCH  14  17
ENDBRANCH  12  13
ENDBRANCH  11  12
ENDBRANCH   4  11
BRANCH   8  24
HETATM   24  C   UNL     1      41.184 -14.784  -0.297  1.00  0.00     0.066 A 
HETATM   25  O   UNL     1      41.754 -13.590  -0.632  1.00  0.00    -0.326 OA
HETATM   26  C   UNL     1      41.931 -13.600  -1.979  1.00  0.00     0.142 A 
HETATM   27  C   UNL     1      41.458 -14.772  -2.519  1.00  0.00     0.027 A 
HETATM   28  C   UNL     1      40.970 -15.538  -1.435  1.00  0.00     0.035 A 
ENDBRANCH   8  24
BRANCH   9  29
HETATM   29  C   UNL     1      42.959 -16.301   2.071  1.00  0.00     0.255 C 
HETATM   30  N   UNL     1      42.921 -16.974   3.274  1.00  0.00    -0.323 N 
HETATM   31  H   UNL     1      42.383 -16.577   4.034  1.00  0.00     0.169 HD
HETATM   32  O   UNL     1      43.637 -16.629   1.102  1.00  0.00    -0.268 OA
BRANCH  30  33
HETATM   33  C   UNL     1      43.562 -18.190   3.600  1.00  0.00     0.035 A 
HETATM   34  C   UNL     1      43.553 -19.326   2.786  1.00  0.00     0.045 A 
HETATM   35  C   UNL     1      44.200 -20.508   3.191  1.00  0.00     0.050 A 
HETATM   36  C   UNL     1      44.865 -20.535   4.426  1.00  0.00     0.016 A 
HETATM   37  C   UNL     1      44.880 -19.407   5.241  1.00  0.00     0.003 A 
HETATM   38  C   UNL     1      44.226 -18.245   4.832  1.00  0.00     0.029 A 
BRANCH  35  39
HETATM   39  C   UNL     1      44.164 -21.749   2.333  1.00  0.00     0.417 C 
HETATM   40  F   UNL     1      44.338 -22.909   3.024  1.00  0.00    -0.166 F 
HETATM   41  F   UNL     1      42.983 -21.887   1.666  1.00  0.00    -0.166 F 
HETATM   42  F   UNL     1      45.131 -21.739   1.374  1.00  0.00    -0.166 F 
ENDBRANCH  35  39
ENDBRANCH  30  33
ENDBRANCH   9  29
TORSDOF 9
ENDMDL
MODEL 6
REMARK VINA RESULT:      -9.4      4.695     10.283
REMARK  9 active torsions:
REMARK  status: ('A' for Active; 'I' for Inactive)
REMARK    1  A    between atoms: C_4  and  S_5 
REMARK    2  A    between atoms: S_5  and  C_6 
REMARK    3  A    between atoms: C_6  and  C_7 
REMARK       I    between atoms: C_7  and  N_8 
REMARK    4  A    between atoms: N_8  and  C_9 
REMARK    5  A    between atoms: C_9  and  C_10 
REMARK    6  A    between atoms: C_20  and  C_21 
REMARK    7  A    between atoms: C_26  and  C_27 
REMARK       I    between atoms: C_27  and  N_28 
REMARK    8  A    between atoms: N_28  and  C_29 
REMARK    9  A    between atoms: C_31  and  C_32 
ROOT
HETATM    1  C   UNL     1      39.615 -11.065   4.332  1.00  0.00     0.069 C 
HETATM    2  C   UNL     1      40.155 -12.454   4.578  1.00  0.00     0.019 C 
HETATM    3  N   UNL     1      40.193 -13.286   3.464  1.00  0.00    -0.353 N 
HETATM    4  C   UNL     1      40.357 -14.664   3.526  1.00  0.00     0.087 C 
HETATM    5  C   UNL     1      40.762 -15.213   4.694  1.00  0.00     0.057 C 
HETATM    6  C   UNL     1      40.821 -16.710   4.955  1.00  0.00     0.019 C 
HETATM    7  N   UNL     1      40.869 -17.950   5.171  1.00  0.00    -0.096 N 
HETATM    8  C   UNL     1      41.159 -14.324   5.874  1.00  0.00     0.129 C 
HETATM    9  C   UNL     1      40.584 -12.915   5.778  1.00  0.00     0.048 C 
HETATM   10  H   UNL     1      39.634 -12.971   2.673  1.00  0.00     0.166 HD
ENDROOT
BRANCH   4  11
HETATM   11  S   UNL     1      40.033 -15.668   2.118  1.00  0.00    -0.102 SA
BRANCH  11  12
HETATM   12  C   UNL     1      41.648 -15.528   1.287  1.00  0.00     0.183 C 
BRANCH  12  13
HETATM   13  C   UNL     1      42.834 -16.064   2.066  1.00  0.00     0.227 C 
HETATM   14  N   UNL     1      42.956 -17.423   2.205  1.00  0.00    -0.356 N 
HETATM   15  H   UNL     1      42.186 -18.016   1.915  1.00  0.00     0.162 HD
HETATM   16  O   UNL     1      43.635 -15.280   2.577  1.00  0.00    -0.273 OA
BRANCH  14  17
HETATM   17  C   UNL     1      43.988 -17.982   3.051  1.00  0.00     0.161 C 
BRANCH  17  18
HETATM   18  C   UNL     1      44.054 -19.484   2.990  1.00  0.00    -0.041 A 
HETATM   19  C   UNL     1      43.634 -20.186   1.851  1.00  0.00     0.009 A 
HETATM   20  C   UNL     1      43.763 -21.575   1.783  1.00  0.00     0.001 A 
HETATM   21  C   UNL     1      44.327 -22.276   2.847  1.00  0.00     0.000 A 
HETATM   22  C   UNL     1      44.763 -21.591   3.978  1.00  0.00     0.001 A 
HETATM   23  C   UNL     1      44.630 -20.203   4.050  1.00  0.00     0.009 A 
ENDBRANCH  17  18
ENDBRANCH  14  17
ENDBRANCH  12  13
ENDBRANCH  11  12
ENDBRANCH   4  11
BRANCH   8  24
HETATM   24  C   UNL     1      42.661 -14.308   6.039  1.00  0.00     0.066 A 
HETATM   25  O   UNL     1      43.187 -15.223   6.905  1.00  0.00    -0.326 OA
HETATM   26  C   UNL     1      44.531 -15.031   6.915  1.00  0.00     0.142 A 
HETATM   27  C   UNL     1      44.875 -13.987   6.089  1.00  0.00     0.027 A 
HETATM   28  C   UNL     1      43.668 -13.515   5.525  1.00  0.00     0.035 A 
ENDBRANCH   8  24
BRANCH   9  29
HETATM   29  C   UNL     1      40.367 -12.115   7.034  1.00  0.00     0.255 C 
HETATM   30  N   UNL     1      41.463 -11.409   7.484  1.00  0.00    -0.323 N 
HETATM   31  H   UNL     1      42.333 -11.487   6.971  1.00  0.00     0.169 HD
HETATM   32  O   UNL     1      39.283 -12.173   7.608  1.00  0.00    -0.268 OA
BRANCH  30  33
HETATM   33  C   UNL     1      41.537 -10.562   8.613  1.00  0.00     0.035 A 
HETATM   34  C   UNL     1      42.396 -10.768   9.695  1.00  0.00     0.045 A 
HETATM   35  C   UNL     1      42.396  -9.888  10.793  1.00  0.00     0.050 A 
HETATM   36  C   UNL     1      41.524  -8.790  10.789  1.00  0.00     0.016 A 
HETATM   37  C   UNL     1      40.666  -8.577   9.714  1.00  0.00     0.003 A 
HETATM   38  C   UNL     1      40.669  -9.463   8.636  1.00  0.00     0.029 A 
BRANCH  35  39
HETATM   39  C   UNL     1      43.297 -10.125  11.980  1.00  0.00     0.417 C 
HETATM   40  F   UNL     1      44.582 -10.430  11.651  1.00  0.00    -0.166 F 
HETATM   41  F   UNL     1      43.370  -9.042  12.803  1.00  0.00    -0.166 F 
HETATM   42  F   UNL     1      42.859 -11.153  12.760  1.00  0.00    -0.166 F 
ENDBRANCH  35  39
ENDBRANCH  30  33
ENDBRANCH   9  29
TORSDOF 9
ENDMDL
MODEL 7
REMARK VINA RESULT:      -9.1      5.339      7.941
REMARK  9 active torsions:
REMARK  status: ('A' for Active; 'I' for Inactive)
REMARK    1  A    between atoms: C_4  and  S_5 
REMARK    2  A    between atoms: S_5  and  C_6 
REMARK    3  A    between atoms: C_6  and  C_7 
REMARK       I    between atoms: C_7  and  N_8 
REMARK    4  A    between atoms: N_8  and  C_9 
REMARK    5  A    between atoms: C_9  and  C_10 
REMARK    6  A    between atoms: C_20  and  C_21 
REMARK    7  A    between atoms: C_26  and  C_27 
REMARK       I    between atoms: C_27  and  N_28 
REMARK    8  A    between atoms: N_28  and  C_29 
REMARK    9  A    between atoms: C_31  and  C_32 
ROOT
HETATM    1  C   UNL     1      43.567 -13.765   3.863  1.00  0.00     0.069 C 
HETATM    2  C   UNL     1      42.349 -13.903   2.980  1.00  0.00     0.019 C 
HETATM    3  N   UNL     1      41.430 -12.862   3.065  1.00  0.00    -0.353 N 
HETATM    4  C   UNL     1      40.127 -12.932   2.587  1.00  0.00     0.087 C 
HETATM    5  C   UNL     1      39.796 -13.954   1.766  1.00  0.00     0.057 C 
HETATM    6  C   UNL     1      38.378 -14.250   1.305  1.00  0.00     0.019 C 
HETATM    7  N   UNL     1      37.202 -14.495   0.924  1.00  0.00    -0.096 N 
HETATM    8  C   UNL     1      40.865 -14.930   1.269  1.00  0.00     0.129 C 
HETATM    9  C   UNL     1      42.112 -14.945   2.148  1.00  0.00     0.048 C 
HETATM   10  H   UNL     1      41.542 -12.255   3.875  1.00  0.00     0.166 HD
ENDROOT
BRANCH   4  11
HETATM   11  S   UNL     1      38.937 -11.723   3.052  1.00  0.00    -0.102 SA
BRANCH  11  12
HETATM   12  C   UNL     1      39.938 -10.223   2.802  1.00  0.00     0.183 C 
BRANCH  12  13
HETATM   13  C   UNL     1      40.477 -10.021   1.398  1.00  0.00     0.227 C 
HETATM   14  N   UNL     1      39.605  -9.616   0.421  1.00  0.00    -0.356 N 
HETATM   15  H   UNL     1      38.611  -9.603   0.627  1.00  0.00     0.162 HD
HETATM   16  O   UNL     1      41.664 -10.253   1.159  1.00  0.00    -0.273 OA
BRANCH  14  17
HETATM   17  C   UNL     1      40.034  -9.542  -0.958  1.00  0.00     0.161 C 
BRANCH  17  18
HETATM   18  C   UNL     1      39.461 -10.639  -1.815  1.00  0.00    -0.041 A 
HETATM   19  C   UNL     1      39.799 -10.756  -3.171  1.00  0.00     0.009 A 
HETATM   20  C   UNL     1      39.311 -11.817  -3.936  1.00  0.00     0.001 A 
HETATM   21  C   UNL     1      38.492 -12.782  -3.352  1.00  0.00     0.000 A 
HETATM   22  C   UNL     1      38.162 -12.687  -2.003  1.00  0.00     0.001 A 
HETATM   23  C   UNL     1      38.644 -11.624  -1.237  1.00  0.00     0.009 A 
ENDBRANCH  17  18
ENDBRANCH  14  17
ENDBRANCH  12  13
ENDBRANCH  11  12
ENDBRANCH   4  11
BRANCH   8  24
HETATM   24  C   UNL     1      41.201 -14.650  -0.178  1.00  0.00     0.066 A 
HETATM   25  O   UNL     1      41.827 -13.465  -0.438  1.00  0.00    -0.326 OA
HETATM   26  C   UNL     1      42.022 -13.408  -1.781  1.00  0.00     0.142 A 
HETATM   27  C   UNL     1      41.507 -14.527  -2.391  1.00  0.00     0.027 A 
HETATM   28  C   UNL     1      40.971 -15.330  -1.358  1.00  0.00     0.035 A 
ENDBRANCH   8  24
BRANCH   9  29
HETATM   29  C   UNL     1      42.979 -16.175   2.184  1.00  0.00     0.255 C 
HETATM   30  N   UNL     1      42.838 -16.966   3.305  1.00  0.00    -0.323 N 
HETATM   31  H   UNL     1      42.195 -16.670   4.029  1.00  0.00     0.169 HD
HETATM   32  O   UNL     1      43.781 -16.375   1.277  1.00  0.00    -0.268 OA
BRANCH  30  33
HETATM   33  C   UNL     1      43.502 -18.181   3.589  1.00  0.00     0.035 A 
HETATM   34  C   UNL     1      43.471 -19.306   2.761  1.00  0.00     0.045 A 
HETATM   35  C   UNL     1      44.143 -20.487   3.125  1.00  0.00     0.050 A 
HETATM   36  C   UNL     1      44.857 -20.524   4.332  1.00  0.00     0.016 A 
HETATM   37  C   UNL     1      44.895 -19.406   5.160  1.00  0.00     0.003 A 
HETATM   38  C   UNL     1      44.215 -18.244   4.792  1.00  0.00     0.029 A 
BRANCH  35  39
HETATM   39  C   UNL     1      44.083 -21.717   2.253  1.00  0.00     0.417 C 
HETATM   40  F   UNL     1      42.881 -21.907   1.642  1.00  0.00    -0.166 F 
HETATM   41  F   UNL     1      45.009 -21.693   1.254  1.00  0.00    -0.166 F 
HETATM   42  F   UNL     1      44.327 -22.858   2.956  1.00  0.00    -0.166 F 
ENDBRANCH  35  39
ENDBRANCH  30  33
ENDBRANCH   9  29
TORSDOF 9
ENDMDL
MODEL 8
REMARK VINA RESULT:      -9.0      5.037      7.886
REMARK  9 active torsions:
REMARK  status: ('A' for Active; 'I' for Inactive)
REMARK    1  A    between atoms: C_4  and  S_5 
REMARK    2  A    between atoms: S_5  and  C_6 
REMARK    3  A    between atoms: C_6  and  C_7 
REMARK       I    between atoms: C_7  and  N_8 
REMARK    4  A    between atoms: N_8  and  C_9 
REMARK    5  A    between atoms: C_9  and  C_10 
REMARK    6  A    between atoms: C_20  and  C_21 
REMARK    7  A    between atoms: C_26  and  C_27 
REMARK       I    between atoms: C_27  and  N_28 
REMARK    8  A    between atoms: N_28  and  C_29 
REMARK    9  A    between atoms: C_31  and  C_32 
ROOT
HETATM    1  C   UNL     1      42.987 -13.497   4.319  1.00  0.00     0.069 C 
HETATM    2  C   UNL     1      41.847 -13.625   3.336  1.00  0.00     0.019 C 
HETATM    3  N   UNL     1      41.310 -12.424   2.886  1.00  0.00    -0.353 N 
HETATM    4  C   UNL     1      40.087 -12.311   2.237  1.00  0.00     0.087 C 
HETATM    5  C   UNL     1      39.496 -13.437   1.778  1.00  0.00     0.057 C 
HETATM    6  C   UNL     1      38.089 -13.486   1.203  1.00  0.00     0.019 C 
HETATM    7  N   UNL     1      36.923 -13.525   0.726  1.00  0.00    -0.096 N 
HETATM    8  C   UNL     1      40.221 -14.783   1.853  1.00  0.00     0.129 C 
HETATM    9  C   UNL     1      41.339 -14.799   2.891  1.00  0.00     0.048 C 
HETATM   10  H   UNL     1      41.561 -11.606   3.440  1.00  0.00     0.166 HD
ENDROOT
BRANCH   4  11
HETATM   11  S   UNL     1      39.324 -10.740   2.029  1.00  0.00    -0.102 SA
BRANCH  11  12
HETATM   12  C   UNL     1      40.770  -9.675   2.334  1.00  0.00     0.183 C 
BRANCH  12  13
HETATM   13  C   UNL     1      41.442  -9.112   1.095  1.00  0.00     0.227 C 
HETATM   14  N   UNL     1      42.492  -9.809   0.554  1.00  0.00    -0.356 N 
HETATM   15  H   UNL     1      42.879 -10.591   1.071  1.00  0.00     0.162 HD
HETATM   16  O   UNL     1      41.058  -8.040   0.625  1.00  0.00    -0.273 OA
BRANCH  14  17
HETATM   17  C   UNL     1      43.254  -9.250  -0.541  1.00  0.00     0.161 C 
BRANCH  17  18
HETATM   18  C   UNL     1      42.971  -9.917  -1.859  1.00  0.00    -0.041 A 
HETATM   19  C   UNL     1      42.905 -11.314  -1.970  1.00  0.00     0.009 A 
HETATM   20  C   UNL     1      42.577 -11.916  -3.187  1.00  0.00     0.001 A 
HETATM   21  C   UNL     1      42.296 -11.130  -4.302  1.00  0.00     0.000 A 
HETATM   22  C   UNL     1      42.342  -9.742  -4.203  1.00  0.00     0.001 A 
HETATM   23  C   UNL     1      42.675  -9.138  -2.989  1.00  0.00     0.009 A 
ENDBRANCH  17  18
ENDBRANCH  14  17
ENDBRANCH  12  13
ENDBRANCH  11  12
ENDBRANCH   4  11
BRANCH   8  24
HETATM   24  C   UNL     1      40.718 -15.189   0.486  1.00  0.00     0.066 A 
HETATM   25  O   UNL     1      40.821 -14.195  -0.444  1.00  0.00    -0.326 OA
HETATM   26  C   UNL     1      41.267 -14.771  -1.591  1.00  0.00     0.142 A 
HETATM   27  C   UNL     1      41.426 -16.125  -1.420  1.00  0.00     0.027 A 
HETATM   28  C   UNL     1      41.067 -16.400  -0.081  1.00  0.00     0.035 A 
ENDBRANCH   8  24
BRANCH   9  29
HETATM   29  C   UNL     1      41.758 -16.106   3.509  1.00  0.00     0.255 C 
HETATM   30  N   UNL     1      42.833 -16.728   2.910  1.00  0.00    -0.323 N 
HETATM   31  H   UNL     1      43.251 -16.294   2.096  1.00  0.00     0.169 HD
HETATM   32  O   UNL     1      41.111 -16.565   4.446  1.00  0.00    -0.268 OA
BRANCH  30  33
HETATM   33  C   UNL     1      43.449 -17.940   3.293  1.00  0.00     0.035 A 
HETATM   34  C   UNL     1      43.414 -19.113   2.535  1.00  0.00     0.045 A 
HETATM   35  C   UNL     1      44.036 -20.288   2.995  1.00  0.00     0.050 A 
HETATM   36  C   UNL     1      44.704 -20.269   4.229  1.00  0.00     0.016 A 
HETATM   37  C   UNL     1      44.745 -19.104   4.989  1.00  0.00     0.003 A 
HETATM   38  C   UNL     1      44.114 -17.949   4.525  1.00  0.00     0.029 A 
BRANCH  35  39
HETATM   39  C   UNL     1      43.972 -21.567   2.198  1.00  0.00     0.417 C 
HETATM   40  F   UNL     1      44.893 -21.647   1.198  1.00  0.00    -0.166 F 
HETATM   41  F   UNL     1      44.165 -22.673   2.970  1.00  0.00    -0.166 F 
HETATM   42  F   UNL     1      42.760 -21.740   1.601  1.00  0.00    -0.166 F 
ENDBRANCH  35  39
ENDBRANCH  30  33
ENDBRANCH   9  29
TORSDOF 9
ENDMDL
MODEL 9
REMARK VINA RESULT:      -8.9      4.505      9.907
REMARK  9 active torsions:
REMARK  status: ('A' for Active; 'I' for Inactive)
REMARK    1  A    between atoms: C_4  and  S_5 
REMARK    2  A    between atoms: S_5  and  C_6 
REMARK    3  A    between atoms: C_6  and  C_7 
REMARK       I    between atoms: C_7  and  N_8 
REMARK    4  A    between atoms: N_8  and  C_9 
REMARK    5  A    between atoms: C_9  and  C_10 
REMARK    6  A    between atoms: C_20  and  C_21 
REMARK    7  A    between atoms: C_26  and  C_27 
REMARK       I    between atoms: C_27  and  N_28 
REMARK    8  A    between atoms: N_28  and  C_29 
REMARK    9  A    between atoms: C_31  and  C_32 
ROOT
HETATM    1  C   UNL     1      40.665 -15.283   6.072  1.00  0.00     0.069 C 
HETATM    2  C   UNL     1      40.820 -14.366   4.881  1.00  0.00     0.019 C 
HETATM    3  N   UNL     1      40.348 -14.870   3.674  1.00  0.00    -0.353 N 
HETATM    4  C   UNL     1      40.663 -14.338   2.430  1.00  0.00     0.087 C 
HETATM    5  C   UNL     1      41.241 -13.116   2.381  1.00  0.00     0.057 C 
HETATM    6  C   UNL     1      41.790 -12.485   1.111  1.00  0.00     0.019 C 
HETATM    7  N   UNL     1      42.245 -11.964   0.058  1.00  0.00    -0.096 N 
HETATM    8  C   UNL     1      41.418 -12.287   3.655  1.00  0.00     0.129 C 
HETATM    9  C   UNL     1      41.375 -13.131   4.925  1.00  0.00     0.048 C 
HETATM   10  H   UNL     1      40.182 -15.875   3.663  1.00  0.00     0.166 HD
ENDROOT
BRANCH   4  11
HETATM   11  S   UNL     1      40.326 -15.239   0.958  1.00  0.00    -0.102 SA
BRANCH  11  12
HETATM   12  C   UNL     1      40.563 -16.929   1.595  1.00  0.00     0.183 C 
BRANCH  12  13
HETATM   13  C   UNL     1      41.999 -17.418   1.634  1.00  0.00     0.227 C 
HETATM   14  N   UNL     1      42.466 -17.959   2.804  1.00  0.00    -0.356 N 
HETATM   15  H   UNL     1      41.897 -17.884   3.640  1.00  0.00     0.162 HD
HETATM   16  O   UNL     1      42.715 -17.294   0.639  1.00  0.00    -0.273 OA
BRANCH  14  17
HETATM   17  C   UNL     1      43.862 -18.313   2.939  1.00  0.00     0.161 C 
BRANCH  17  18
HETATM   18  C   UNL     1      44.083 -19.792   3.113  1.00  0.00    -0.041 A 
HETATM   19  C   UNL     1      43.879 -20.689   2.054  1.00  0.00     0.009 A 
HETATM   20  C   UNL     1      44.150 -22.049   2.212  1.00  0.00     0.001 A 
HETATM   21  C   UNL     1      44.644 -22.527   3.424  1.00  0.00     0.000 A 
HETATM   22  C   UNL     1      44.867 -21.646   4.479  1.00  0.00     0.001 A 
HETATM   23  C   UNL     1      44.591 -20.285   4.325  1.00  0.00     0.009 A 
ENDBRANCH  17  18
ENDBRANCH  14  17
ENDBRANCH  12  13
ENDBRANCH  11  12
ENDBRANCH   4  11
BRANCH   8  24
HETATM   24  C   UNL     1      40.412 -11.161   3.695  1.00  0.00     0.066 A 
HETATM   25  O   UNL     1      39.099 -11.523   3.785  1.00  0.00    -0.326 OA
HETATM   26  C   UNL     1      38.372 -10.376   3.793  1.00  0.00     0.142 A 
HETATM   27  C   UNL     1      39.197  -9.282   3.680  1.00  0.00     0.027 A 
HETATM   28  C   UNL     1      40.516  -9.786   3.612  1.00  0.00     0.035 A 
ENDBRANCH   8  24
BRANCH   9  29
HETATM   29  C   UNL     1      42.075 -12.643   6.165  1.00  0.00     0.255 C 
HETATM   30  N   UNL     1      41.407 -11.672   6.879  1.00  0.00    -0.323 N 
HETATM   31  H   UNL     1      40.519 -11.335   6.526  1.00  0.00     0.169 HD
HETATM   32  O   UNL     1      43.192 -13.075   6.437  1.00  0.00    -0.268 OA
BRANCH  30  33
HETATM   33  C   UNL     1      41.814 -11.057   8.084  1.00  0.00     0.035 A 
HETATM   34  C   UNL     1      43.055 -11.262   8.691  1.00  0.00     0.045 A 
HETATM   35  C   UNL     1      43.379 -10.627   9.904  1.00  0.00     0.050 A 
HETATM   36  C   UNL     1      42.440  -9.772  10.500  1.00  0.00     0.016 A 
HETATM   37  C   UNL     1      41.202  -9.560   9.900  1.00  0.00     0.003 A 
HETATM   38  C   UNL     1      40.890 -10.205   8.702  1.00  0.00     0.029 A 
BRANCH  35  39
HETATM   39  C   UNL     1      44.704 -10.874  10.583  1.00  0.00     0.417 C 
HETATM   40  F   UNL     1      45.774 -10.362   9.916  1.00  0.00    -0.166 F 
HETATM   41  F   UNL     1      44.755 -10.339  11.835  1.00  0.00    -0.166 F 
HETATM   42  F   UNL     1      44.963 -12.202  10.738  1.00  0.00    -0.166 F 
ENDBRANCH  35  39
ENDBRANCH  30  33
ENDBRANCH   9  29
TORSDOF 9
ENDMDL
MODEL 10
REMARK VINA RESULT:      -8.9      6.077      9.523
REMARK  9 active torsions:
REMARK  status: ('A' for Active; 'I' for Inactive)
REMARK    1  A    between atoms: C_4  and  S_5 
REMARK    2  A    between atoms: S_5  and  C_6 
REMARK    3  A    between atoms: C_6  and  C_7 
REMARK       I    between atoms: C_7  and  N_8 
REMARK    4  A    between atoms: N_8  and  C_9 
REMARK    5  A    between atoms: C_9  and  C_10 
REMARK    6  A    between atoms: C_20  and  C_21 
REMARK    7  A    between atoms: C_26  and  C_27 
REMARK       I    between atoms: C_27  and  N_28 
REMARK    8  A    between atoms: N_28  and  C_29 
REMARK    9  A    between atoms: C_31  and  C_32 
ROOT
HETATM    1  C   UNL     1      38.087 -14.747   1.363  1.00  0.00     0.069 C 
HETATM    2  C   UNL     1      39.466 -14.828   1.974  1.00  0.00     0.019 C 
HETATM    3  N   UNL     1      39.501 -15.094   3.338  1.00  0.00    -0.353 N 
HETATM    4  C   UNL     1      40.620 -14.908   4.141  1.00  0.00     0.087 C 
HETATM    5  C   UNL     1      41.816 -14.710   3.542  1.00  0.00     0.057 C 
HETATM    6  C   UNL     1      43.086 -14.328   4.285  1.00  0.00     0.019 C 
HETATM    7  N   UNL     1      44.139 -14.012   4.902  1.00  0.00    -0.096 N 
HETATM    8  C   UNL     1      41.953 -14.823   2.022  1.00  0.00     0.129 C 
HETATM    9  C   UNL     1      40.625 -14.658   1.291  1.00  0.00     0.048 C 
HETATM   10  H   UNL     1      38.616 -14.959   3.825  1.00  0.00     0.166 HD
ENDROOT
BRANCH   4  11
HETATM   11  S   UNL     1      40.476 -14.920   5.894  1.00  0.00    -0.102 SA
BRANCH  11  12
HETATM   12  C   UNL     1      40.702 -16.703   6.188  1.00  0.00     0.183 C 
BRANCH  12  13
HETATM   13  C   UNL     1      42.115 -17.137   6.533  1.00  0.00     0.227 C 
HETATM   14  N   UNL     1      42.892 -17.665   5.534  1.00  0.00    -0.356 N 
HETATM   15  H   UNL     1      42.460 -17.885   4.642  1.00  0.00     0.162 HD
HETATM   16  O   UNL     1      42.520 -17.036   7.692  1.00  0.00    -0.273 OA
BRANCH  14  17
HETATM   17  C   UNL     1      44.193 -18.220   5.836  1.00  0.00     0.161 C 
BRANCH  17  18
HETATM   18  C   UNL     1      44.388 -19.606   5.283  1.00  0.00    -0.041 A 
HETATM   19  C   UNL     1      44.348 -20.735   6.114  1.00  0.00     0.009 A 
HETATM   20  C   UNL     1      44.464 -22.019   5.577  1.00  0.00     0.001 A 
HETATM   21  C   UNL     1      44.607 -22.190   4.202  1.00  0.00     0.000 A 
HETATM   22  C   UNL     1      44.631 -21.079   3.362  1.00  0.00     0.001 A 
HETATM   23  C   UNL     1      44.520 -19.795   3.898  1.00  0.00     0.009 A 
ENDBRANCH  17  18
ENDBRANCH  14  17
ENDBRANCH  12  13
ENDBRANCH  11  12
ENDBRANCH   4  11
BRANCH   8  24
HETATM   24  C   UNL     1      42.643 -16.115   1.651  1.00  0.00     0.066 A 
HETATM   25  O   UNL     1      44.003 -16.129   1.756  1.00  0.00    -0.326 OA
HETATM   26  C   UNL     1      44.417 -17.363   1.367  1.00  0.00     0.142 A 
HETATM   27  C   UNL     1      43.345 -18.133   0.986  1.00  0.00     0.027 A 
HETATM   28  C   UNL     1      42.196 -17.328   1.164  1.00  0.00     0.035 A 
ENDBRANCH   8  24
BRANCH   9  29
HETATM   29  C   UNL     1      40.617 -14.171  -0.133  1.00  0.00     0.255 C 
HETATM   30  N   UNL     1      40.430 -12.815  -0.295  1.00  0.00    -0.323 N 
HETATM   31  H   UNL     1      40.289 -12.244   0.530  1.00  0.00     0.169 HD
HETATM   32  O   UNL     1      40.715 -14.983  -1.049  1.00  0.00    -0.268 OA
BRANCH  30  33
HETATM   33  C   UNL     1      40.404 -12.088  -1.506  1.00  0.00     0.035 A 
HETATM   34  C   UNL     1      41.444 -11.270  -1.954  1.00  0.00     0.045 A 
HETATM   35  C   UNL     1      41.333 -10.562  -3.165  1.00  0.00     0.050 A 
HETATM   36  C   UNL     1      40.164 -10.692  -3.929  1.00  0.00     0.016 A 
HETATM   37  C   UNL     1      39.125 -11.508  -3.491  1.00  0.00     0.003 A 
HETATM   38  C   UNL     1      39.244 -12.196  -2.282  1.00  0.00     0.029 A 
BRANCH  35  39
HETATM   39  C   UNL     1      42.438  -9.648  -3.637  1.00  0.00     0.417 C 
HETATM   40  F   UNL     1      42.041  -8.364  -3.856  1.00  0.00    -0.166 F 
HETATM   41  F   UNL     1      43.467  -9.573  -2.747  1.00  0.00    -0.166 F 
HETATM   42  F   UNL     1      42.991 -10.071  -4.807  1.00  0.00    -0.166 F 
ENDBRANCH  35  39
ENDBRANCH  30  33
ENDBRANCH   9  29
TORSDOF 9
ENDMDL
