MODEL 1
REMARK VINA RESULT:      -8.4      0.000      0.000
REMARK  3 active torsions:
REMARK  status: ('A' for Active; 'I' for Inactive)
REMARK    1  A    between atoms: C_2  and  C_3 
REMARK    2  A    between atoms: C_10  and  C_12 
REMARK    3  A    between atoms: C_10  and  O_11 
ROOT
HETATM    1  C   UNL     1      43.885 -14.529   5.894  1.00  0.00    -0.058 A 
HETATM    2  C   UNL     1      43.350 -15.789   5.576  1.00  0.00     0.020 A 
HETATM    3  C   UNL     1      42.418 -15.876   4.552  1.00  0.00     0.018 A 
HETATM    4  C   UNL     1      42.008 -14.729   3.873  1.00  0.00     0.045 A 
HETATM    5  N   UNL     1      41.087 -15.051   2.888  1.00  0.00    -0.323 N 
HETATM    6  C   UNL     1      40.844 -16.426   2.844  1.00  0.00     0.266 A 
HETATM    7  O   UNL     1      40.066 -16.961   2.068  1.00  0.00    -0.269 OA
HETATM    8  C   UNL     1      41.681 -17.080   4.003  1.00  0.00     0.199 A 
HETATM    9  C   UNL     1      42.505 -13.477   4.164  1.00  0.00     0.031 A 
HETATM   10  C   UNL     1      43.458 -13.385   5.183  1.00  0.00     0.009 A 
HETATM   11  H   UNL     1      40.653 -14.406   2.244  1.00  0.00     0.169 HD
ENDROOT
BRANCH   8  12
HETATM   12  C   UNL     1      42.713 -18.070   3.506  1.00  0.00     0.025 A 
HETATM   13  C   UNL     1      43.377 -19.113   4.264  1.00  0.00     0.003 A 
HETATM   14  C   UNL     1      44.235 -19.788   3.395  1.00  0.00     0.043 A 
HETATM   15  C   UNL     1      43.325 -19.559   5.604  1.00  0.00     0.014 A 
HETATM   16  C   UNL     1      45.025 -20.877   3.787  1.00  0.00     0.030 A 
HETATM   17  N   UNL     1      44.131 -19.181   2.171  1.00  0.00    -0.359 N 
HETATM   18  C   UNL     1      44.944 -21.296   5.116  1.00  0.00     0.002 A 
HETATM   19  C   UNL     1      44.107 -20.646   6.015  1.00  0.00     0.001 A 
HETATM   20  H   UNL     1      44.658 -19.458   1.355  1.00  0.00     0.166 HD
HETATM   21  C   UNL     1      43.232 -18.148   2.213  1.00  0.00     0.016 A 
HETATM   22  C   UNL     1      42.967 -17.328   1.000  1.00  0.00     0.069 C 
ENDBRANCH   8  12
BRANCH   8  23
HETATM   23  O   UNL     1      40.835 -17.593   5.029  1.00  0.00    -0.371 OA
HETATM   24  H   UNL     1      41.405 -18.096   5.633  1.00  0.00     0.212 HD
ENDBRANCH   8  23
BRANCH   1  25
HETATM   25  C   UNL     1      44.943 -14.409   6.962  1.00  0.00     0.034 C 
HETATM   26  C   UNL     1      44.664 -13.246   7.903  1.00  0.00     0.010 C 
ENDBRANCH   1  25
TORSDOF 3
ENDMDL
MODEL 2
REMARK VINA RESULT:      -8.2      2.277      6.258
REMARK  3 active torsions:
REMARK  status: ('A' for Active; 'I' for Inactive)
REMARK    1  A    between atoms: C_2  and  C_3 
REMARK    2  A    between atoms: C_10  and  C_12 
REMARK    3  A    between atoms: C_10  and  O_11 
ROOT
HETATM    1  C   UNL     1      43.338 -18.777   3.334  1.00  0.00    -0.058 A 
HETATM    2  C   UNL     1      42.637 -17.885   4.162  1.00  0.00     0.020 A 
HETATM    3  C   UNL     1      43.019 -17.773   5.491  1.00  0.00     0.018 A 
HETATM    4  C   UNL     1      44.062 -18.551   5.993  1.00  0.00     0.045 A 
HETATM    5  N   UNL     1      44.278 -18.267   7.333  1.00  0.00    -0.323 N 
HETATM    6  C   UNL     1      43.407 -17.277   7.794  1.00  0.00     0.266 A 
HETATM    7  O   UNL     1      43.392 -16.856   8.941  1.00  0.00    -0.269 OA
HETATM    8  C   UNL     1      42.453 -16.910   6.600  1.00  0.00     0.199 A 
HETATM    9  C   UNL     1      44.765 -19.442   5.211  1.00  0.00     0.031 A 
HETATM   10  C   UNL     1      44.397 -19.547   3.867  1.00  0.00     0.009 A 
HETATM   11  H   UNL     1      44.988 -18.678   7.921  1.00  0.00     0.169 HD
ENDROOT
BRANCH   8  12
HETATM   12  C   UNL     1      42.568 -15.464   6.169  1.00  0.00     0.025 A 
HETATM   13  C   UNL     1      41.546 -14.637   5.556  1.00  0.00     0.003 A 
HETATM   14  C   UNL     1      42.093 -13.371   5.346  1.00  0.00     0.043 A 
HETATM   15  C   UNL     1      40.201 -14.838   5.168  1.00  0.00     0.014 A 
HETATM   16  C   UNL     1      41.374 -12.307   4.785  1.00  0.00     0.030 A 
HETATM   17  N   UNL     1      43.392 -13.416   5.778  1.00  0.00    -0.359 N 
HETATM   18  C   UNL     1      40.047 -12.537   4.421  1.00  0.00     0.002 A 
HETATM   19  C   UNL     1      39.466 -13.786   4.607  1.00  0.00     0.001 A 
HETATM   20  H   UNL     1      44.032 -12.635   5.729  1.00  0.00     0.166 HD
HETATM   21  C   UNL     1      43.702 -14.656   6.269  1.00  0.00     0.016 A 
HETATM   22  C   UNL     1      45.068 -14.947   6.781  1.00  0.00     0.069 C 
ENDBRANCH   8  12
BRANCH   8  23
HETATM   23  O   UNL     1      41.115 -17.332   6.857  1.00  0.00    -0.371 OA
HETATM   24  H   UNL     1      40.818 -17.810   6.065  1.00  0.00     0.212 HD
ENDBRANCH   8  23
BRANCH   1  25
HETATM   25  C   UNL     1      42.986 -18.880   1.871  1.00  0.00     0.034 C 
HETATM   26  C   UNL     1      43.580 -17.733   1.067  1.00  0.00     0.010 C 
ENDBRANCH   1  25
TORSDOF 3
ENDMDL
MODEL 3
REMARK VINA RESULT:      -8.1      2.076      5.828
REMARK  3 active torsions:
REMARK  status: ('A' for Active; 'I' for Inactive)
REMARK    1  A    between atoms: C_2  and  C_3 
REMARK    2  A    between atoms: C_10  and  C_12 
REMARK    3  A    between atoms: C_10  and  O_11 
ROOT
HETATM    1  C   UNL     1      44.074 -19.492   3.625  1.00  0.00    -0.058 A 
HETATM    2  C   UNL     1      43.103 -18.521   3.331  1.00  0.00     0.020 A 
HETATM    3  C   UNL     1      42.494 -17.851   4.381  1.00  0.00     0.018 A 
HETATM    4  C   UNL     1      42.827 -18.158   5.701  1.00  0.00     0.045 A 
HETATM    5  N   UNL     1      42.109 -17.362   6.580  1.00  0.00    -0.323 N 
HETATM    6  C   UNL     1      41.273 -16.473   5.900  1.00  0.00     0.266 A 
HETATM    7  O   UNL     1      40.532 -15.671   6.450  1.00  0.00    -0.269 OA
HETATM    8  C   UNL     1      41.428 -16.775   4.366  1.00  0.00     0.199 A 
HETATM    9  C   UNL     1      43.768 -19.111   6.026  1.00  0.00     0.031 A 
HETATM   10  C   UNL     1      44.399 -19.777   4.972  1.00  0.00     0.009 A 
HETATM   11  H   UNL     1      42.181 -17.372   7.587  1.00  0.00     0.169 HD
ENDROOT
BRANCH   8  12
HETATM   12  C   UNL     1      41.965 -15.599   3.578  1.00  0.00     0.025 A 
HETATM   13  C   UNL     1      41.595 -15.187   2.238  1.00  0.00     0.003 A 
HETATM   14  C   UNL     1      42.334 -14.045   1.927  1.00  0.00     0.043 A 
HETATM   15  C   UNL     1      40.696 -15.668   1.259  1.00  0.00     0.014 A 
HETATM   16  C   UNL     1      42.214 -13.361   0.709  1.00  0.00     0.030 A 
HETATM   17  N   UNL     1      43.138 -13.777   3.003  1.00  0.00    -0.359 N 
HETATM   18  C   UNL     1      41.310 -13.858  -0.231  1.00  0.00     0.002 A 
HETATM   19  C   UNL     1      40.561 -14.998   0.037  1.00  0.00     0.001 A 
HETATM   20  H   UNL     1      43.793 -13.009   3.043  1.00  0.00     0.166 HD
HETATM   21  C   UNL     1      42.940 -14.694   4.001  1.00  0.00     0.016 A 
HETATM   22  C   UNL     1      43.720 -14.615   5.266  1.00  0.00     0.069 C 
ENDBRANCH   8  12
BRANCH   8  23
HETATM   23  O   UNL     1      40.234 -17.336   3.825  1.00  0.00    -0.371 OA
HETATM   24  H   UNL     1      39.552 -16.647   3.885  1.00  0.00     0.212 HD
ENDBRANCH   8  23
BRANCH   1  25
HETATM   25  C   UNL     1      44.798 -20.197   2.505  1.00  0.00     0.034 C 
HETATM   26  C   UNL     1      44.022 -21.409   2.008  1.00  0.00     0.010 C 
ENDBRANCH   1  25
TORSDOF 3
ENDMDL
MODEL 4
REMARK VINA RESULT:      -8.1      2.570      4.636
REMARK  3 active torsions:
REMARK  status: ('A' for Active; 'I' for Inactive)
REMARK    1  A    between atoms: C_2  and  C_3 
REMARK    2  A    between atoms: C_10  and  C_12 
REMARK    3  A    between atoms: C_10  and  O_11 
ROOT
HETATM    1  C   UNL     1      39.855 -13.384   3.394  1.00  0.00    -0.058 A 
HETATM    2  C   UNL     1      41.105 -14.023   3.332  1.00  0.00     0.020 A 
HETATM    3  C   UNL     1      41.978 -13.879   4.399  1.00  0.00     0.018 A 
HETATM    4  C   UNL     1      41.626 -13.093   5.498  1.00  0.00     0.045 A 
HETATM    5  N   UNL     1      42.639 -13.101   6.445  1.00  0.00    -0.323 N 
HETATM    6  C   UNL     1      43.711 -13.901   6.041  1.00  0.00     0.266 A 
HETATM    7  O   UNL     1      44.729 -14.065   6.697  1.00  0.00    -0.269 OA
HETATM    8  C   UNL     1      43.370 -14.440   4.605  1.00  0.00     0.199 A 
HETATM    9  C   UNL     1      40.413 -12.445   5.587  1.00  0.00     0.031 A 
HETATM   10  C   UNL     1      39.521 -12.601   4.523  1.00  0.00     0.009 A 
HETATM   11  H   UNL     1      42.623 -12.630   7.337  1.00  0.00     0.169 HD
ENDROOT
BRANCH   8  12
HETATM   12  C   UNL     1      43.277 -15.949   4.542  1.00  0.00     0.025 A 
HETATM   13  C   UNL     1      43.486 -16.803   3.389  1.00  0.00     0.003 A 
HETATM   14  C   UNL     1      43.310 -18.124   3.801  1.00  0.00     0.043 A 
HETATM   15  C   UNL     1      43.817 -16.583   2.032  1.00  0.00     0.014 A 
HETATM   16  C   UNL     1      43.457 -19.223   2.944  1.00  0.00     0.030 A 
HETATM   17  N   UNL     1      42.983 -18.093   5.131  1.00  0.00    -0.359 N 
HETATM   18  C   UNL     1      43.794 -18.971   1.613  1.00  0.00     0.002 A 
HETATM   19  C   UNL     1      43.971 -17.668   1.160  1.00  0.00     0.001 A 
HETATM   20  H   UNL     1      42.785 -18.914   5.685  1.00  0.00     0.166 HD
HETATM   21  C   UNL     1      42.952 -16.805   5.596  1.00  0.00     0.016 A 
HETATM   22  C   UNL     1      42.601 -16.521   7.014  1.00  0.00     0.069 C 
ENDBRANCH   8  12
BRANCH   8  23
HETATM   23  O   UNL     1      44.231 -13.873   3.620  1.00  0.00    -0.371 OA
HETATM   24  H   UNL     1      43.657 -13.501   2.931  1.00  0.00     0.212 HD
ENDBRANCH   8  23
BRANCH   1  25
HETATM   25  C   UNL     1      38.859 -13.569   2.276  1.00  0.00     0.034 C 
HETATM   26  C   UNL     1      38.846 -15.002   1.765  1.00  0.00     0.010 C 
ENDBRANCH   1  25
TORSDOF 3
ENDMDL
MODEL 5
REMARK VINA RESULT:      -8.1      2.217      6.056
REMARK  3 active torsions:
REMARK  status: ('A' for Active; 'I' for Inactive)
REMARK    1  A    between atoms: C_2  and  C_3 
REMARK    2  A    between atoms: C_10  and  C_12 
REMARK    3  A    between atoms: C_10  and  O_11 
ROOT
HETATM    1  C   UNL     1      43.572 -20.162   2.755  1.00  0.00    -0.058 A 
HETATM    2  C   UNL     1      42.567 -19.184   2.670  1.00  0.00     0.020 A 
HETATM    3  C   UNL     1      42.622 -18.098   3.531  1.00  0.00     0.018 A 
HETATM    4  C   UNL     1      43.643 -17.999   4.477  1.00  0.00     0.045 A 
HETATM    5  N   UNL     1      43.507 -16.835   5.218  1.00  0.00    -0.323 N 
HETATM    6  C   UNL     1      42.403 -16.088   4.800  1.00  0.00     0.266 A 
HETATM    7  O   UNL     1      42.065 -15.025   5.299  1.00  0.00    -0.269 OA
HETATM    8  C   UNL     1      41.689 -16.913   3.668  1.00  0.00     0.199 A 
HETATM    9  C   UNL     1      44.639 -18.944   4.594  1.00  0.00     0.031 A 
HETATM   10  C   UNL     1      44.601 -20.031   3.717  1.00  0.00     0.009 A 
HETATM   11  H   UNL     1      44.127 -16.518   5.948  1.00  0.00     0.169 HD
ENDROOT
BRANCH   8  12
HETATM   12  C   UNL     1      41.655 -16.193   2.337  1.00  0.00     0.025 A 
HETATM   13  C   UNL     1      40.534 -15.497   1.735  1.00  0.00     0.003 A 
HETATM   14  C   UNL     1      40.965 -14.974   0.515  1.00  0.00     0.043 A 
HETATM   15  C   UNL     1      39.193 -15.252   2.111  1.00  0.00     0.014 A 
HETATM   16  C   UNL     1      40.142 -14.220  -0.331  1.00  0.00     0.030 A 
HETATM   17  N   UNL     1      42.274 -15.346   0.356  1.00  0.00    -0.359 N 
HETATM   18  C   UNL     1      38.826 -13.989   0.075  1.00  0.00     0.002 A 
HETATM   19  C   UNL     1      38.355 -14.499   1.279  1.00  0.00     0.001 A 
HETATM   20  H   UNL     1      42.834 -15.114  -0.452  1.00  0.00     0.166 HD
HETATM   21  C   UNL     1      42.707 -16.079   1.428  1.00  0.00     0.016 A 
HETATM   22  C   UNL     1      44.097 -16.609   1.469  1.00  0.00     0.069 C 
ENDBRANCH   8  12
BRANCH   8  23
HETATM   23  O   UNL     1      40.417 -17.392   4.100  1.00  0.00    -0.371 OA
HETATM   24  H   UNL     1      40.580 -18.224   4.571  1.00  0.00     0.212 HD
ENDBRANCH   8  23
BRANCH   1  25
HETATM   25  C   UNL     1      43.575 -21.324   1.794  1.00  0.00     0.034 C 
HETATM   26  C   UNL     1      44.673 -22.325   2.123  1.00  0.00     0.010 C 
ENDBRANCH   1  25
TORSDOF 3
ENDMDL
MODEL 6
REMARK VINA RESULT:      -8.0      2.745      6.387
REMARK  3 active torsions:
REMARK  status: ('A' for Active; 'I' for Inactive)
REMARK    1  A    between atoms: C_2  and  C_3 
REMARK    2  A    between atoms: C_10  and  C_12 
REMARK    3  A    between atoms: C_10  and  O_11 
ROOT
HETATM    1  C   UNL     1      42.810 -18.315   2.713  1.00  0.00    -0.058 A 
HETATM    2  C   UNL     1      41.984 -17.259   2.295  1.00  0.00     0.020 A 
HETATM    3  C   UNL     1      41.335 -16.502   3.259  1.00  0.00     0.018 A 
HETATM    4  C   UNL     1      41.486 -16.804   4.613  1.00  0.00     0.045 A 
HETATM    5  N   UNL     1      40.761 -15.916   5.393  1.00  0.00    -0.323 N 
HETATM    6  C   UNL     1      40.103 -14.965   4.608  1.00  0.00     0.266 A 
HETATM    7  O   UNL     1      39.394 -14.077   5.058  1.00  0.00    -0.269 OA
HETATM    8  C   UNL     1      40.395 -15.324   3.106  1.00  0.00     0.199 A 
HETATM    9  C   UNL     1      42.281 -17.838   5.058  1.00  0.00     0.031 A 
HETATM   10  C   UNL     1      42.952 -18.594   4.092  1.00  0.00     0.009 A 
HETATM   11  H   UNL     1      40.720 -15.905   6.401  1.00  0.00     0.169 HD
ENDROOT
BRANCH   8  12
HETATM   12  C   UNL     1      41.135 -14.231   2.366  1.00  0.00     0.025 A 
HETATM   13  C   UNL     1      40.975 -13.834   0.980  1.00  0.00     0.003 A 
HETATM   14  C   UNL     1      41.852 -12.777   0.738  1.00  0.00     0.043 A 
HETATM   15  C   UNL     1      40.162 -14.265  -0.093  1.00  0.00     0.014 A 
HETATM   16  C   UNL     1      41.949 -12.128  -0.501  1.00  0.00     0.030 A 
HETATM   17  N   UNL     1      42.538 -12.546   1.900  1.00  0.00    -0.359 N 
HETATM   18  C   UNL     1      41.126 -12.573  -1.536  1.00  0.00     0.002 A 
HETATM   19  C   UNL     1      40.244 -13.629  -1.338  1.00  0.00     0.001 A 
HETATM   20  H   UNL     1      43.254 -11.840   2.005  1.00  0.00     0.166 HD
HETATM   21  C   UNL     1      42.132 -13.405   2.886  1.00  0.00     0.016 A 
HETATM   22  C   UNL     1      42.753 -13.353   4.238  1.00  0.00     0.069 C 
ENDBRANCH   8  12
BRANCH   8  23
HETATM   23  O   UNL     1      39.216 -15.776   2.443  1.00  0.00    -0.371 OA
HETATM   24  H   UNL     1      39.510 -16.242   1.643  1.00  0.00     0.212 HD
ENDBRANCH   8  23
BRANCH   1  25
HETATM   25  C   UNL     1      43.576 -19.121   1.693  1.00  0.00     0.034 C 
HETATM   26  C   UNL     1      43.523 -20.611   1.996  1.00  0.00     0.010 C 
ENDBRANCH   1  25
TORSDOF 3
ENDMDL
MODEL 7
REMARK VINA RESULT:      -7.8      2.279      5.581
REMARK  3 active torsions:
REMARK  status: ('A' for Active; 'I' for Inactive)
REMARK    1  A    between atoms: C_2  and  C_3 
REMARK    2  A    between atoms: C_10  and  C_12 
REMARK    3  A    between atoms: C_10  and  O_11 
ROOT
HETATM    1  C   UNL     1      43.986 -18.419   4.203  1.00  0.00    -0.058 A 
HETATM    2  C   UNL     1      43.596 -17.071   4.128  1.00  0.00     0.020 A 
HETATM    3  C   UNL     1      43.239 -16.551   2.893  1.00  0.00     0.018 A 
HETATM    4  C   UNL     1      43.294 -17.348   1.749  1.00  0.00     0.045 A 
HETATM    5  N   UNL     1      42.885 -16.629   0.636  1.00  0.00    -0.323 N 
HETATM    6  C   UNL     1      42.522 -15.323   0.975  1.00  0.00     0.266 A 
HETATM    7  O   UNL     1      42.134 -14.489   0.171  1.00  0.00    -0.269 OA
HETATM    8  C   UNL     1      42.789 -15.155   2.515  1.00  0.00     0.199 A 
HETATM    9  C   UNL     1      43.680 -18.671   1.785  1.00  0.00     0.031 A 
HETATM   10  C   UNL     1      44.023 -19.206   3.030  1.00  0.00     0.009 A 
HETATM   11  H   UNL     1      42.814 -16.982  -0.307  1.00  0.00     0.169 HD
ENDROOT
BRANCH   8  12
HETATM   12  C   UNL     1      41.536 -14.841   3.305  1.00  0.00     0.025 A 
HETATM   13  C   UNL     1      41.390 -13.895   4.394  1.00  0.00     0.003 A 
HETATM   14  C   UNL     1      40.058 -13.928   4.809  1.00  0.00     0.043 A 
HETATM   15  C   UNL     1      42.258 -13.004   5.065  1.00  0.00     0.014 A 
HETATM   16  C   UNL     1      39.553 -13.121   5.836  1.00  0.00     0.030 A 
HETATM   17  N   UNL     1      39.418 -14.863   4.038  1.00  0.00    -0.359 N 
HETATM   18  C   UNL     1      40.435 -12.246   6.471  1.00  0.00     0.002 A 
HETATM   19  C   UNL     1      41.772 -12.187   6.094  1.00  0.00     0.001 A 
HETATM   20  H   UNL     1      38.441 -15.104   4.135  1.00  0.00     0.166 HD
HETATM   21  C   UNL     1      40.281 -15.426   3.136  1.00  0.00     0.016 A 
HETATM   22  C   UNL     1      39.811 -16.484   2.200  1.00  0.00     0.069 C 
ENDBRANCH   8  12
BRANCH   8  23
HETATM   23  O   UNL     1      43.867 -14.255   2.759  1.00  0.00    -0.371 OA
HETATM   24  H   UNL     1      43.897 -14.111   3.719  1.00  0.00     0.212 HD
ENDBRANCH   8  23
BRANCH   1  25
HETATM   25  C   UNL     1      44.323 -19.031   5.540  1.00  0.00     0.034 C 
HETATM   26  C   UNL     1      45.155 -18.089   6.397  1.00  0.00     0.010 C 
ENDBRANCH   1  25
TORSDOF 3
ENDMDL
MODEL 8
REMARK VINA RESULT:      -7.5      2.427      4.694
REMARK  3 active torsions:
REMARK  status: ('A' for Active; 'I' for Inactive)
REMARK    1  A    between atoms: C_2  and  C_3 
REMARK    2  A    between atoms: C_10  and  C_12 
REMARK    3  A    between atoms: C_10  and  O_11 
ROOT
HETATM    1  C   UNL     1      42.633 -17.068   1.661  1.00  0.00    -0.058 A 
HETATM    2  C   UNL     1      42.982 -16.145   2.661  1.00  0.00     0.020 A 
HETATM    3  C   UNL     1      41.968 -15.488   3.343  1.00  0.00     0.018 A 
HETATM    4  C   UNL     1      40.632 -15.726   3.019  1.00  0.00     0.045 A 
HETATM    5  N   UNL     1      39.795 -14.975   3.831  1.00  0.00    -0.323 N 
HETATM    6  C   UNL     1      40.521 -14.210   4.747  1.00  0.00     0.266 A 
HETATM    7  O   UNL     1      40.015 -13.458   5.566  1.00  0.00    -0.269 OA
HETATM    8  C   UNL     1      42.045 -14.456   4.448  1.00  0.00     0.199 A 
HETATM    9  C   UNL     1      40.254 -16.618   2.039  1.00  0.00     0.031 A 
HETATM   10  C   UNL     1      41.270 -17.296   1.360  1.00  0.00     0.009 A 
HETATM   11  H   UNL     1      38.786 -14.982   3.813  1.00  0.00     0.169 HD
ENDROOT
BRANCH   8  12
HETATM   12  C   UNL     1      42.788 -15.075   5.612  1.00  0.00     0.025 A 
HETATM   13  C   UNL     1      42.940 -16.484   5.918  1.00  0.00     0.003 A 
HETATM   14  C   UNL     1      43.714 -16.586   7.074  1.00  0.00     0.043 A 
HETATM   15  C   UNL     1      42.503 -17.687   5.318  1.00  0.00     0.014 A 
HETATM   16  C   UNL     1      44.078 -17.811   7.649  1.00  0.00     0.030 A 
HETATM   17  N   UNL     1      44.004 -15.311   7.481  1.00  0.00    -0.359 N 
HETATM   18  C   UNL     1      43.637 -18.980   7.026  1.00  0.00     0.002 A 
HETATM   19  C   UNL     1      42.858 -18.922   5.876  1.00  0.00     0.001 A 
HETATM   20  H   UNL     1      44.542 -15.088   8.307  1.00  0.00     0.166 HD
HETATM   21  C   UNL     1      43.458 -14.390   6.627  1.00  0.00     0.016 A 
HETATM   22  C   UNL     1      43.627 -12.933   6.878  1.00  0.00     0.069 C 
ENDBRANCH   8  12
BRANCH   8  23
HETATM   23  O   UNL     1      42.665 -13.284   3.923  1.00  0.00    -0.371 OA
HETATM   24  H   UNL     1      42.774 -12.671   4.669  1.00  0.00     0.212 HD
ENDBRANCH   8  23
BRANCH   1  25
HETATM   25  C   UNL     1      43.709 -17.842   0.942  1.00  0.00     0.034 C 
HETATM   26  C   UNL     1      44.066 -19.126   1.677  1.00  0.00     0.010 C 
ENDBRANCH   1  25
TORSDOF 3
ENDMDL
MODEL 9
REMARK VINA RESULT:      -7.5      2.438      4.150
REMARK  3 active torsions:
REMARK  status: ('A' for Active; 'I' for Inactive)
REMARK    1  A    between atoms: C_2  and  C_3 
REMARK    2  A    between atoms: C_10  and  C_12 
REMARK    3  A    between atoms: C_10  and  O_11 
ROOT
HETATM    1  C   UNL     1      41.747 -15.347   1.757  1.00  0.00    -0.058 A 
HETATM    2  C   UNL     1      42.681 -15.742   2.729  1.00  0.00     0.020 A 
HETATM    3  C   UNL     1      42.223 -16.062   3.999  1.00  0.00     0.018 A 
HETATM    4  C   UNL     1      40.865 -15.966   4.304  1.00  0.00     0.045 A 
HETATM    5  N   UNL     1      40.635 -16.343   5.618  1.00  0.00    -0.323 N 
HETATM    6  C   UNL     1      41.818 -16.724   6.256  1.00  0.00     0.266 A 
HETATM    7  O   UNL     1      41.881 -17.091   7.420  1.00  0.00    -0.269 OA
HETATM    8  C   UNL     1      42.987 -16.508   5.228  1.00  0.00     0.199 A 
HETATM    9  C   UNL     1      39.923 -15.573   3.377  1.00  0.00     0.031 A 
HETATM   10  C   UNL     1      40.376 -15.267   2.091  1.00  0.00     0.009 A 
HETATM   11  H   UNL     1      39.737 -16.382   6.077  1.00  0.00     0.169 HD
ENDROOT
BRANCH   8  12
HETATM   12  C   UNL     1      43.719 -17.787   4.882  1.00  0.00     0.025 A 
HETATM   13  C   UNL     1      43.483 -18.666   3.752  1.00  0.00     0.003 A 
HETATM   14  C   UNL     1      44.402 -19.712   3.829  1.00  0.00     0.043 A 
HETATM   15  C   UNL     1      42.581 -18.669   2.663  1.00  0.00     0.014 A 
HETATM   16  C   UNL     1      44.475 -20.741   2.881  1.00  0.00     0.030 A 
HETATM   17  N   UNL     1      45.151 -19.510   4.958  1.00  0.00    -0.359 N 
HETATM   18  C   UNL     1      43.576 -20.710   1.814  1.00  0.00     0.002 A 
HETATM   19  C   UNL     1      42.639 -19.689   1.705  1.00  0.00     0.001 A 
HETATM   20  H   UNL     1      45.887 -20.130   5.268  1.00  0.00     0.166 HD
HETATM   21  C   UNL     1      44.759 -18.370   5.607  1.00  0.00     0.016 A 
HETATM   22  C   UNL     1      45.421 -17.956   6.874  1.00  0.00     0.069 C 
ENDBRANCH   8  12
BRANCH   8  23
HETATM   23  O   UNL     1      43.844 -15.444   5.634  1.00  0.00    -0.371 OA
HETATM   24  H   UNL     1      43.728 -15.345   6.593  1.00  0.00     0.212 HD
ENDBRANCH   8  23
BRANCH   1  25
HETATM   25  C   UNL     1      42.205 -15.050   0.351  1.00  0.00     0.034 C 
HETATM   26  C   UNL     1      41.390 -15.816  -0.681  1.00  0.00     0.010 C 
ENDBRANCH   1  25
TORSDOF 3
ENDMDL
MODEL 10
REMARK VINA RESULT:      -7.5      2.273      3.437
REMARK  3 active torsions:
REMARK  status: ('A' for Active; 'I' for Inactive)
REMARK    1  A    between atoms: C_2  and  C_3 
REMARK    2  A    between atoms: C_10  and  C_12 
REMARK    3  A    between atoms: C_10  and  O_11 
ROOT
HETATM    1  C   UNL     1      41.499 -12.846   2.453  1.00  0.00    -0.058 A 
HETATM    2  C   UNL     1      42.126 -13.996   2.961  1.00  0.00     0.020 A 
HETATM    3  C   UNL     1      41.499 -14.699   3.979  1.00  0.00     0.018 A 
HETATM    4  C   UNL     1      40.283 -14.254   4.499  1.00  0.00     0.045 A 
HETATM    5  N   UNL     1      39.837 -15.112   5.494  1.00  0.00    -0.323 N 
HETATM    6  C   UNL     1      40.718 -16.180   5.681  1.00  0.00     0.266 A 
HETATM    7  O   UNL     1      40.553 -17.068   6.504  1.00  0.00    -0.269 OA
HETATM    8  C   UNL     1      41.935 -15.951   4.713  1.00  0.00     0.199 A 
HETATM    9  C   UNL     1      39.645 -13.126   4.030  1.00  0.00     0.031 A 
HETATM   10  C   UNL     1      40.262 -12.423   2.992  1.00  0.00     0.009 A 
HETATM   11  H   UNL     1      38.975 -15.025   6.012  1.00  0.00     0.169 HD
ENDROOT
BRANCH   8  12
HETATM   12  C   UNL     1      42.098 -17.055   3.691  1.00  0.00     0.025 A 
HETATM   13  C   UNL     1      43.081 -18.122   3.688  1.00  0.00     0.003 A 
HETATM   14  C   UNL     1      42.845 -18.913   2.563  1.00  0.00     0.043 A 
HETATM   15  C   UNL     1      44.145 -18.500   4.539  1.00  0.00     0.014 A 
HETATM   16  C   UNL     1      43.599 -20.053   2.254  1.00  0.00     0.030 A 
HETATM   17  N   UNL     1      41.792 -18.354   1.889  1.00  0.00    -0.359 N 
HETATM   18  C   UNL     1      44.637 -20.403   3.120  1.00  0.00     0.002 A 
HETATM   19  C   UNL     1      44.909 -19.637   4.248  1.00  0.00     0.001 A 
HETATM   20  H   UNL     1      41.417 -18.717   1.024  1.00  0.00     0.166 HD
HETATM   21  C   UNL     1      41.331 -17.240   2.540  1.00  0.00     0.016 A 
HETATM   22  C   UNL     1      40.198 -16.454   1.981  1.00  0.00     0.069 C 
ENDBRANCH   8  12
BRANCH   8  23
HETATM   23  O   UNL     1      43.126 -15.653   5.438  1.00  0.00    -0.371 OA
HETATM   24  H   UNL     1      43.421 -14.778   5.139  1.00  0.00     0.212 HD
ENDBRANCH   8  23
BRANCH   1  25
HETATM   25  C   UNL     1      42.125 -12.093   1.306  1.00  0.00     0.034 C 
HETATM   26  C   UNL     1      41.653 -12.622  -0.041  1.00  0.00     0.010 C 
ENDBRANCH   1  25
TORSDOF 3
ENDMDL
