MODEL 1
REMARK VINA RESULT:      -8.5      0.000      0.000
REMARK  3 active torsions:
REMARK  status: ('A' for Active; 'I' for Inactive)
REMARK    1  A    between atoms: C_8  and  C_9 
REMARK    2  A    between atoms: C_10  and  O_11 
REMARK    3  A    between atoms: C_24  and  N_25 
ROOT
HETATM    1  C   UNL     1      44.612 -20.294   2.829  1.00  0.00     0.070 C 
HETATM    2  C   UNL     1      44.421 -20.364   4.295  1.00  0.00     0.035 A 
HETATM    3  N   UNL     1      44.372 -21.561   4.972  1.00  0.00    -0.280 N 
HETATM    4  H   UNL     1      44.449 -22.499   4.591  1.00  0.00     0.189 HD
HETATM    5  N   UNL     1      44.218 -21.430   6.304  1.00  0.00    -0.148 NA
HETATM    6  C   UNL     1      44.114 -20.114   6.449  1.00  0.00     0.199 A 
HETATM    7  C   UNL     1      44.228 -19.391   5.257  1.00  0.00     0.034 A 
HETATM    8  C   UNL     1      44.165 -17.906   5.269  1.00  0.00     0.108 A 
HETATM    9  C   UNL     1      44.038 -17.372   6.694  1.00  0.00     0.081 A 
HETATM   10  C   UNL     1      44.090 -15.955   6.856  1.00  0.00     0.100 C 
HETATM   11  N   UNL     1      44.177 -14.805   6.987  1.00  0.00    -0.191 NA
HETATM   12  C   UNL     1      43.927 -18.183   7.779  1.00  0.00     0.140 A 
HETATM   13  O   UNL     1      43.940 -19.580   7.671  1.00  0.00    -0.277 OA
ENDROOT
BRANCH   8  14
HETATM   14  C   UNL     1      43.033 -17.437   4.358  1.00  0.00    -0.010 A 
HETATM   15  C   UNL     1      41.681 -17.350   4.730  1.00  0.00     0.076 A 
HETATM   16  C   UNL     1      40.717 -16.861   3.839  1.00  0.00     0.049 A 
HETATM   17  C   UNL     1      41.085 -16.363   2.581  1.00  0.00    -0.023 A 
HETATM   18  C   UNL     1      42.443 -16.388   2.203  1.00  0.00    -0.025 A 
HETATM   19  C   UNL     1      40.135 -15.826   1.697  1.00  0.00     0.012 A 
HETATM   20  C   UNL     1      43.391 -16.936   3.085  1.00  0.00     0.023 A 
HETATM   21  C   UNL     1      42.820 -15.857   0.959  1.00  0.00     0.012 A 
HETATM   22  C   UNL     1      41.867 -15.312   0.097  1.00  0.00     0.001 A 
HETATM   23  C   UNL     1      40.524 -15.302   0.463  1.00  0.00     0.001 A 
BRANCH  15  24
HETATM   24  O   UNL     1      41.287 -17.820   5.953  1.00  0.00    -0.355 OA
HETATM   25  C   UNL     1      40.448 -16.900   6.649  1.00  0.00     0.210 C 
ENDBRANCH  15  24
ENDBRANCH   8  14
BRANCH  12  26
HETATM   26  N   UNL     1      43.816 -17.752   9.085  1.00  0.00    -0.282 NA
HETATM   27  H   UNL     1      44.616 -17.243   9.452  1.00  0.00     0.126 HD
HETATM   28  H   UNL     1      43.501 -18.500   9.701  1.00  0.00     0.126 HD
ENDBRANCH  12  26
TORSDOF 3
ENDMDL
MODEL 2
REMARK VINA RESULT:      -8.1      2.674      6.030
REMARK  3 active torsions:
REMARK  status: ('A' for Active; 'I' for Inactive)
REMARK    1  A    between atoms: C_8  and  C_9 
REMARK    2  A    between atoms: C_10  and  O_11 
REMARK    3  A    between atoms: C_24  and  N_25 
ROOT
HETATM    1  C   UNL     1      44.988 -14.462   6.405  1.00  0.00     0.070 C 
HETATM    2  C   UNL     1      43.613 -14.105   5.988  1.00  0.00     0.035 A 
HETATM    3  N   UNL     1      42.917 -13.067   6.564  1.00  0.00    -0.280 N 
HETATM    4  H   UNL     1      43.222 -12.447   7.307  1.00  0.00     0.189 HD
HETATM    5  N   UNL     1      41.691 -12.873   6.039  1.00  0.00    -0.148 NA
HETATM    6  C   UNL     1      41.605 -13.854   5.149  1.00  0.00     0.199 A 
HETATM    7  C   UNL     1      42.749 -14.655   5.060  1.00  0.00     0.034 A 
HETATM    8  C   UNL     1      42.809 -15.773   4.082  1.00  0.00     0.108 A 
HETATM    9  C   UNL     1      41.543 -15.828   3.230  1.00  0.00     0.081 A 
HETATM   10  C   UNL     1      41.525 -16.781   2.168  1.00  0.00     0.100 C 
HETATM   11  N   UNL     1      41.533 -17.527   1.279  1.00  0.00    -0.191 NA
HETATM   12  C   UNL     1      40.489 -14.992   3.420  1.00  0.00     0.140 A 
HETATM   13  O   UNL     1      40.493 -13.998   4.406  1.00  0.00    -0.277 OA
ENDROOT
BRANCH   8  14
HETATM   14  C   UNL     1      43.085 -17.081   4.820  1.00  0.00    -0.010 A 
HETATM   15  C   UNL     1      42.476 -17.471   6.024  1.00  0.00     0.076 A 
HETATM   16  C   UNL     1      42.755 -18.715   6.605  1.00  0.00     0.049 A 
HETATM   17  C   UNL     1      43.584 -19.643   5.958  1.00  0.00    -0.023 A 
HETATM   18  C   UNL     1      44.164 -19.298   4.721  1.00  0.00    -0.025 A 
HETATM   19  C   UNL     1      43.834 -20.911   6.506  1.00  0.00     0.012 A 
HETATM   20  C   UNL     1      43.921 -18.023   4.179  1.00  0.00     0.023 A 
HETATM   21  C   UNL     1      44.965 -20.238   4.052  1.00  0.00     0.012 A 
HETATM   22  C   UNL     1      45.193 -21.501   4.601  1.00  0.00     0.001 A 
HETATM   23  C   UNL     1      44.632 -21.836   5.830  1.00  0.00     0.001 A 
BRANCH  15  24
HETATM   24  O   UNL     1      41.655 -16.593   6.680  1.00  0.00    -0.355 OA
HETATM   25  C   UNL     1      40.279 -16.950   6.579  1.00  0.00     0.210 C 
ENDBRANCH  15  24
ENDBRANCH   8  14
BRANCH  12  26
HETATM   26  N   UNL     1      39.327 -14.997   2.675  1.00  0.00    -0.282 NA
HETATM   27  H   UNL     1      39.449 -14.993   1.666  1.00  0.00     0.126 HD
HETATM   28  H   UNL     1      38.670 -14.291   3.001  1.00  0.00     0.126 HD
ENDBRANCH  12  26
TORSDOF 3
ENDMDL
MODEL 3
REMARK VINA RESULT:      -8.1      5.696      8.534
REMARK  3 active torsions:
REMARK  status: ('A' for Active; 'I' for Inactive)
REMARK    1  A    between atoms: C_8  and  C_9 
REMARK    2  A    between atoms: C_10  and  O_11 
REMARK    3  A    between atoms: C_24  and  N_25 
ROOT
HETATM    1  C   UNL     1      37.989 -14.090   0.779  1.00  0.00     0.070 C 
HETATM    2  C   UNL     1      38.526 -14.013  -0.598  1.00  0.00     0.035 A 
HETATM    3  N   UNL     1      37.870 -14.565  -1.674  1.00  0.00    -0.280 N 
HETATM    4  H   UNL     1      36.992 -15.073  -1.677  1.00  0.00     0.189 HD
HETATM    5  N   UNL     1      38.495 -14.374  -2.853  1.00  0.00    -0.148 NA
HETATM    6  C   UNL     1      39.598 -13.732  -2.488  1.00  0.00     0.199 A 
HETATM    7  C   UNL     1      39.689 -13.474  -1.115  1.00  0.00     0.034 A 
HETATM    8  C   UNL     1      40.854 -12.731  -0.565  1.00  0.00     0.108 A 
HETATM    9  C   UNL     1      41.799 -12.286  -1.679  1.00  0.00     0.081 A 
HETATM   10  C   UNL     1      42.896 -11.458  -1.297  1.00  0.00     0.100 C 
HETATM   11  N   UNL     1      43.761 -10.748  -0.988  1.00  0.00    -0.191 NA
HETATM   12  C   UNL     1      41.604 -12.609  -2.985  1.00  0.00     0.140 A 
HETATM   13  O   UNL     1      40.503 -13.363  -3.411  1.00  0.00    -0.277 OA
ENDROOT
BRANCH   8  14
HETATM   14  C   UNL     1      41.546 -13.584   0.494  1.00  0.00    -0.010 A 
HETATM   15  C   UNL     1      41.809 -13.176   1.813  1.00  0.00     0.076 A 
HETATM   16  C   UNL     1      42.407 -14.047   2.733  1.00  0.00     0.049 A 
HETATM   17  C   UNL     1      42.683 -15.378   2.391  1.00  0.00    -0.023 A 
HETATM   18  C   UNL     1      42.379 -15.829   1.090  1.00  0.00    -0.025 A 
HETATM   19  C   UNL     1      43.239 -16.274   3.318  1.00  0.00     0.012 A 
HETATM   20  C   UNL     1      41.833 -14.927   0.160  1.00  0.00     0.023 A 
HETATM   21  C   UNL     1      42.620 -17.172   0.755  1.00  0.00     0.012 A 
HETATM   22  C   UNL     1      43.159 -18.056   1.691  1.00  0.00     0.001 A 
HETATM   23  C   UNL     1      43.473 -17.606   2.971  1.00  0.00     0.001 A 
BRANCH  15  24
HETATM   24  O   UNL     1      41.546 -11.885   2.184  1.00  0.00    -0.355 OA
HETATM   25  C   UNL     1      40.428 -11.785   3.064  1.00  0.00     0.210 C 
ENDBRANCH  15  24
ENDBRANCH   8  14
BRANCH  12  26
HETATM   26  N   UNL     1      42.423 -12.228  -4.028  1.00  0.00    -0.282 NA
HETATM   27  H   UNL     1      42.608 -12.942  -4.728  1.00  0.00     0.126 HD
HETATM   28  H   UNL     1      43.268 -11.769  -3.693  1.00  0.00     0.126 HD
ENDBRANCH  12  26
TORSDOF 3
ENDMDL
MODEL 4
REMARK VINA RESULT:      -7.8      5.194      7.736
REMARK  3 active torsions:
REMARK  status: ('A' for Active; 'I' for Inactive)
REMARK    1  A    between atoms: C_8  and  C_9 
REMARK    2  A    between atoms: C_10  and  O_11 
REMARK    3  A    between atoms: C_24  and  N_25 
ROOT
HETATM    1  C   UNL     1      40.380 -15.546  -2.397  1.00  0.00     0.070 C 
HETATM    2  C   UNL     1      41.312 -14.398  -2.346  1.00  0.00     0.035 A 
HETATM    3  N   UNL     1      42.212 -14.137  -3.354  1.00  0.00    -0.280 N 
HETATM    4  H   UNL     1      42.359 -14.660  -4.212  1.00  0.00     0.189 HD
HETATM    5  N   UNL     1      42.961 -13.036  -3.148  1.00  0.00    -0.148 NA
HETATM    6  C   UNL     1      42.551 -12.635  -1.951  1.00  0.00     0.199 A 
HETATM    7  C   UNL     1      41.538 -13.423  -1.393  1.00  0.00     0.034 A 
HETATM    8  C   UNL     1      40.956 -13.073  -0.070  1.00  0.00     0.108 A 
HETATM    9  C   UNL     1      41.561 -11.782   0.474  1.00  0.00     0.081 A 
HETATM   10  C   UNL     1      41.001 -11.269   1.682  1.00  0.00     0.100 C 
HETATM   11  N   UNL     1      40.512 -10.833   2.640  1.00  0.00    -0.191 NA
HETATM   12  C   UNL     1      42.553 -11.106  -0.163  1.00  0.00     0.140 A 
HETATM   13  O   UNL     1      43.085 -11.538  -1.386  1.00  0.00    -0.277 OA
ENDROOT
BRANCH   8  14
HETATM   14  C   UNL     1      41.119 -14.253   0.885  1.00  0.00    -0.010 A 
HETATM   15  C   UNL     1      40.141 -14.700   1.789  1.00  0.00     0.076 A 
HETATM   16  C   UNL     1      40.363 -15.824   2.595  1.00  0.00     0.049 A 
HETATM   17  C   UNL     1      41.531 -16.588   2.461  1.00  0.00    -0.023 A 
HETATM   18  C   UNL     1      42.505 -16.193   1.522  1.00  0.00    -0.025 A 
HETATM   19  C   UNL     1      41.744 -17.744   3.229  1.00  0.00     0.012 A 
HETATM   20  C   UNL     1      42.294 -15.029   0.763  1.00  0.00     0.023 A 
HETATM   21  C   UNL     1      43.659 -16.976   1.360  1.00  0.00     0.012 A 
HETATM   22  C   UNL     1      43.851 -18.132   2.118  1.00  0.00     0.001 A 
HETATM   23  C   UNL     1      42.896 -18.513   3.057  1.00  0.00     0.001 A 
BRANCH  15  24
HETATM   24  O   UNL     1      38.985 -13.983   1.941  1.00  0.00    -0.355 OA
HETATM   25  C   UNL     1      37.937 -14.447   1.093  1.00  0.00     0.210 C 
ENDBRANCH  15  24
ENDBRANCH   8  14
BRANCH  12  26
HETATM   26  N   UNL     1      43.129  -9.934   0.282  1.00  0.00    -0.282 NA
HETATM   27  H   UNL     1      44.066 -10.021   0.669  1.00  0.00     0.126 HD
HETATM   28  H   UNL     1      42.496  -9.409   0.883  1.00  0.00     0.126 HD
ENDBRANCH  12  26
TORSDOF 3
ENDMDL
MODEL 5
REMARK VINA RESULT:      -7.7      2.043      2.282
REMARK  3 active torsions:
REMARK  status: ('A' for Active; 'I' for Inactive)
REMARK    1  A    between atoms: C_8  and  C_9 
REMARK    2  A    between atoms: C_10  and  O_11 
REMARK    3  A    between atoms: C_24  and  N_25 
ROOT
HETATM    1  C   UNL     1      43.963 -17.639   1.181  1.00  0.00     0.070 C 
HETATM    2  C   UNL     1      43.964 -18.414   2.442  1.00  0.00     0.035 A 
HETATM    3  N   UNL     1      43.947 -19.790   2.458  1.00  0.00    -0.280 N 
HETATM    4  H   UNL     1      43.927 -20.424   1.666  1.00  0.00     0.189 HD
HETATM    5  N   UNL     1      43.978 -20.323   3.695  1.00  0.00    -0.148 NA
HETATM    6  C   UNL     1      43.957 -19.245   4.469  1.00  0.00     0.199 A 
HETATM    7  C   UNL     1      43.948 -18.033   3.770  1.00  0.00     0.034 A 
HETATM    8  C   UNL     1      43.959 -16.741   4.506  1.00  0.00     0.108 A 
HETATM    9  C   UNL     1      44.048 -16.966   6.014  1.00  0.00     0.081 A 
HETATM   10  C   UNL     1      44.190 -15.804   6.830  1.00  0.00     0.100 C 
HETATM   11  N   UNL     1      44.350 -14.860   7.485  1.00  0.00    -0.191 NA
HETATM   12  C   UNL     1      44.043 -18.203   6.576  1.00  0.00     0.140 A 
HETATM   13  O   UNL     1      43.973 -19.373   5.808  1.00  0.00    -0.277 OA
ENDROOT
BRANCH   8  14
HETATM   14  C   UNL     1      42.742 -15.914   4.101  1.00  0.00    -0.010 A 
HETATM   15  C   UNL     1      41.427 -16.147   4.538  1.00  0.00     0.076 A 
HETATM   16  C   UNL     1      40.377 -15.304   4.151  1.00  0.00     0.049 A 
HETATM   17  C   UNL     1      40.621 -14.153   3.388  1.00  0.00    -0.023 A 
HETATM   18  C   UNL     1      41.940 -13.865   2.983  1.00  0.00    -0.025 A 
HETATM   19  C   UNL     1      39.584 -13.274   3.034  1.00  0.00     0.012 A 
HETATM   20  C   UNL     1      42.974 -14.753   3.329  1.00  0.00     0.023 A 
HETATM   21  C   UNL     1      42.193 -12.694   2.250  1.00  0.00     0.012 A 
HETATM   22  C   UNL     1      41.156 -11.821   1.918  1.00  0.00     0.001 A 
HETATM   23  C   UNL     1      39.851 -12.114   2.305  1.00  0.00     0.001 A 
BRANCH  15  24
HETATM   24  O   UNL     1      41.153 -17.258   5.290  1.00  0.00    -0.355 OA
HETATM   25  C   UNL     1      40.468 -16.944   6.500  1.00  0.00     0.210 C 
ENDBRANCH  15  24
ENDBRANCH   8  14
BRANCH  12  26
HETATM   26  N   UNL     1      44.126 -18.461   7.929  1.00  0.00    -0.282 NA
HETATM   27  H   UNL     1      43.594 -17.838   8.531  1.00  0.00     0.126 HD
HETATM   28  H   UNL     1      45.092 -18.578   8.230  1.00  0.00     0.126 HD
ENDBRANCH  12  26
TORSDOF 3
ENDMDL
MODEL 6
REMARK VINA RESULT:      -7.2      3.295      6.491
REMARK  3 active torsions:
REMARK  status: ('A' for Active; 'I' for Inactive)
REMARK    1  A    between atoms: C_8  and  C_9 
REMARK    2  A    between atoms: C_10  and  O_11 
REMARK    3  A    between atoms: C_24  and  N_25 
ROOT
HETATM    1  C   UNL     1      44.439 -14.095   5.809  1.00  0.00     0.070 C 
HETATM    2  C   UNL     1      42.993 -13.916   5.548  1.00  0.00     0.035 A 
HETATM    3  N   UNL     1      42.181 -13.187   6.387  1.00  0.00    -0.280 N 
HETATM    4  H   UNL     1      42.436 -12.709   7.245  1.00  0.00     0.189 HD
HETATM    5  N   UNL     1      40.900 -13.111   5.977  1.00  0.00    -0.148 NA
HETATM    6  C   UNL     1      40.908 -13.860   4.880  1.00  0.00     0.199 A 
HETATM    7  C   UNL     1      42.160 -14.390   4.553  1.00  0.00     0.034 A 
HETATM    8  C   UNL     1      42.329 -15.221   3.331  1.00  0.00     0.108 A 
HETATM    9  C   UNL     1      41.023 -15.315   2.545  1.00  0.00     0.081 A 
HETATM   10  C   UNL     1      41.079 -15.984   1.286  1.00  0.00     0.100 C 
HETATM   11  N   UNL     1      41.139 -16.491   0.243  1.00  0.00    -0.191 NA
HETATM   12  C   UNL     1      39.861 -14.758   2.975  1.00  0.00     0.140 A 
HETATM   13  O   UNL     1      39.778 -14.034   4.172  1.00  0.00    -0.277 OA
ENDROOT
BRANCH   8  14
HETATM   14  C   UNL     1      42.887 -16.588   3.719  1.00  0.00    -0.010 A 
HETATM   15  C   UNL     1      43.783 -17.343   2.944  1.00  0.00     0.076 A 
HETATM   16  C   UNL     1      44.281 -18.568   3.404  1.00  0.00     0.049 A 
HETATM   17  C   UNL     1      43.967 -19.038   4.688  1.00  0.00    -0.023 A 
HETATM   18  C   UNL     1      43.113 -18.273   5.508  1.00  0.00    -0.025 A 
HETATM   19  C   UNL     1      44.498 -20.241   5.180  1.00  0.00     0.012 A 
HETATM   20  C   UNL     1      42.575 -17.074   5.009  1.00  0.00     0.023 A 
HETATM   21  C   UNL     1      42.826 -18.721   6.808  1.00  0.00     0.012 A 
HETATM   22  C   UNL     1      43.372 -19.912   7.289  1.00  0.00     0.001 A 
HETATM   23  C   UNL     1      44.204 -20.675   6.474  1.00  0.00     0.001 A 
BRANCH  15  24
HETATM   24  O   UNL     1      44.117 -16.912   1.689  1.00  0.00    -0.355 OA
HETATM   25  C   UNL     1      43.995 -17.939   0.707  1.00  0.00     0.210 C 
ENDBRANCH  15  24
ENDBRANCH   8  14
BRANCH  12  26
HETATM   26  N   UNL     1      38.658 -14.809   2.301  1.00  0.00    -0.282 NA
HETATM   27  H   UNL     1      38.120 -15.663   2.423  1.00  0.00     0.126 HD
HETATM   28  H   UNL     1      38.764 -14.539   1.325  1.00  0.00     0.126 HD
ENDBRANCH  12  26
TORSDOF 3
ENDMDL
MODEL 7
REMARK VINA RESULT:      -7.1      4.435      7.077
REMARK  3 active torsions:
REMARK  status: ('A' for Active; 'I' for Inactive)
REMARK    1  A    between atoms: C_8  and  C_9 
REMARK    2  A    between atoms: C_10  and  O_11 
REMARK    3  A    between atoms: C_24  and  N_25 
ROOT
HETATM    1  C   UNL     1      39.864 -16.802   2.107  1.00  0.00     0.070 C 
HETATM    2  C   UNL     1      39.622 -15.352   1.938  1.00  0.00     0.035 A 
HETATM    3  N   UNL     1      39.458 -14.774   0.699  1.00  0.00    -0.280 N 
HETATM    4  H   UNL     1      39.484 -15.226  -0.209  1.00  0.00     0.189 HD
HETATM    5  N   UNL     1      39.220 -13.449   0.741  1.00  0.00    -0.148 NA
HETATM    6  C   UNL     1      39.293 -13.188   2.041  1.00  0.00     0.199 A 
HETATM    7  C   UNL     1      39.538 -14.309   2.841  1.00  0.00     0.034 A 
HETATM    8  C   UNL     1      39.613 -14.175   4.320  1.00  0.00     0.108 A 
HETATM    9  C   UNL     1      39.328 -12.741   4.758  1.00  0.00     0.081 A 
HETATM   10  C   UNL     1      39.248 -12.502   6.163  1.00  0.00     0.100 C 
HETATM   11  N   UNL     1      39.140 -12.322   7.304  1.00  0.00    -0.191 NA
HETATM   12  C   UNL     1      39.110 -11.730   3.877  1.00  0.00     0.140 A 
HETATM   13  O   UNL     1      39.112 -11.934   2.491  1.00  0.00    -0.277 OA
ENDROOT
BRANCH   8  14
HETATM   14  C   UNL     1      40.965 -14.687   4.810  1.00  0.00    -0.010 A 
HETATM   15  C   UNL     1      42.200 -14.060   4.570  1.00  0.00     0.076 A 
HETATM   16  C   UNL     1      43.388 -14.578   5.101  1.00  0.00     0.049 A 
HETATM   17  C   UNL     1      43.371 -15.686   5.961  1.00  0.00    -0.023 A 
HETATM   18  C   UNL     1      42.139 -16.301   6.262  1.00  0.00    -0.025 A 
HETATM   19  C   UNL     1      44.549 -16.185   6.538  1.00  0.00     0.012 A 
HETATM   20  C   UNL     1      40.962 -15.806   5.674  1.00  0.00     0.023 A 
HETATM   21  C   UNL     1      42.113 -17.388   7.151  1.00  0.00     0.012 A 
HETATM   22  C   UNL     1      43.290 -17.865   7.730  1.00  0.00     0.001 A 
HETATM   23  C   UNL     1      44.509 -17.267   7.420  1.00  0.00     0.001 A 
BRANCH  15  24
HETATM   24  O   UNL     1      42.254 -12.972   3.741  1.00  0.00    -0.355 OA
HETATM   25  C   UNL     1      42.848 -13.272   2.480  1.00  0.00     0.210 C 
ENDBRANCH  15  24
ENDBRANCH   8  14
BRANCH  12  26
HETATM   26  N   UNL     1      38.842 -10.420   4.220  1.00  0.00    -0.282 NA
HETATM   27  H   UNL     1      39.142 -10.137   5.150  1.00  0.00     0.126 HD
HETATM   28  H   UNL     1      37.876 -10.169   4.019  1.00  0.00     0.126 HD
ENDBRANCH  12  26
TORSDOF 3
ENDMDL
MODEL 8
REMARK VINA RESULT:      -7.1      2.122      2.728
REMARK  3 active torsions:
REMARK  status: ('A' for Active; 'I' for Inactive)
REMARK    1  A    between atoms: C_8  and  C_9 
REMARK    2  A    between atoms: C_10  and  O_11 
REMARK    3  A    between atoms: C_24  and  N_25 
ROOT
HETATM    1  C   UNL     1      44.493 -17.239   1.357  1.00  0.00     0.070 C 
HETATM    2  C   UNL     1      44.222 -18.303   2.349  1.00  0.00     0.035 A 
HETATM    3  N   UNL     1      44.128 -19.630   1.996  1.00  0.00    -0.280 N 
HETATM    4  H   UNL     1      44.219 -20.038   1.072  1.00  0.00     0.189 HD
HETATM    5  N   UNL     1      43.903 -20.458   3.035  1.00  0.00    -0.148 NA
HETATM    6  C   UNL     1      43.800 -19.613   4.054  1.00  0.00     0.199 A 
HETATM    7  C   UNL     1      43.984 -18.269   3.710  1.00  0.00     0.034 A 
HETATM    8  C   UNL     1      43.930 -17.212   4.754  1.00  0.00     0.108 A 
HETATM    9  C   UNL     1      43.729 -17.817   6.142  1.00  0.00     0.081 A 
HETATM   10  C   UNL     1      43.782 -16.919   7.249  1.00  0.00     0.100 C 
HETATM   11  N   UNL     1      43.870 -16.190   8.148  1.00  0.00    -0.191 NA
HETATM   12  C   UNL     1      43.554 -19.149   6.347  1.00  0.00     0.140 A 
HETATM   13  O   UNL     1      43.563 -20.074   5.295  1.00  0.00    -0.277 OA
ENDROOT
BRANCH   8  14
HETATM   14  C   UNL     1      42.853 -16.192   4.391  1.00  0.00    -0.010 A 
HETATM   15  C   UNL     1      42.904 -14.822   4.698  1.00  0.00     0.076 A 
HETATM   16  C   UNL     1      41.890 -13.951   4.281  1.00  0.00     0.049 A 
HETATM   17  C   UNL     1      40.838 -14.403   3.471  1.00  0.00    -0.023 A 
HETATM   18  C   UNL     1      40.793 -15.763   3.103  1.00  0.00    -0.025 A 
HETATM   19  C   UNL     1      39.841 -13.531   3.007  1.00  0.00     0.012 A 
HETATM   20  C   UNL     1      41.786 -16.637   3.579  1.00  0.00     0.023 A 
HETATM   21  C   UNL     1      39.761 -16.213   2.262  1.00  0.00     0.012 A 
HETATM   22  C   UNL     1      38.785 -15.332   1.795  1.00  0.00     0.001 A 
HETATM   23  C   UNL     1      38.822 -13.992   2.171  1.00  0.00     0.001 A 
BRANCH  15  24
HETATM   24  O   UNL     1      43.920 -14.343   5.480  1.00  0.00    -0.355 OA
HETATM   25  C   UNL     1      43.493 -13.301   6.355  1.00  0.00     0.210 C 
ENDBRANCH  15  24
ENDBRANCH   8  14
BRANCH  12  26
HETATM   26  N   UNL     1      43.374 -19.746   7.578  1.00  0.00    -0.282 NA
HETATM   27  H   UNL     1      43.174 -20.743   7.560  1.00  0.00     0.126 HD
HETATM   28  H   UNL     1      42.726 -19.219   8.160  1.00  0.00     0.126 HD
ENDBRANCH  12  26
TORSDOF 3
ENDMDL
MODEL 9
REMARK VINA RESULT:      -7.0      4.227      6.562
REMARK  3 active torsions:
REMARK  status: ('A' for Active; 'I' for Inactive)
REMARK    1  A    between atoms: C_8  and  C_9 
REMARK    2  A    between atoms: C_10  and  O_11 
REMARK    3  A    between atoms: C_24  and  N_25 
ROOT
HETATM    1  C   UNL     1      43.526 -14.286   6.175  1.00  0.00     0.070 C 
HETATM    2  C   UNL     1      42.541 -13.276   5.727  1.00  0.00     0.035 A 
HETATM    3  N   UNL     1      41.802 -12.526   6.614  1.00  0.00    -0.280 N 
HETATM    4  H   UNL     1      41.821 -12.560   7.628  1.00  0.00     0.189 HD
HETATM    5  N   UNL     1      40.976 -11.640   6.025  1.00  0.00    -0.148 NA
HETATM    6  C   UNL     1      41.169 -11.886   4.735  1.00  0.00     0.199 A 
HETATM    7  C   UNL     1      42.117 -12.881   4.473  1.00  0.00     0.034 A 
HETATM    8  C   UNL     1      42.462 -13.240   3.071  1.00  0.00     0.108 A 
HETATM    9  C   UNL     1      41.714 -12.356   2.076  1.00  0.00     0.081 A 
HETATM   10  C   UNL     1      42.048 -12.516   0.698  1.00  0.00     0.100 C 
HETATM   11  N   UNL     1      42.355 -12.619  -0.416  1.00  0.00    -0.191 NA
HETATM   12  C   UNL     1      40.805 -11.422   2.458  1.00  0.00     0.140 A 
HETATM   13  O   UNL     1      40.497 -11.185   3.804  1.00  0.00    -0.277 OA
ENDROOT
BRANCH   8  14
HETATM   14  C   UNL     1      42.207 -14.729   2.850  1.00  0.00    -0.010 A 
HETATM   15  C   UNL     1      40.940 -15.317   2.700  1.00  0.00     0.076 A 
HETATM   16  C   UNL     1      40.805 -16.689   2.452  1.00  0.00     0.049 A 
HETATM   17  C   UNL     1      41.932 -17.501   2.260  1.00  0.00    -0.023 A 
HETATM   18  C   UNL     1      43.216 -16.925   2.351  1.00  0.00    -0.025 A 
HETATM   19  C   UNL     1      41.810 -18.868   1.963  1.00  0.00     0.012 A 
HETATM   20  C   UNL     1      43.335 -15.559   2.659  1.00  0.00     0.023 A 
HETATM   21  C   UNL     1      44.346 -17.727   2.123  1.00  0.00     0.012 A 
HETATM   22  C   UNL     1      44.210 -19.082   1.814  1.00  0.00     0.001 A 
HETATM   23  C   UNL     1      42.943 -19.653   1.739  1.00  0.00     0.001 A 
BRANCH  15  24
HETATM   24  O   UNL     1      39.818 -14.553   2.874  1.00  0.00    -0.355 OA
HETATM   25  C   UNL     1      38.905 -14.666   1.784  1.00  0.00     0.210 C 
ENDBRANCH  15  24
ENDBRANCH   8  14
BRANCH  12  26
HETATM   26  N   UNL     1      40.107 -10.596   1.601  1.00  0.00    -0.282 NA
HETATM   27  H   UNL     1      39.708 -11.046   0.780  1.00  0.00     0.126 HD
HETATM   28  H   UNL     1      40.635  -9.754   1.378  1.00  0.00     0.126 HD
ENDBRANCH  12  26
TORSDOF 3
ENDMDL
MODEL 10
REMARK VINA RESULT:      -7.0      6.006      8.667
REMARK  3 active torsions:
REMARK  status: ('A' for Active; 'I' for Inactive)
REMARK    1  A    between atoms: C_8  and  C_9 
REMARK    2  A    between atoms: C_10  and  O_11 
REMARK    3  A    between atoms: C_24  and  N_25 
ROOT
HETATM    1  C   UNL     1      37.537 -13.626   0.657  1.00  0.00     0.070 C 
HETATM    2  C   UNL     1      38.293 -13.820  -0.601  1.00  0.00     0.035 A 
HETATM    3  N   UNL     1      37.807 -14.581  -1.640  1.00  0.00    -0.280 N 
HETATM    4  H   UNL     1      36.929 -15.086  -1.687  1.00  0.00     0.189 HD
HETATM    5  N   UNL     1      38.620 -14.622  -2.714  1.00  0.00    -0.148 NA
HETATM    6  C   UNL     1      39.665 -13.911  -2.307  1.00  0.00     0.199 A 
HETATM    7  C   UNL     1      39.537 -13.385  -1.017  1.00  0.00     0.034 A 
HETATM    8  C   UNL     1      40.615 -12.538  -0.440  1.00  0.00     0.108 A 
HETATM    9  C   UNL     1      41.739 -12.315  -1.449  1.00  0.00     0.081 A 
HETATM   10  C   UNL     1      42.779 -11.418  -1.063  1.00  0.00     0.100 C 
HETATM   11  N   UNL     1      43.600 -10.654  -0.762  1.00  0.00    -0.191 NA
HETATM   12  C   UNL     1      41.752 -12.892  -2.679  1.00  0.00     0.140 A 
HETATM   13  O   UNL     1      40.717 -13.725  -3.123  1.00  0.00    -0.277 OA
ENDROOT
BRANCH   8  14
HETATM   14  C   UNL     1      41.105 -13.158   0.866  1.00  0.00    -0.010 A 
HETATM   15  C   UNL     1      41.760 -14.395   0.976  1.00  0.00     0.076 A 
HETATM   16  C   UNL     1      42.218 -14.863   2.214  1.00  0.00     0.049 A 
HETATM   17  C   UNL     1      42.114 -14.071   3.367  1.00  0.00    -0.023 A 
HETATM   18  C   UNL     1      41.509 -12.801   3.275  1.00  0.00    -0.025 A 
HETATM   19  C   UNL     1      42.612 -14.508   4.605  1.00  0.00     0.012 A 
HETATM   20  C   UNL     1      41.001 -12.371   2.036  1.00  0.00     0.023 A 
HETATM   21  C   UNL     1      41.435 -11.991   4.419  1.00  0.00     0.012 A 
HETATM   22  C   UNL     1      41.948 -12.431   5.640  1.00  0.00     0.001 A 
HETATM   23  C   UNL     1      42.532 -13.691   5.735  1.00  0.00     0.001 A 
BRANCH  15  24
HETATM   24  O   UNL     1      41.887 -15.192  -0.130  1.00  0.00    -0.355 OA
HETATM   25  C   UNL     1      41.488 -16.538   0.116  1.00  0.00     0.210 C 
ENDBRANCH  15  24
ENDBRANCH   8  14
BRANCH  12  26
HETATM   26  N   UNL     1      42.739 -12.719  -3.627  1.00  0.00    -0.282 NA
HETATM   27  H   UNL     1      42.790 -11.794  -4.048  1.00  0.00     0.126 HD
HETATM   28  H   UNL     1      42.735 -13.471  -4.314  1.00  0.00     0.126 HD
ENDBRANCH  12  26
TORSDOF 3
ENDMDL
