MODEL 1
REMARK VINA RESULT:      -7.4      0.000      0.000
REMARK  3 active torsions:
REMARK  status: ('A' for Active; 'I' for Inactive)
REMARK    1  A    between atoms: C_11  and  N_12 
REMARK       I    between atoms: N_12  and  C_13 
REMARK       I    between atoms: C_13  and  N_14 
REMARK    2  A    between atoms: N_14  and  C_15 
REMARK    3  A    between atoms: C_20  and  O_21 
ROOT
HETATM    1  N   UNL     1      41.861 -15.516  -0.477  1.00  0.00    -0.338 N 
HETATM    2  C   UNL     1      41.892 -16.576   0.417  1.00  0.00     0.321 C 
HETATM    3  N   UNL     1      43.125 -16.686   1.015  1.00  0.00    -0.306 N 
HETATM    4  O   UNL     1      40.933 -17.311   0.594  1.00  0.00    -0.247 OA
HETATM    5  H   UNL     1      42.546 -14.814  -0.228  1.00  0.00     0.164 HD
HETATM    6  H   UNL     1      43.834 -16.000   0.790  1.00  0.00     0.171 HD
ENDROOT
BRANCH   1   7
HETATM    7  C   UNL     1      40.613 -14.969  -1.008  1.00  0.00     0.091 C 
HETATM    8  C   UNL     1      40.640 -14.291  -2.386  1.00  0.00     0.063 C 
HETATM    9  C   UNL     1      41.335 -12.930  -2.439  1.00  0.00     0.121 C 
HETATM   10  N   UNL     1      40.775 -12.048  -1.340  1.00  0.00    -0.059 N 
HETATM   11  C   UNL     1      42.862 -12.982  -2.351  1.00  0.00     0.046 C 
HETATM   12  C   UNL     1      40.972 -12.233  -3.768  1.00  0.00     0.046 C 
HETATM   13  C   UNL     1      40.583 -12.598   0.057  1.00  0.00     0.121 C 
HETATM   14  H   UNL     1      39.857 -11.714  -1.666  1.00  0.00     0.279 HD
HETATM   15  H   UNL     1      41.348 -11.192  -1.286  1.00  0.00     0.279 HD
HETATM   16  C   UNL     1      41.901 -12.534   0.836  1.00  0.00     0.046 C 
HETATM   17  C   UNL     1      39.589 -11.644   0.753  1.00  0.00     0.046 C 
HETATM   18  C   UNL     1      39.965 -14.009   0.000  1.00  0.00     0.063 C 
ENDBRANCH   1   7
BRANCH   3  19
HETATM   19  C   UNL     1      43.527 -17.621   2.000  1.00  0.00     0.077 A 
HETATM   20  C   UNL     1      43.531 -17.169   3.327  1.00  0.00     0.143 A 
HETATM   21  F   UNL     1      43.171 -15.903   3.590  1.00  0.00    -0.204 F 
HETATM   22  C   UNL     1      43.885 -18.004   4.379  1.00  0.00     0.047 A 
HETATM   23  C   UNL     1      44.257 -19.317   4.105  1.00  0.00     0.040 A 
HETATM   24  C   UNL     1      44.277 -19.789   2.788  1.00  0.00     0.070 A 
HETATM   25  C   UNL     1      43.905 -18.941   1.738  1.00  0.00     0.069 A 
BRANCH  24  26
HETATM   26  O   UNL     1      44.674 -21.092   2.664  1.00  0.00    -0.356 OA
HETATM   27  C   UNL     1      43.991 -21.892   1.706  1.00  0.00     0.210 C 
ENDBRANCH  24  26
ENDBRANCH   3  19
TORSDOF 3
ENDMDL
MODEL 2
REMARK VINA RESULT:      -7.2      2.376      3.443
REMARK  3 active torsions:
REMARK  status: ('A' for Active; 'I' for Inactive)
REMARK    1  A    between atoms: C_11  and  N_12 
REMARK       I    between atoms: N_12  and  C_13 
REMARK       I    between atoms: C_13  and  N_14 
REMARK    2  A    between atoms: N_14  and  C_15 
REMARK    3  A    between atoms: C_20  and  O_21 
ROOT
HETATM    1  N   UNL     1      39.612 -14.736  -0.357  1.00  0.00    -0.338 N 
HETATM    2  C   UNL     1      40.413 -15.023   0.739  1.00  0.00     0.321 C 
HETATM    3  N   UNL     1      40.754 -16.354   0.770  1.00  0.00    -0.306 N 
HETATM    4  O   UNL     1      40.722 -14.175   1.562  1.00  0.00    -0.247 OA
HETATM    5  H   UNL     1      39.770 -15.402  -1.103  1.00  0.00     0.164 HD
HETATM    6  H   UNL     1      40.443 -16.950   0.015  1.00  0.00     0.171 HD
ENDROOT
BRANCH   1   7
HETATM    7  C   UNL     1      39.367 -13.371  -0.820  1.00  0.00     0.091 C 
HETATM    8  C   UNL     1      38.104 -13.096  -1.649  1.00  0.00     0.063 C 
HETATM    9  C   UNL     1      38.120 -13.645  -3.077  1.00  0.00     0.121 C 
HETATM   10  N   UNL     1      39.402 -13.208  -3.759  1.00  0.00    -0.059 N 
HETATM   11  C   UNL     1      37.952 -15.162  -3.185  1.00  0.00     0.046 C 
HETATM   12  C   UNL     1      36.971 -12.995  -3.877  1.00  0.00     0.046 C 
HETATM   13  C   UNL     1      40.726 -13.313  -3.034  1.00  0.00     0.121 C 
HETATM   14  H   UNL     1      39.275 -12.221  -4.025  1.00  0.00     0.279 HD
HETATM   15  H   UNL     1      39.474 -13.702  -4.662  1.00  0.00     0.279 HD
HETATM   16  C   UNL     1      41.283 -14.736  -3.155  1.00  0.00     0.046 C 
HETATM   17  C   UNL     1      41.694 -12.374  -3.786  1.00  0.00     0.046 C 
HETATM   18  C   UNL     1      40.584 -12.825  -1.580  1.00  0.00     0.063 C 
ENDBRANCH   1   7
BRANCH   3  19
HETATM   19  C   UNL     1      41.582 -17.010   1.714  1.00  0.00     0.077 A 
HETATM   20  C   UNL     1      42.823 -17.466   1.249  1.00  0.00     0.143 A 
HETATM   21  F   UNL     1      43.155 -17.268  -0.037  1.00  0.00    -0.204 F 
HETATM   22  C   UNL     1      43.726 -18.103   2.090  1.00  0.00     0.047 A 
HETATM   23  C   UNL     1      43.382 -18.306   3.423  1.00  0.00     0.040 A 
HETATM   24  C   UNL     1      42.142 -17.876   3.910  1.00  0.00     0.070 A 
HETATM   25  C   UNL     1      41.247 -17.222   3.054  1.00  0.00     0.069 A 
BRANCH  24  26
HETATM   26  O   UNL     1      41.931 -18.152   5.233  1.00  0.00    -0.356 OA
HETATM   27  C   UNL     1      43.040 -18.637   5.980  1.00  0.00     0.210 C 
ENDBRANCH  24  26
ENDBRANCH   3  19
TORSDOF 3
ENDMDL
MODEL 3
REMARK VINA RESULT:      -7.1      2.215      2.823
REMARK  3 active torsions:
REMARK  status: ('A' for Active; 'I' for Inactive)
REMARK    1  A    between atoms: C_11  and  N_12 
REMARK       I    between atoms: N_12  and  C_13 
REMARK       I    between atoms: C_13  and  N_14 
REMARK    2  A    between atoms: N_14  and  C_15 
REMARK    3  A    between atoms: C_20  and  O_21 
ROOT
HETATM    1  N   UNL     1      41.488 -15.375   2.825  1.00  0.00    -0.338 N 
HETATM    2  C   UNL     1      41.765 -16.651   3.293  1.00  0.00     0.321 C 
HETATM    3  N   UNL     1      43.100 -16.949   3.163  1.00  0.00    -0.306 N 
HETATM    4  O   UNL     1      40.896 -17.392   3.727  1.00  0.00    -0.247 OA
HETATM    5  H   UNL     1      42.310 -14.787   2.874  1.00  0.00     0.164 HD
HETATM    6  H   UNL     1      43.721 -16.238   2.800  1.00  0.00     0.171 HD
ENDROOT
BRANCH   1   7
HETATM    7  C   UNL     1      40.238 -14.678   3.128  1.00  0.00     0.091 C 
HETATM    8  C   UNL     1      39.078 -14.792   2.128  1.00  0.00     0.063 C 
HETATM    9  C   UNL     1      39.260 -14.029   0.815  1.00  0.00     0.121 C 
HETATM   10  N   UNL     1      39.655 -12.598   1.127  1.00  0.00    -0.059 N 
HETATM   11  C   UNL     1      40.260 -14.654  -0.160  1.00  0.00     0.046 C 
HETATM   12  C   UNL     1      37.900 -13.944   0.091  1.00  0.00     0.046 C 
HETATM   13  C   UNL     1      40.712 -12.309   2.171  1.00  0.00     0.121 C 
HETATM   14  H   UNL     1      38.796 -12.110   1.417  1.00  0.00     0.279 HD
HETATM   15  H   UNL     1      39.920 -12.134   0.245  1.00  0.00     0.279 HD
HETATM   16  C   UNL     1      42.110 -12.438   1.557  1.00  0.00     0.046 C 
HETATM   17  C   UNL     1      40.518 -10.830   2.569  1.00  0.00     0.046 C 
HETATM   18  C   UNL     1      40.497 -13.192   3.415  1.00  0.00     0.063 C 
ENDBRANCH   1   7
BRANCH   3  19
HETATM   19  C   UNL     1      43.762 -18.138   3.558  1.00  0.00     0.077 A 
HETATM   20  C   UNL     1      44.275 -18.165   4.862  1.00  0.00     0.143 A 
HETATM   21  F   UNL     1      44.124 -17.089   5.650  1.00  0.00    -0.204 F 
HETATM   22  C   UNL     1      44.923 -19.286   5.366  1.00  0.00     0.047 A 
HETATM   23  C   UNL     1      45.078 -20.402   4.549  1.00  0.00     0.040 A 
HETATM   24  C   UNL     1      44.590 -20.395   3.237  1.00  0.00     0.070 A 
HETATM   25  C   UNL     1      43.926 -19.264   2.747  1.00  0.00     0.069 A 
BRANCH  24  26
HETATM   26  O   UNL     1      44.823 -21.553   2.545  1.00  0.00    -0.356 OA
HETATM   27  C   UNL     1      43.925 -21.869   1.488  1.00  0.00     0.210 C 
ENDBRANCH  24  26
ENDBRANCH   3  19
TORSDOF 3
ENDMDL
MODEL 4
REMARK VINA RESULT:      -7.1      2.828      4.270
REMARK  3 active torsions:
REMARK  status: ('A' for Active; 'I' for Inactive)
REMARK    1  A    between atoms: C_11  and  N_12 
REMARK       I    between atoms: N_12  and  C_13 
REMARK       I    between atoms: C_13  and  N_14 
REMARK    2  A    between atoms: N_14  and  C_15 
REMARK    3  A    between atoms: C_20  and  O_21 
ROOT
HETATM    1  N   UNL     1      42.058 -15.025   3.679  1.00  0.00    -0.338 N 
HETATM    2  C   UNL     1      42.938 -16.012   3.261  1.00  0.00     0.321 C 
HETATM    3  N   UNL     1      42.537 -17.252   3.698  1.00  0.00    -0.306 N 
HETATM    4  O   UNL     1      43.944 -15.760   2.616  1.00  0.00    -0.247 OA
HETATM    5  H   UNL     1      41.135 -15.408   3.840  1.00  0.00     0.164 HD
HETATM    6  H   UNL     1      41.670 -17.326   4.215  1.00  0.00     0.171 HD
ENDROOT
BRANCH   1   7
HETATM    7  C   UNL     1      42.050 -13.680   3.104  1.00  0.00     0.091 C 
HETATM    8  C   UNL     1      41.541 -12.518   3.969  1.00  0.00     0.063 C 
HETATM    9  C   UNL     1      40.032 -12.490   4.216  1.00  0.00     0.121 C 
HETATM   10  N   UNL     1      39.312 -12.618   2.887  1.00  0.00    -0.059 N 
HETATM   11  C   UNL     1      39.520 -13.546   5.199  1.00  0.00     0.046 C 
HETATM   12  C   UNL     1      39.640 -11.107   4.779  1.00  0.00     0.046 C 
HETATM   13  C   UNL     1      39.761 -13.647   1.872  1.00  0.00     0.121 C 
HETATM   14  H   UNL     1      39.364 -11.696   2.432  1.00  0.00     0.279 HD
HETATM   15  H   UNL     1      38.306 -12.749   3.073  1.00  0.00     0.279 HD
HETATM   16  C   UNL     1      39.153 -15.014   2.201  1.00  0.00     0.046 C 
HETATM   17  C   UNL     1      39.170 -13.192   0.521  1.00  0.00     0.046 C 
HETATM   18  C   UNL     1      41.299 -13.663   1.765  1.00  0.00     0.063 C 
ENDBRANCH   1   7
BRANCH   3  19
HETATM   19  C   UNL     1      43.159 -18.499   3.445  1.00  0.00     0.077 A 
HETATM   20  C   UNL     1      42.860 -19.111   2.220  1.00  0.00     0.143 A 
HETATM   21  F   UNL     1      42.013 -18.504   1.373  1.00  0.00    -0.204 F 
HETATM   22  C   UNL     1      43.428 -20.324   1.854  1.00  0.00     0.047 A 
HETATM   23  C   UNL     1      44.307 -20.952   2.733  1.00  0.00     0.040 A 
HETATM   24  C   UNL     1      44.611 -20.371   3.969  1.00  0.00     0.070 A 
HETATM   25  C   UNL     1      44.041 -19.141   4.319  1.00  0.00     0.069 A 
BRANCH  24  26
HETATM   26  O   UNL     1      45.477 -21.101   4.736  1.00  0.00    -0.356 OA
HETATM   27  C   UNL     1      45.072 -22.416   5.100  1.00  0.00     0.210 C 
ENDBRANCH  24  26
ENDBRANCH   3  19
TORSDOF 3
ENDMDL
MODEL 5
REMARK VINA RESULT:      -7.0      3.313      7.938
REMARK  3 active torsions:
REMARK  status: ('A' for Active; 'I' for Inactive)
REMARK    1  A    between atoms: C_11  and  N_12 
REMARK       I    between atoms: N_12  and  C_13 
REMARK       I    between atoms: C_13  and  N_14 
REMARK    2  A    between atoms: N_14  and  C_15 
REMARK    3  A    between atoms: C_20  and  O_21 
ROOT
HETATM    1  N   UNL     1      42.060 -15.218   0.165  1.00  0.00    -0.338 N 
HETATM    2  C   UNL     1      41.651 -14.028  -0.420  1.00  0.00     0.321 C 
HETATM    3  N   UNL     1      42.597 -13.555  -1.298  1.00  0.00    -0.306 N 
HETATM    4  O   UNL     1      40.593 -13.489  -0.135  1.00  0.00    -0.247 OA
HETATM    5  H   UNL     1      42.719 -15.704  -0.430  1.00  0.00     0.164 HD
HETATM    6  H   UNL     1      43.429 -14.109  -1.456  1.00  0.00     0.171 HD
ENDROOT
BRANCH   1   7
HETATM    7  C   UNL     1      41.140 -16.102   0.880  1.00  0.00     0.091 C 
HETATM    8  C   UNL     1      40.726 -15.723   2.310  1.00  0.00     0.063 C 
HETATM    9  C   UNL     1      41.811 -15.883   3.376  1.00  0.00     0.121 C 
HETATM   10  N   UNL     1      42.410 -17.272   3.265  1.00  0.00    -0.059 N 
HETATM   11  C   UNL     1      42.917 -14.825   3.335  1.00  0.00     0.046 C 
HETATM   12  C   UNL     1      41.157 -15.814   4.772  1.00  0.00     0.046 C 
HETATM   13  C   UNL     1      42.774 -17.840   1.910  1.00  0.00     0.121 C 
HETATM   14  H   UNL     1      41.736 -17.920   3.697  1.00  0.00     0.279 HD
HETATM   15  H   UNL     1      43.235 -17.321   3.881  1.00  0.00     0.279 HD
HETATM   16  C   UNL     1      44.157 -17.337   1.482  1.00  0.00     0.046 C 
HETATM   17  C   UNL     1      42.880 -19.368   2.108  1.00  0.00     0.046 C 
HETATM   18  C   UNL     1      41.662 -17.545   0.885  1.00  0.00     0.063 C 
ENDBRANCH   1   7
BRANCH   3  19
HETATM   19  C   UNL     1      42.523 -12.392  -2.103  1.00  0.00     0.077 A 
HETATM   20  C   UNL     1      41.991 -12.553  -3.390  1.00  0.00     0.143 A 
HETATM   21  F   UNL     1      41.594 -13.772  -3.788  1.00  0.00    -0.204 F 
HETATM   22  C   UNL     1      41.849 -11.478  -4.258  1.00  0.00     0.047 A 
HETATM   23  C   UNL     1      42.259 -10.214  -3.843  1.00  0.00     0.040 A 
HETATM   24  C   UNL     1      42.809 -10.029  -2.570  1.00  0.00     0.070 A 
HETATM   25  C   UNL     1      42.934 -11.118  -1.699  1.00  0.00     0.069 A 
BRANCH  24  26
HETATM   26  O   UNL     1      43.180  -8.740  -2.300  1.00  0.00    -0.356 OA
HETATM   27  C   UNL     1      43.972  -8.520  -1.139  1.00  0.00     0.210 C 
ENDBRANCH  24  26
ENDBRANCH   3  19
TORSDOF 3
ENDMDL
MODEL 6
REMARK VINA RESULT:      -7.0      2.028      3.257
REMARK  3 active torsions:
REMARK  status: ('A' for Active; 'I' for Inactive)
REMARK    1  A    between atoms: C_11  and  N_12 
REMARK       I    between atoms: N_12  and  C_13 
REMARK       I    between atoms: C_13  and  N_14 
REMARK    2  A    between atoms: N_14  and  C_15 
REMARK    3  A    between atoms: C_20  and  O_21 
ROOT
HETATM    1  N   UNL     1      40.966 -15.058   3.076  1.00  0.00    -0.338 N 
HETATM    2  C   UNL     1      42.093 -15.761   3.476  1.00  0.00     0.321 C 
HETATM    3  N   UNL     1      41.854 -17.115   3.493  1.00  0.00    -0.306 N 
HETATM    4  O   UNL     1      43.132 -15.204   3.793  1.00  0.00    -0.247 OA
HETATM    5  H   UNL     1      40.365 -15.637   2.503  1.00  0.00     0.164 HD
HETATM    6  H   UNL     1      40.948 -17.450   3.191  1.00  0.00     0.171 HD
ENDROOT
BRANCH   1   7
HETATM    7  C   UNL     1      41.017 -13.657   2.660  1.00  0.00     0.091 C 
HETATM    8  C   UNL     1      39.693 -12.901   2.476  1.00  0.00     0.063 C 
HETATM    9  C   UNL     1      38.869 -13.301   1.252  1.00  0.00     0.121 C 
HETATM   10  N   UNL     1      39.760 -13.271   0.025  1.00  0.00    -0.059 N 
HETATM   11  C   UNL     1      38.166 -14.657   1.362  1.00  0.00     0.046 C 
HETATM   12  C   UNL     1      37.779 -12.235   1.009  1.00  0.00     0.046 C 
HETATM   13  C   UNL     1      41.145 -13.880   0.074  1.00  0.00     0.121 C 
HETATM   14  H   UNL     1      39.870 -12.281  -0.237  1.00  0.00     0.279 HD
HETATM   15  H   UNL     1      39.241 -13.683  -0.765  1.00  0.00     0.279 HD
HETATM   16  C   UNL     1      41.066 -15.392  -0.165  1.00  0.00     0.046 C 
HETATM   17  C   UNL     1      41.918 -13.266  -1.114  1.00  0.00     0.046 C 
HETATM   18  C   UNL     1      41.857 -13.496   1.385  1.00  0.00     0.063 C 
ENDBRANCH   1   7
BRANCH   3  19
HETATM   19  C   UNL     1      42.767 -18.148   3.816  1.00  0.00     0.077 A 
HETATM   20  C   UNL     1      42.998 -18.378   5.179  1.00  0.00     0.143 A 
HETATM   21  F   UNL     1      42.363 -17.621   6.089  1.00  0.00    -0.204 F 
HETATM   22  C   UNL     1      43.856 -19.379   5.614  1.00  0.00     0.047 A 
HETATM   23  C   UNL     1      44.513 -20.165   4.670  1.00  0.00     0.040 A 
HETATM   24  C   UNL     1      44.314 -19.946   3.302  1.00  0.00     0.070 A 
HETATM   25  C   UNL     1      43.435 -18.942   2.878  1.00  0.00     0.069 A 
BRANCH  24  26
HETATM   26  O   UNL     1      45.031 -20.780   2.489  1.00  0.00    -0.356 OA
HETATM   27  C   UNL     1      44.350 -21.907   1.951  1.00  0.00     0.210 C 
ENDBRANCH  24  26
ENDBRANCH   3  19
TORSDOF 3
ENDMDL
MODEL 7
REMARK VINA RESULT:      -6.9      2.214      2.983
REMARK  3 active torsions:
REMARK  status: ('A' for Active; 'I' for Inactive)
REMARK    1  A    between atoms: C_11  and  N_12 
REMARK       I    between atoms: N_12  and  C_13 
REMARK       I    between atoms: C_13  and  N_14 
REMARK    2  A    between atoms: N_14  and  C_15 
REMARK    3  A    between atoms: C_20  and  O_21 
ROOT
HETATM    1  N   UNL     1      41.181 -15.173   2.855  1.00  0.00    -0.338 N 
HETATM    2  C   UNL     1      41.414 -16.540   2.852  1.00  0.00     0.321 C 
HETATM    3  N   UNL     1      42.739 -16.819   3.092  1.00  0.00    -0.306 N 
HETATM    4  O   UNL     1      40.531 -17.353   2.627  1.00  0.00    -0.247 OA
HETATM    5  H   UNL     1      41.873 -14.690   3.415  1.00  0.00     0.164 HD
HETATM    6  H   UNL     1      43.369 -16.049   3.278  1.00  0.00     0.171 HD
ENDROOT
BRANCH   1   7
HETATM    7  C   UNL     1      39.838 -14.602   2.949  1.00  0.00     0.091 C 
HETATM    8  C   UNL     1      38.893 -14.758   1.749  1.00  0.00     0.063 C 
HETATM    9  C   UNL     1      39.236 -13.912   0.523  1.00  0.00     0.121 C 
HETATM   10  N   UNL     1      39.433 -12.472   0.957  1.00  0.00    -0.059 N 
HETATM   11  C   UNL     1      40.450 -14.395  -0.275  1.00  0.00     0.046 C 
HETATM   12  C   UNL     1      38.027 -13.903  -0.437  1.00  0.00     0.046 C 
HETATM   13  C   UNL     1      40.253 -12.152   2.188  1.00  0.00     0.121 C 
HETATM   14  H   UNL     1      38.494 -12.076   1.102  1.00  0.00     0.279 HD
HETATM   15  H   UNL     1      39.808 -11.939   0.157  1.00  0.00     0.279 HD
HETATM   16  C   UNL     1      41.744 -12.128   1.838  1.00  0.00     0.046 C 
HETATM   17  C   UNL     1      39.853 -10.719   2.600  1.00  0.00     0.046 C 
HETATM   18  C   UNL     1      39.901 -13.118   3.337  1.00  0.00     0.063 C 
ENDBRANCH   1   7
BRANCH   3  19
HETATM   19  C   UNL     1      43.348 -18.094   3.194  1.00  0.00     0.077 A 
HETATM   20  C   UNL     1      43.655 -18.740   1.989  1.00  0.00     0.143 A 
HETATM   21  F   UNL     1      43.359 -18.137   0.827  1.00  0.00    -0.204 F 
HETATM   22  C   UNL     1      44.274 -19.983   1.967  1.00  0.00     0.047 A 
HETATM   23  C   UNL     1      44.582 -20.607   3.172  1.00  0.00     0.040 A 
HETATM   24  C   UNL     1      44.271 -19.992   4.390  1.00  0.00     0.070 A 
HETATM   25  C   UNL     1      43.660 -18.732   4.398  1.00  0.00     0.069 A 
BRANCH  24  26
HETATM   26  O   UNL     1      44.618 -20.722   5.494  1.00  0.00    -0.356 OA
HETATM   27  C   UNL     1      44.977 -22.083   5.286  1.00  0.00     0.210 C 
ENDBRANCH  24  26
ENDBRANCH   3  19
TORSDOF 3
ENDMDL
MODEL 8
REMARK VINA RESULT:      -6.9      2.039      3.477
REMARK  3 active torsions:
REMARK  status: ('A' for Active; 'I' for Inactive)
REMARK    1  A    between atoms: C_11  and  N_12 
REMARK       I    between atoms: N_12  and  C_13 
REMARK       I    between atoms: C_13  and  N_14 
REMARK    2  A    between atoms: N_14  and  C_15 
REMARK    3  A    between atoms: C_20  and  O_21 
ROOT
HETATM    1  N   UNL     1      41.325 -14.988   2.353  1.00  0.00    -0.338 N 
HETATM    2  C   UNL     1      42.371 -15.713   2.905  1.00  0.00     0.321 C 
HETATM    3  N   UNL     1      42.118 -17.063   2.861  1.00  0.00    -0.306 N 
HETATM    4  O   UNL     1      43.356 -15.175   3.387  1.00  0.00    -0.247 OA
HETATM    5  H   UNL     1      40.812 -15.549   1.684  1.00  0.00     0.164 HD
HETATM    6  H   UNL     1      41.265 -17.381   2.419  1.00  0.00     0.171 HD
ENDROOT
BRANCH   1   7
HETATM    7  C   UNL     1      41.453 -13.581   1.975  1.00  0.00     0.091 C 
HETATM    8  C   UNL     1      40.191 -12.706   1.976  1.00  0.00     0.063 C 
HETATM    9  C   UNL     1      39.195 -12.984   0.850  1.00  0.00     0.121 C 
HETATM   10  N   UNL     1      39.934 -12.981  -0.474  1.00  0.00    -0.059 N 
HETATM   11  C   UNL     1      38.390 -14.277   1.005  1.00  0.00     0.046 C 
HETATM   12  C   UNL     1      38.185 -11.818   0.774  1.00  0.00     0.046 C 
HETATM   13  C   UNL     1      41.254 -13.709  -0.613  1.00  0.00     0.121 C 
HETATM   14  H   UNL     1      40.101 -11.995  -0.718  1.00  0.00     0.279 HD
HETATM   15  H   UNL     1      39.290 -13.314  -1.207  1.00  0.00     0.279 HD
HETATM   16  C   UNL     1      41.010 -15.197  -0.884  1.00  0.00     0.046 C 
HETATM   17  C   UNL     1      41.933 -13.117  -1.866  1.00  0.00     0.046 C 
HETATM   18  C   UNL     1      42.148 -13.442   0.614  1.00  0.00     0.063 C 
ENDBRANCH   1   7
BRANCH   3  19
HETATM   19  C   UNL     1      42.960 -18.114   3.299  1.00  0.00     0.077 A 
HETATM   20  C   UNL     1      43.658 -18.813   2.304  1.00  0.00     0.143 A 
HETATM   21  F   UNL     1      43.492 -18.465   1.018  1.00  0.00    -0.204 F 
HETATM   22  C   UNL     1      44.530 -19.848   2.617  1.00  0.00     0.047 A 
HETATM   23  C   UNL     1      44.704 -20.207   3.950  1.00  0.00     0.040 A 
HETATM   24  C   UNL     1      44.007 -19.537   4.962  1.00  0.00     0.070 A 
HETATM   25  C   UNL     1      43.141 -18.486   4.634  1.00  0.00     0.069 A 
BRANCH  24  26
HETATM   26  O   UNL     1      44.263 -20.001   6.224  1.00  0.00    -0.356 OA
HETATM   27  C   UNL     1      43.812 -19.205   7.313  1.00  0.00     0.210 C 
ENDBRANCH  24  26
ENDBRANCH   3  19
TORSDOF 3
ENDMDL
MODEL 9
REMARK VINA RESULT:      -6.8      2.348      3.274
REMARK  3 active torsions:
REMARK  status: ('A' for Active; 'I' for Inactive)
REMARK    1  A    between atoms: C_11  and  N_12 
REMARK       I    between atoms: N_12  and  C_13 
REMARK       I    between atoms: C_13  and  N_14 
REMARK    2  A    between atoms: N_14  and  C_15 
REMARK    3  A    between atoms: C_20  and  O_21 
ROOT
HETATM    1  N   UNL     1      41.986 -15.190   2.493  1.00  0.00    -0.338 N 
HETATM    2  C   UNL     1      43.044 -16.075   2.646  1.00  0.00     0.321 C 
HETATM    3  N   UNL     1      42.678 -17.162   3.403  1.00  0.00    -0.306 N 
HETATM    4  O   UNL     1      44.151 -15.857   2.177  1.00  0.00    -0.247 OA
HETATM    5  H   UNL     1      41.100 -15.669   2.586  1.00  0.00     0.164 HD
HETATM    6  H   UNL     1      41.719 -17.228   3.721  1.00  0.00     0.171 HD
ENDROOT
BRANCH   1   7
HETATM    7  C   UNL     1      41.986 -14.128   1.488  1.00  0.00     0.091 C 
HETATM    8  C   UNL     1      41.902 -12.671   1.965  1.00  0.00     0.063 C 
HETATM    9  C   UNL     1      40.545 -12.235   2.520  1.00  0.00     0.121 C 
HETATM   10  N   UNL     1      39.462 -12.612   1.527  1.00  0.00    -0.059 N 
HETATM   11  C   UNL     1      40.207 -12.788   3.907  1.00  0.00     0.046 C 
HETATM   12  C   UNL     1      40.513 -10.694   2.617  1.00  0.00     0.046 C 
HETATM   13  C   UNL     1      39.464 -13.979   0.879  1.00  0.00     0.121 C 
HETATM   14  H   UNL     1      39.499 -11.914   0.770  1.00  0.00     0.279 HD
HETATM   15  H   UNL     1      38.545 -12.452   1.970  1.00  0.00     0.279 HD
HETATM   16  C   UNL     1      38.805 -15.004   1.809  1.00  0.00     0.046 C 
HETATM   17  C   UNL     1      38.571 -13.853  -0.374  1.00  0.00     0.046 C 
HETATM   18  C   UNL     1      40.889 -14.367   0.440  1.00  0.00     0.063 C 
ENDBRANCH   1   7
BRANCH   3  19
HETATM   19  C   UNL     1      43.473 -18.282   3.746  1.00  0.00     0.077 A 
HETATM   20  C   UNL     1      44.112 -18.240   4.993  1.00  0.00     0.143 A 
HETATM   21  F   UNL     1      43.949 -17.162   5.777  1.00  0.00    -0.204 F 
HETATM   22  C   UNL     1      44.899 -19.291   5.444  1.00  0.00     0.047 A 
HETATM   23  C   UNL     1      45.066 -20.409   4.630  1.00  0.00     0.040 A 
HETATM   24  C   UNL     1      44.453 -20.470   3.374  1.00  0.00     0.070 A 
HETATM   25  C   UNL     1      43.651 -19.409   2.937  1.00  0.00     0.069 A 
BRANCH  24  26
HETATM   26  O   UNL     1      44.713 -21.619   2.677  1.00  0.00    -0.356 OA
HETATM   27  C   UNL     1      43.901 -21.887   1.541  1.00  0.00     0.210 C 
ENDBRANCH  24  26
ENDBRANCH   3  19
TORSDOF 3
ENDMDL
MODEL 10
REMARK VINA RESULT:      -6.7      1.828      2.286
REMARK  3 active torsions:
REMARK  status: ('A' for Active; 'I' for Inactive)
REMARK    1  A    between atoms: C_11  and  N_12 
REMARK       I    between atoms: N_12  and  C_13 
REMARK       I    between atoms: C_13  and  N_14 
REMARK    2  A    between atoms: N_14  and  C_15 
REMARK    3  A    between atoms: C_20  and  O_21 
ROOT
HETATM    1  N   UNL     1      41.473 -15.160   1.717  1.00  0.00    -0.338 N 
HETATM    2  C   UNL     1      41.704 -16.458   2.147  1.00  0.00     0.321 C 
HETATM    3  N   UNL     1      43.000 -16.615   2.578  1.00  0.00    -0.306 N 
HETATM    4  O   UNL     1      40.846 -17.326   2.099  1.00  0.00    -0.247 OA
HETATM    5  H   UNL     1      42.109 -14.512   2.165  1.00  0.00     0.164 HD
HETATM    6  H   UNL     1      43.610 -15.807   2.580  1.00  0.00     0.171 HD
ENDROOT
BRANCH   1   7
HETATM    7  C   UNL     1      40.127 -14.625   1.512  1.00  0.00     0.091 C 
HETATM    8  C   UNL     1      39.903 -13.628   0.366  1.00  0.00     0.063 C 
HETATM    9  C   UNL     1      40.493 -12.233   0.580  1.00  0.00     0.121 C 
HETATM   10  N   UNL     1      40.050 -11.712   1.934  1.00  0.00    -0.059 N 
HETATM   11  C   UNL     1      42.017 -12.152   0.454  1.00  0.00     0.046 C 
HETATM   12  C   UNL     1      39.892 -11.268  -0.464  1.00  0.00     0.046 C 
HETATM   13  C   UNL     1      40.105 -12.609   3.152  1.00  0.00     0.121 C 
HETATM   14  H   UNL     1      39.074 -11.401   1.826  1.00  0.00     0.279 HD
HETATM   15  H   UNL     1      40.569 -10.844   2.133  1.00  0.00     0.279 HD
HETATM   16  C   UNL     1      41.518 -12.608   3.744  1.00  0.00     0.046 C 
HETATM   17  C   UNL     1      39.168 -11.962   4.194  1.00  0.00     0.046 C 
HETATM   18  C   UNL     1      39.577 -14.016   2.810  1.00  0.00     0.063 C 
ENDBRANCH   1   7
BRANCH   3  19
HETATM   19  C   UNL     1      43.596 -17.782   3.114  1.00  0.00     0.077 A 
HETATM   20  C   UNL     1      43.865 -17.773   4.490  1.00  0.00     0.143 A 
HETATM   21  F   UNL     1      43.559 -16.682   5.211  1.00  0.00    -0.204 F 
HETATM   22  C   UNL     1      44.427 -18.870   5.130  1.00  0.00     0.047 A 
HETATM   23  C   UNL     1      44.743 -20.001   4.382  1.00  0.00     0.040 A 
HETATM   24  C   UNL     1      44.500 -20.031   3.004  1.00  0.00     0.070 A 
HETATM   25  C   UNL     1      43.920 -18.923   2.374  1.00  0.00     0.069 A 
BRANCH  24  26
HETATM   26  O   UNL     1      44.870 -21.198   2.393  1.00  0.00    -0.356 OA
HETATM   27  C   UNL     1      43.870 -21.891   1.656  1.00  0.00     0.210 C 
ENDBRANCH  24  26
ENDBRANCH   3  19
TORSDOF 3
ENDMDL
