MODEL 1
REMARK VINA RESULT:      -8.6      0.000      0.000
REMARK  6 active torsions:
REMARK  status: ('A' for Active; 'I' for Inactive)
REMARK    1  A    between atoms: C_2  and  C_3 
REMARK    2  A    between atoms: C_3  and  N_4 
REMARK       I    between atoms: N_4  and  C_5 
REMARK    3  A    between atoms: C_5  and  C_6 
REMARK    4  A    between atoms: C_11  and  C_12 
REMARK    5  A    between atoms: C_15  and  O_16 
REMARK    6  A    between atoms: C_21  and  C_22 
ROOT
HETATM    1  C   UNL     1      41.416 -15.785   0.841  1.00  0.00     0.170 A 
HETATM    2  N   UNL     1      42.430 -16.623   1.172  1.00  0.00    -0.163 NA
HETATM    3  N   UNL     1      42.119 -17.034   2.414  1.00  0.00    -0.238 N 
HETATM    4  C   UNL     1      41.011 -16.419   2.934  1.00  0.00     0.145 A 
HETATM    5  N   UNL     1      40.649 -16.604   4.232  1.00  0.00    -0.365 N 
HETATM    6  C   UNL     1      41.603 -17.171   5.185  1.00  0.00     0.118 C 
HETATM    7  C   UNL     1      42.335 -18.334   4.495  1.00  0.00     0.066 C 
HETATM    8  C   UNL     1      43.012 -17.885   3.184  1.00  0.00     0.221 C 
HETATM    9  C   UNL     1      40.499 -15.645   1.918  1.00  0.00     0.115 A 
HETATM   10 CL   UNL     1      39.115 -14.665   1.992  1.00  0.00    -0.077 Cl
HETATM   11  H   UNL     1      39.950 -15.985   4.643  1.00  0.00     0.162 HD
ENDROOT
BRANCH   6  12
HETATM   12  C   UNL     1      42.550 -16.141   5.790  1.00  0.00    -0.035 A 
HETATM   13  C   UNL     1      42.363 -14.755   5.670  1.00  0.00     0.012 A 
HETATM   14  C   UNL     1      43.273 -13.855   6.232  1.00  0.00     0.037 A 
HETATM   15  C   UNL     1      44.387 -14.308   6.936  1.00  0.00     0.068 A 
HETATM   16  C   UNL     1      44.581 -15.679   7.080  1.00  0.00     0.037 A 
HETATM   17  C   UNL     1      43.670 -16.583   6.518  1.00  0.00     0.012 A 
BRANCH  15  18
HETATM   18  O   UNL     1      45.193 -13.320   7.427  1.00  0.00    -0.356 OA
HETATM   19  C   UNL     1      44.746 -12.645   8.596  1.00  0.00     0.210 C 
ENDBRANCH  15  18
ENDBRANCH   6  12
BRANCH   8  20
HETATM   20  C   UNL     1      43.441 -19.102   2.395  1.00  0.00     0.409 C 
HETATM   21  F   UNL     1      44.434 -18.848   1.516  1.00  0.00    -0.169 F 
HETATM   22  F   UNL     1      43.921 -20.051   3.242  1.00  0.00    -0.169 F 
HETATM   23  F   UNL     1      42.416 -19.668   1.722  1.00  0.00    -0.169 F 
ENDBRANCH   8  20
BRANCH   1  24
HETATM   24  C   UNL     1      41.396 -15.118  -0.470  1.00  0.00     0.273 C 
HETATM   25  N   UNL     1      41.016 -15.962  -1.494  1.00  0.00    -0.356 N 
HETATM   26  H   UNL     1      40.851 -16.929  -1.222  1.00  0.00     0.162 HD
HETATM   27  O   UNL     1      41.709 -13.946  -0.646  1.00  0.00    -0.266 OA
BRANCH  25  28
HETATM   28  C   UNL     1      41.089 -15.594  -2.887  1.00  0.00     0.122 C 
BRANCH  28  29
HETATM   29  C   UNL     1      39.747 -15.107  -3.433  1.00  0.00     0.015 C 
HETATM   30  C   UNL     1      38.993 -16.191  -4.190  1.00  0.00     0.006 C 
ENDBRANCH  28  29
ENDBRANCH  25  28
ENDBRANCH   1  24
TORSDOF 6
ENDMDL
MODEL 2
REMARK VINA RESULT:      -8.1      1.345      1.784
REMARK  6 active torsions:
REMARK  status: ('A' for Active; 'I' for Inactive)
REMARK    1  A    between atoms: C_2  and  C_3 
REMARK    2  A    between atoms: C_3  and  N_4 
REMARK       I    between atoms: N_4  and  C_5 
REMARK    3  A    between atoms: C_5  and  C_6 
REMARK    4  A    between atoms: C_11  and  C_12 
REMARK    5  A    between atoms: C_15  and  O_16 
REMARK    6  A    between atoms: C_21  and  C_22 
ROOT
HETATM    1  C   UNL     1      41.342 -15.910   0.676  1.00  0.00     0.170 A 
HETATM    2  N   UNL     1      42.402 -16.708   0.958  1.00  0.00    -0.163 NA
HETATM    3  N   UNL     1      42.142 -17.167   2.194  1.00  0.00    -0.238 N 
HETATM    4  C   UNL     1      41.020 -16.619   2.759  1.00  0.00     0.145 A 
HETATM    5  N   UNL     1      40.701 -16.858   4.059  1.00  0.00    -0.365 N 
HETATM    6  C   UNL     1      41.704 -17.405   4.972  1.00  0.00     0.118 C 
HETATM    7  C   UNL     1      42.471 -18.513   4.231  1.00  0.00     0.066 C 
HETATM    8  C   UNL     1      43.092 -17.996   2.918  1.00  0.00     0.221 C 
HETATM    9  C   UNL     1      40.447 -15.842   1.778  1.00  0.00     0.115 A 
HETATM   10 CL   UNL     1      39.022 -14.931   1.914  1.00  0.00    -0.077 Cl
HETATM   11  H   UNL     1      39.984 -16.284   4.505  1.00  0.00     0.162 HD
ENDROOT
BRANCH   6  12
HETATM   12  C   UNL     1      42.617 -16.349   5.584  1.00  0.00    -0.035 A 
HETATM   13  C   UNL     1      42.416 -14.969   5.427  1.00  0.00     0.012 A 
HETATM   14  C   UNL     1      43.295 -14.043   5.997  1.00  0.00     0.037 A 
HETATM   15  C   UNL     1      44.392 -14.465   6.745  1.00  0.00     0.068 A 
HETATM   16  C   UNL     1      44.600 -15.830   6.926  1.00  0.00     0.037 A 
HETATM   17  C   UNL     1      43.719 -16.759   6.356  1.00  0.00     0.012 A 
BRANCH  15  18
HETATM   18  O   UNL     1      45.169 -13.456   7.240  1.00  0.00    -0.356 OA
HETATM   19  C   UNL     1      44.732 -12.835   8.441  1.00  0.00     0.210 C 
ENDBRANCH  15  18
ENDBRANCH   6  12
BRANCH   8  20
HETATM   20  C   UNL     1      43.557 -19.169   2.084  1.00  0.00     0.409 C 
HETATM   21  F   UNL     1      44.032 -18.811   0.872  1.00  0.00    -0.169 F 
HETATM   22  F   UNL     1      44.579 -19.805   2.717  1.00  0.00    -0.169 F 
HETATM   23  F   UNL     1      42.585 -20.090   1.901  1.00  0.00    -0.169 F 
ENDBRANCH   8  20
BRANCH   1  24
HETATM   24  C   UNL     1      41.257 -15.209  -0.615  1.00  0.00     0.273 C 
HETATM   25  N   UNL     1      41.480 -13.851  -0.502  1.00  0.00    -0.356 N 
HETATM   26  H   UNL     1      41.622 -13.512   0.447  1.00  0.00     0.162 HD
HETATM   27  O   UNL     1      40.988 -15.760  -1.677  1.00  0.00    -0.266 OA
BRANCH  25  28
HETATM   28  C   UNL     1      41.278 -12.926  -1.590  1.00  0.00     0.122 C 
BRANCH  28  29
HETATM   29  C   UNL     1      42.594 -12.411  -2.170  1.00  0.00     0.015 C 
HETATM   30  C   UNL     1      43.132 -11.199  -1.422  1.00  0.00     0.006 C 
ENDBRANCH  28  29
ENDBRANCH  25  28
ENDBRANCH   1  24
TORSDOF 6
ENDMDL
MODEL 3
REMARK VINA RESULT:      -7.6      4.269      7.877
REMARK  6 active torsions:
REMARK  status: ('A' for Active; 'I' for Inactive)
REMARK    1  A    between atoms: C_2  and  C_3 
REMARK    2  A    between atoms: C_3  and  N_4 
REMARK       I    between atoms: N_4  and  C_5 
REMARK    3  A    between atoms: C_5  and  C_6 
REMARK    4  A    between atoms: C_11  and  C_12 
REMARK    5  A    between atoms: C_15  and  O_16 
REMARK    6  A    between atoms: C_21  and  C_22 
ROOT
HETATM    1  C   UNL     1      44.239 -14.309   6.369  1.00  0.00     0.170 A 
HETATM    2  N   UNL     1      43.894 -14.069   5.079  1.00  0.00    -0.163 NA
HETATM    3  N   UNL     1      42.905 -14.947   4.840  1.00  0.00    -0.238 N 
HETATM    4  C   UNL     1      42.671 -15.809   5.879  1.00  0.00     0.145 A 
HETATM    5  N   UNL     1      41.813 -16.855   5.744  1.00  0.00    -0.365 N 
HETATM    6  C   UNL     1      41.391 -17.290   4.412  1.00  0.00     0.118 C 
HETATM    7  C   UNL     1      41.096 -16.037   3.571  1.00  0.00     0.066 C 
HETATM    8  C   UNL     1      42.309 -15.086   3.520  1.00  0.00     0.221 C 
HETATM    9  C   UNL     1      43.482 -15.386   6.907  1.00  0.00     0.115 A 
HETATM   10 CL   UNL     1      43.601 -16.079   8.452  1.00  0.00    -0.077 Cl
HETATM   11  H   UNL     1      41.812 -17.588   6.454  1.00  0.00     0.162 HD
ENDROOT
BRANCH   6  12
HETATM   12  C   UNL     1      42.369 -18.247   3.741  1.00  0.00    -0.035 A 
HETATM   13  C   UNL     1      42.354 -18.528   2.366  1.00  0.00     0.012 A 
HETATM   14  C   UNL     1      43.266 -19.427   1.805  1.00  0.00     0.037 A 
HETATM   15  C   UNL     1      44.223 -20.063   2.595  1.00  0.00     0.068 A 
HETATM   16  C   UNL     1      44.264 -19.784   3.958  1.00  0.00     0.037 A 
HETATM   17  C   UNL     1      43.351 -18.883   4.522  1.00  0.00     0.012 A 
BRANCH  15  18
HETATM   18  O   UNL     1      45.046 -20.917   1.918  1.00  0.00    -0.356 OA
HETATM   19  C   UNL     1      44.564 -22.236   1.696  1.00  0.00     0.210 C 
ENDBRANCH  15  18
ENDBRANCH   6  12
BRANCH   8  20
HETATM   20  C   UNL     1      41.879 -13.748   2.959  1.00  0.00     0.409 C 
HETATM   21  F   UNL     1      40.935 -13.849   1.999  1.00  0.00    -0.169 F 
HETATM   22  F   UNL     1      41.333 -12.991   3.948  1.00  0.00    -0.169 F 
HETATM   23  F   UNL     1      42.916 -13.041   2.459  1.00  0.00    -0.169 F 
ENDBRANCH   8  20
BRANCH   1  24
HETATM   24  C   UNL     1      45.311 -13.534   7.013  1.00  0.00     0.273 C 
HETATM   25  N   UNL     1      44.947 -13.044   8.251  1.00  0.00    -0.356 N 
HETATM   26  H   UNL     1      43.987 -13.236   8.530  1.00  0.00     0.162 HD
HETATM   27  O   UNL     1      46.403 -13.318   6.499  1.00  0.00    -0.266 OA
BRANCH  25  28
HETATM   28  C   UNL     1      45.755 -12.111   8.998  1.00  0.00     0.122 C 
BRANCH  28  29
HETATM   29  C   UNL     1      45.308 -11.987  10.454  1.00  0.00     0.015 C 
HETATM   30  C   UNL     1      44.655 -10.646  10.756  1.00  0.00     0.006 C 
ENDBRANCH  28  29
ENDBRANCH  25  28
ENDBRANCH   1  24
TORSDOF 6
ENDMDL
MODEL 4
REMARK VINA RESULT:      -7.2      3.671      5.076
REMARK  6 active torsions:
REMARK  status: ('A' for Active; 'I' for Inactive)
REMARK    1  A    between atoms: C_2  and  C_3 
REMARK    2  A    between atoms: C_3  and  N_4 
REMARK       I    between atoms: N_4  and  C_5 
REMARK    3  A    between atoms: C_5  and  C_6 
REMARK    4  A    between atoms: C_11  and  C_12 
REMARK    5  A    between atoms: C_15  and  O_16 
REMARK    6  A    between atoms: C_21  and  C_22 
ROOT
HETATM    1  C   UNL     1      39.815 -14.276   1.439  1.00  0.00     0.170 A 
HETATM    2  N   UNL     1      39.677 -14.857   2.657  1.00  0.00    -0.163 NA
HETATM    3  N   UNL     1      40.938 -14.965   3.110  1.00  0.00    -0.238 N 
HETATM    4  C   UNL     1      41.885 -14.578   2.198  1.00  0.00     0.145 A 
HETATM    5  N   UNL     1      43.210 -14.768   2.437  1.00  0.00    -0.365 N 
HETATM    6  C   UNL     1      43.640 -15.687   3.491  1.00  0.00     0.118 C 
HETATM    7  C   UNL     1      42.738 -15.464   4.716  1.00  0.00     0.066 C 
HETATM    8  C   UNL     1      41.246 -15.633   4.364  1.00  0.00     0.221 C 
HETATM    9  C   UNL     1      41.187 -14.073   1.124  1.00  0.00     0.115 A 
HETATM   10 CL   UNL     1      41.849 -13.435  -0.302  1.00  0.00    -0.077 Cl
HETATM   11  H   UNL     1      43.871 -14.660   1.668  1.00  0.00     0.162 HD
ENDROOT
BRANCH   6  12
HETATM   12  C   UNL     1      43.701 -17.144   3.048  1.00  0.00    -0.035 A 
HETATM   13  C   UNL     1      43.572 -17.550   1.711  1.00  0.00     0.012 A 
HETATM   14  C   UNL     1      43.620 -18.903   1.361  1.00  0.00     0.037 A 
HETATM   15  C   UNL     1      43.807 -19.887   2.331  1.00  0.00     0.068 A 
HETATM   16  C   UNL     1      43.954 -19.502   3.661  1.00  0.00     0.037 A 
HETATM   17  C   UNL     1      43.907 -18.146   4.013  1.00  0.00     0.012 A 
BRANCH  15  18
HETATM   18  O   UNL     1      43.830 -21.165   1.850  1.00  0.00    -0.356 OA
HETATM   19  C   UNL     1      44.438 -22.152   2.673  1.00  0.00     0.210 C 
ENDBRANCH  15  18
ENDBRANCH   6  12
BRANCH   8  20
HETATM   20  C   UNL     1      40.397 -15.106   5.500  1.00  0.00     0.409 C 
HETATM   21  F   UNL     1      39.969 -16.070   6.342  1.00  0.00    -0.169 F 
HETATM   22  F   UNL     1      41.127 -14.242   6.255  1.00  0.00    -0.169 F 
HETATM   23  F   UNL     1      39.318 -14.419   5.062  1.00  0.00    -0.169 F 
ENDBRANCH   8  20
BRANCH   1  24
HETATM   24  C   UNL     1      38.635 -13.987   0.610  1.00  0.00     0.273 C 
HETATM   25  N   UNL     1      38.822 -14.311  -0.718  1.00  0.00    -0.356 N 
HETATM   26  H   UNL     1      39.750 -14.655  -0.955  1.00  0.00     0.162 HD
HETATM   27  O   UNL     1      37.603 -13.484   1.042  1.00  0.00    -0.266 OA
BRANCH  25  28
HETATM   28  C   UNL     1      37.882 -13.960  -1.755  1.00  0.00     0.122 C 
BRANCH  28  29
HETATM   29  C   UNL     1      38.470 -14.122  -3.155  1.00  0.00     0.015 C 
HETATM   30  C   UNL     1      37.912 -15.333  -3.890  1.00  0.00     0.006 C 
ENDBRANCH  28  29
ENDBRANCH  25  28
ENDBRANCH   1  24
TORSDOF 6
ENDMDL
MODEL 5
REMARK VINA RESULT:      -7.0      3.987      6.803
REMARK  6 active torsions:
REMARK  status: ('A' for Active; 'I' for Inactive)
REMARK    1  A    between atoms: C_2  and  C_3 
REMARK    2  A    between atoms: C_3  and  N_4 
REMARK       I    between atoms: N_4  and  C_5 
REMARK    3  A    between atoms: C_5  and  C_6 
REMARK    4  A    between atoms: C_11  and  C_12 
REMARK    5  A    between atoms: C_15  and  O_16 
REMARK    6  A    between atoms: C_21  and  C_22 
ROOT
HETATM    1  C   UNL     1      41.579 -16.953   3.327  1.00  0.00     0.170 A 
HETATM    2  N   UNL     1      41.466 -15.783   4.004  1.00  0.00    -0.163 NA
HETATM    3  N   UNL     1      40.615 -15.058   3.259  1.00  0.00    -0.238 N 
HETATM    4  C   UNL     1      40.259 -15.666   2.083  1.00  0.00     0.145 A 
HETATM    5  N   UNL     1      39.529 -15.006   1.145  1.00  0.00    -0.365 N 
HETATM    6  C   UNL     1      39.403 -13.550   1.204  1.00  0.00     0.118 C 
HETATM    7  C   UNL     1      39.173 -13.149   2.670  1.00  0.00     0.066 C 
HETATM    8  C   UNL     1      40.293 -13.679   3.589  1.00  0.00     0.221 C 
HETATM    9  C   UNL     1      40.823 -16.920   2.124  1.00  0.00     0.115 A 
HETATM   10 CL   UNL     1      40.703 -18.122   0.931  1.00  0.00    -0.077 Cl
HETATM   11  H   UNL     1      39.453 -15.404   0.208  1.00  0.00     0.162 HD
ENDROOT
BRANCH   6  12
HETATM   12  C   UNL     1      40.565 -12.807   0.554  1.00  0.00    -0.035 A 
HETATM   13  C   UNL     1      41.044 -11.570   1.012  1.00  0.00     0.012 A 
HETATM   14  C   UNL     1      42.104 -10.925   0.368  1.00  0.00     0.037 A 
HETATM   15  C   UNL     1      42.722 -11.497  -0.742  1.00  0.00     0.068 A 
HETATM   16  C   UNL     1      42.272 -12.732  -1.201  1.00  0.00     0.037 A 
HETATM   17  C   UNL     1      41.211 -13.381  -0.556  1.00  0.00     0.012 A 
BRANCH  15  18
HETATM   18  O   UNL     1      43.740 -10.757  -1.273  1.00  0.00    -0.356 OA
HETATM   19  C   UNL     1      43.664  -9.347  -1.113  1.00  0.00     0.210 C 
ENDBRANCH  15  18
ENDBRANCH   6  12
BRANCH   8  20
HETATM   20  C   UNL     1      39.869 -13.536   5.034  1.00  0.00     0.409 C 
HETATM   21  F   UNL     1      40.893 -13.253   5.867  1.00  0.00    -0.169 F 
HETATM   22  F   UNL     1      38.990 -12.506   5.154  1.00  0.00    -0.169 F 
HETATM   23  F   UNL     1      39.239 -14.637   5.499  1.00  0.00    -0.169 F 
ENDBRANCH   8  20
BRANCH   1  24
HETATM   24  C   UNL     1      42.443 -18.031   3.835  1.00  0.00     0.273 C 
HETATM   25  N   UNL     1      43.365 -18.461   2.903  1.00  0.00    -0.356 N 
HETATM   26  H   UNL     1      43.297 -18.020   1.988  1.00  0.00     0.162 HD
HETATM   27  O   UNL     1      42.341 -18.519   4.955  1.00  0.00    -0.266 OA
BRANCH  25  28
HETATM   28  C   UNL     1      44.202 -19.620   3.098  1.00  0.00     0.122 C 
BRANCH  28  29
HETATM   29  C   UNL     1      43.923 -20.720   2.076  1.00  0.00     0.015 C 
HETATM   30  C   UNL     1      44.338 -22.099   2.569  1.00  0.00     0.006 C 
ENDBRANCH  28  29
ENDBRANCH  25  28
ENDBRANCH   1  24
TORSDOF 6
ENDMDL
MODEL 6
REMARK VINA RESULT:      -6.8      3.598      6.989
REMARK  6 active torsions:
REMARK  status: ('A' for Active; 'I' for Inactive)
REMARK    1  A    between atoms: C_2  and  C_3 
REMARK    2  A    between atoms: C_3  and  N_4 
REMARK       I    between atoms: N_4  and  C_5 
REMARK    3  A    between atoms: C_5  and  C_6 
REMARK    4  A    between atoms: C_11  and  C_12 
REMARK    5  A    between atoms: C_15  and  O_16 
REMARK    6  A    between atoms: C_21  and  C_22 
ROOT
HETATM    1  C   UNL     1      42.928 -17.514   3.966  1.00  0.00     0.170 A 
HETATM    2  N   UNL     1      42.467 -16.368   4.528  1.00  0.00    -0.163 NA
HETATM    3  N   UNL     1      41.440 -16.011   3.739  1.00  0.00    -0.238 N 
HETATM    4  C   UNL     1      41.287 -16.813   2.639  1.00  0.00     0.145 A 
HETATM    5  N   UNL     1      40.396 -16.500   1.660  1.00  0.00    -0.365 N 
HETATM    6  C   UNL     1      39.839 -15.151   1.579  1.00  0.00     0.118 C 
HETATM    7  C   UNL     1      39.494 -14.690   3.005  1.00  0.00     0.066 C 
HETATM    8  C   UNL     1      40.717 -14.765   3.941  1.00  0.00     0.221 C 
HETATM    9  C   UNL     1      42.201 -17.831   2.786  1.00  0.00     0.115 A 
HETATM   10 CL   UNL     1      42.452 -19.128   1.720  1.00  0.00    -0.077 Cl
HETATM   11  H   UNL     1      40.447 -16.996   0.769  1.00  0.00     0.162 HD
ENDROOT
BRANCH   6  12
HETATM   12  C   UNL     1      40.726 -14.165   0.829  1.00  0.00    -0.035 A 
HETATM   13  C   UNL     1      41.337 -14.456  -0.401  1.00  0.00     0.012 A 
HETATM   14  C   UNL     1      42.155 -13.518  -1.038  1.00  0.00     0.037 A 
HETATM   15  C   UNL     1      42.381 -12.264  -0.474  1.00  0.00     0.068 A 
HETATM   16  C   UNL     1      41.770 -11.951   0.737  1.00  0.00     0.037 A 
HETATM   17  C   UNL     1      40.949 -12.888   1.377  1.00  0.00     0.012 A 
BRANCH  15  18
HETATM   18  O   UNL     1      43.203 -11.450  -1.202  1.00  0.00    -0.356 OA
HETATM   19  C   UNL     1      43.326 -10.103  -0.766  1.00  0.00     0.210 C 
ENDBRANCH  15  18
ENDBRANCH   6  12
BRANCH   8  20
HETATM   20  C   UNL     1      40.266 -14.609   5.376  1.00  0.00     0.409 C 
HETATM   21  F   UNL     1      41.173 -13.989   6.160  1.00  0.00    -0.169 F 
HETATM   22  F   UNL     1      39.142 -13.844   5.422  1.00  0.00    -0.169 F 
HETATM   23  F   UNL     1      39.951 -15.791   5.950  1.00  0.00    -0.169 F 
ENDBRANCH   8  20
BRANCH   1  24
HETATM   24  C   UNL     1      44.074 -18.226   4.553  1.00  0.00     0.273 C 
HETATM   25  N   UNL     1      44.282 -19.466   3.984  1.00  0.00    -0.356 N 
HETATM   26  H   UNL     1      43.600 -19.741   3.281  1.00  0.00     0.162 HD
HETATM   27  O   UNL     1      44.757 -17.784   5.471  1.00  0.00    -0.266 OA
BRANCH  25  28
HETATM   28  C   UNL     1      45.228 -20.423   4.504  1.00  0.00     0.122 C 
BRANCH  28  29
HETATM   29  C   UNL     1      44.545 -21.600   5.198  1.00  0.00     0.015 C 
HETATM   30  C   UNL     1      43.987 -21.233   6.566  1.00  0.00     0.006 C 
ENDBRANCH  28  29
ENDBRANCH  25  28
ENDBRANCH   1  24
TORSDOF 6
ENDMDL
MODEL 7
REMARK VINA RESULT:      -6.7      3.937      6.889
REMARK  6 active torsions:
REMARK  status: ('A' for Active; 'I' for Inactive)
REMARK    1  A    between atoms: C_2  and  C_3 
REMARK    2  A    between atoms: C_3  and  N_4 
REMARK       I    between atoms: N_4  and  C_5 
REMARK    3  A    between atoms: C_5  and  C_6 
REMARK    4  A    between atoms: C_11  and  C_12 
REMARK    5  A    between atoms: C_15  and  O_16 
REMARK    6  A    between atoms: C_21  and  C_22 
ROOT
HETATM    1  C   UNL     1      41.078 -12.399   4.310  1.00  0.00     0.170 A 
HETATM    2  N   UNL     1      41.698 -12.564   3.115  1.00  0.00    -0.163 NA
HETATM    3  N   UNL     1      41.096 -13.642   2.583  1.00  0.00    -0.238 N 
HETATM    4  C   UNL     1      40.194 -14.238   3.424  1.00  0.00     0.145 A 
HETATM    5  N   UNL     1      39.611 -15.424   3.103  1.00  0.00    -0.365 N 
HETATM    6  C   UNL     1      40.177 -16.255   2.040  1.00  0.00     0.118 C 
HETATM    7  C   UNL     1      40.570 -15.334   0.873  1.00  0.00     0.066 C 
HETATM    8  C   UNL     1      41.536 -14.220   1.324  1.00  0.00     0.221 C 
HETATM    9  C   UNL     1      40.117 -13.424   4.531  1.00  0.00     0.115 A 
HETATM   10 CL   UNL     1      39.143 -13.666   5.900  1.00  0.00    -0.077 Cl
HETATM   11  H   UNL     1      39.107 -15.939   3.826  1.00  0.00     0.162 HD
ENDROOT
BRANCH   6  12
HETATM   12  C   UNL     1      41.318 -17.153   2.506  1.00  0.00    -0.035 A 
HETATM   13  C   UNL     1      41.604 -17.399   3.857  1.00  0.00     0.012 A 
HETATM   14  C   UNL     1      42.674 -18.220   4.228  1.00  0.00     0.037 A 
HETATM   15  C   UNL     1      43.480 -18.824   3.266  1.00  0.00     0.068 A 
HETATM   16  C   UNL     1      43.201 -18.605   1.920  1.00  0.00     0.037 A 
HETATM   17  C   UNL     1      42.130 -17.783   1.546  1.00  0.00     0.012 A 
BRANCH  15  18
HETATM   18  O   UNL     1      44.489 -19.596   3.769  1.00  0.00    -0.356 OA
HETATM   19  C   UNL     1      44.586 -19.689   5.184  1.00  0.00     0.210 C 
ENDBRANCH  15  18
ENDBRANCH   6  12
BRANCH   8  20
HETATM   20  C   UNL     1      41.643 -13.174   0.236  1.00  0.00     0.409 C 
HETATM   21  F   UNL     1      42.631 -12.280   0.448  1.00  0.00    -0.169 F 
HETATM   22  F   UNL     1      41.924 -13.775  -0.951  1.00  0.00    -0.169 F 
HETATM   23  F   UNL     1      40.489 -12.493   0.060  1.00  0.00    -0.169 F 
ENDBRANCH   8  20
BRANCH   1  24
HETATM   24  C   UNL     1      41.466 -11.301   5.209  1.00  0.00     0.273 C 
HETATM   25  N   UNL     1      41.764 -11.733   6.485  1.00  0.00    -0.356 N 
HETATM   26  H   UNL     1      41.632 -12.729   6.648  1.00  0.00     0.162 HD
HETATM   27  O   UNL     1      41.496 -10.121   4.874  1.00  0.00    -0.266 OA
BRANCH  25  28
HETATM   28  C   UNL     1      41.998 -10.833   7.588  1.00  0.00     0.122 C 
BRANCH  28  29
HETATM   29  C   UNL     1      40.747 -10.610   8.435  1.00  0.00     0.015 C 
HETATM   30  C   UNL     1      41.058 -10.481   9.920  1.00  0.00     0.006 C 
ENDBRANCH  28  29
ENDBRANCH  25  28
ENDBRANCH   1  24
TORSDOF 6
ENDMDL
MODEL 8
REMARK VINA RESULT:      -6.7      3.849      6.704
REMARK  6 active torsions:
REMARK  status: ('A' for Active; 'I' for Inactive)
REMARK    1  A    between atoms: C_2  and  C_3 
REMARK    2  A    between atoms: C_3  and  N_4 
REMARK       I    between atoms: N_4  and  C_5 
REMARK    3  A    between atoms: C_5  and  C_6 
REMARK    4  A    between atoms: C_11  and  C_12 
REMARK    5  A    between atoms: C_15  and  O_16 
REMARK    6  A    between atoms: C_21  and  C_22 
ROOT
HETATM    1  C   UNL     1      43.262 -17.476   5.707  1.00  0.00     0.170 A 
HETATM    2  N   UNL     1      44.006 -16.353   5.863  1.00  0.00    -0.163 NA
HETATM    3  N   UNL     1      43.099 -15.361   5.870  1.00  0.00    -0.238 N 
HETATM    4  C   UNL     1      41.820 -15.784   5.621  1.00  0.00     0.145 A 
HETATM    5  N   UNL     1      40.808 -14.894   5.441  1.00  0.00    -0.365 N 
HETATM    6  C   UNL     1      41.108 -13.489   5.164  1.00  0.00     0.118 C 
HETATM    7  C   UNL     1      42.259 -13.056   6.087  1.00  0.00     0.066 C 
HETATM    8  C   UNL     1      43.495 -13.963   5.923  1.00  0.00     0.221 C 
HETATM    9  C   UNL     1      41.883 -17.158   5.567  1.00  0.00     0.115 A 
HETATM   10 CL   UNL     1      40.587 -18.220   5.295  1.00  0.00    -0.077 Cl
HETATM   11  H   UNL     1      39.921 -15.225   5.062  1.00  0.00     0.162 HD
ENDROOT
BRANCH   6  12
HETATM   12  C   UNL     1      41.377 -13.198   3.693  1.00  0.00    -0.035 A 
HETATM   13  C   UNL     1      41.761 -14.182   2.769  1.00  0.00     0.012 A 
HETATM   14  C   UNL     1      42.011 -13.857   1.432  1.00  0.00     0.037 A 
HETATM   15  C   UNL     1      41.877 -12.546   0.977  1.00  0.00     0.068 A 
HETATM   16  C   UNL     1      41.480 -11.559   1.876  1.00  0.00     0.037 A 
HETATM   17  C   UNL     1      41.229 -11.884   3.215  1.00  0.00     0.012 A 
BRANCH  15  18
HETATM   18  O   UNL     1      42.155 -12.371  -0.349  1.00  0.00    -0.356 OA
HETATM   19  C   UNL     1      41.868 -13.458  -1.218  1.00  0.00     0.210 C 
ENDBRANCH  15  18
ENDBRANCH   6  12
BRANCH   8  20
HETATM   20  C   UNL     1      44.467 -13.701   7.052  1.00  0.00     0.409 C 
HETATM   21  F   UNL     1      44.258 -12.523   7.677  1.00  0.00    -0.169 F 
HETATM   22  F   UNL     1      44.333 -14.662   8.004  1.00  0.00    -0.169 F 
HETATM   23  F   UNL     1      45.755 -13.739   6.644  1.00  0.00    -0.169 F 
ENDBRANCH   8  20
BRANCH   1  24
HETATM   24  C   UNL     1      43.905 -18.798   5.649  1.00  0.00     0.273 C 
HETATM   25  N   UNL     1      44.339 -19.126   4.381  1.00  0.00    -0.356 N 
HETATM   26  H   UNL     1      44.119 -18.447   3.656  1.00  0.00     0.162 HD
HETATM   27  O   UNL     1      44.020 -19.546   6.614  1.00  0.00    -0.266 OA
BRANCH  25  28
HETATM   28  C   UNL     1      44.840 -20.434   4.033  1.00  0.00     0.122 C 
BRANCH  28  29
HETATM   29  C   UNL     1      44.483 -20.834   2.602  1.00  0.00     0.015 C 
HETATM   30  C   UNL     1      43.366 -19.982   2.015  1.00  0.00     0.006 C 
ENDBRANCH  28  29
ENDBRANCH  25  28
ENDBRANCH   1  24
TORSDOF 6
ENDMDL
MODEL 9
REMARK VINA RESULT:      -6.6      3.835      7.106
REMARK  6 active torsions:
REMARK  status: ('A' for Active; 'I' for Inactive)
REMARK    1  A    between atoms: C_2  and  C_3 
REMARK    2  A    between atoms: C_3  and  N_4 
REMARK       I    between atoms: N_4  and  C_5 
REMARK    3  A    between atoms: C_5  and  C_6 
REMARK    4  A    between atoms: C_11  and  C_12 
REMARK    5  A    between atoms: C_15  and  O_16 
REMARK    6  A    between atoms: C_21  and  C_22 
ROOT
HETATM    1  C   UNL     1      41.814 -17.003   3.303  1.00  0.00     0.170 A 
HETATM    2  N   UNL     1      41.672 -15.836   3.979  1.00  0.00    -0.163 NA
HETATM    3  N   UNL     1      40.783 -15.143   3.247  1.00  0.00    -0.238 N 
HETATM    4  C   UNL     1      40.426 -15.767   2.081  1.00  0.00     0.145 A 
HETATM    5  N   UNL     1      39.657 -15.136   1.154  1.00  0.00    -0.365 N 
HETATM    6  C   UNL     1      39.481 -13.685   1.211  1.00  0.00     0.118 C 
HETATM    7  C   UNL     1      39.264 -13.288   2.681  1.00  0.00     0.066 C 
HETATM    8  C   UNL     1      40.419 -13.775   3.580  1.00  0.00     0.221 C 
HETATM    9  C   UNL     1      41.035 -17.001   2.114  1.00  0.00     0.115 A 
HETATM   10 CL   UNL     1      40.935 -18.210   0.927  1.00  0.00    -0.077 Cl
HETATM   11  H   UNL     1      39.577 -15.540   0.220  1.00  0.00     0.162 HD
ENDROOT
BRANCH   6  12
HETATM   12  C   UNL     1      40.604 -12.905   0.538  1.00  0.00    -0.035 A 
HETATM   13  C   UNL     1      41.024 -11.635   0.963  1.00  0.00     0.012 A 
HETATM   14  C   UNL     1      42.051 -10.957   0.298  1.00  0.00     0.037 A 
HETATM   15  C   UNL     1      42.692 -11.527  -0.800  1.00  0.00     0.068 A 
HETATM   16  C   UNL     1      42.300 -12.793  -1.226  1.00  0.00     0.037 A 
HETATM   17  C   UNL     1      41.272 -13.475  -0.561  1.00  0.00     0.012 A 
BRANCH  15  18
HETATM   18  O   UNL     1      43.671 -10.753  -1.355  1.00  0.00    -0.356 OA
HETATM   19  C   UNL     1      43.711  -9.386  -0.967  1.00  0.00     0.210 C 
ENDBRANCH  15  18
ENDBRANCH   6  12
BRANCH   8  20
HETATM   20  C   UNL     1      40.018 -13.642   5.032  1.00  0.00     0.409 C 
HETATM   21  F   UNL     1      41.055 -13.373   5.853  1.00  0.00    -0.169 F 
HETATM   22  F   UNL     1      39.146 -12.608   5.174  1.00  0.00    -0.169 F 
HETATM   23  F   UNL     1      39.388 -14.743   5.497  1.00  0.00    -0.169 F 
ENDBRANCH   8  20
BRANCH   1  24
HETATM   24  C   UNL     1      42.724 -18.048   3.798  1.00  0.00     0.273 C 
HETATM   25  N   UNL     1      42.635 -18.234   5.162  1.00  0.00    -0.356 N 
HETATM   26  H   UNL     1      41.999 -17.603   5.646  1.00  0.00     0.162 HD
HETATM   27  O   UNL     1      43.503 -18.670   3.083  1.00  0.00    -0.266 OA
BRANCH  25  28
HETATM   28  C   UNL     1      43.545 -19.072   5.905  1.00  0.00     0.122 C 
BRANCH  28  29
HETATM   29  C   UNL     1      44.802 -18.322   6.344  1.00  0.00     0.015 C 
HETATM   30  C   UNL     1      44.524 -16.870   6.706  1.00  0.00     0.006 C 
ENDBRANCH  28  29
ENDBRANCH  25  28
ENDBRANCH   1  24
TORSDOF 6
ENDMDL
MODEL 10
REMARK VINA RESULT:      -6.5      2.658      3.083
REMARK  6 active torsions:
REMARK  status: ('A' for Active; 'I' for Inactive)
REMARK    1  A    between atoms: C_2  and  C_3 
REMARK    2  A    between atoms: C_3  and  N_4 
REMARK       I    between atoms: N_4  and  C_5 
REMARK    3  A    between atoms: C_5  and  C_6 
REMARK    4  A    between atoms: C_11  and  C_12 
REMARK    5  A    between atoms: C_15  and  O_16 
REMARK    6  A    between atoms: C_21  and  C_22 
ROOT
HETATM    1  C   UNL     1      41.683 -12.576   0.546  1.00  0.00     0.170 A 
HETATM    2  N   UNL     1      42.150 -13.850   0.554  1.00  0.00    -0.163 NA
HETATM    3  N   UNL     1      41.481 -14.434   1.562  1.00  0.00    -0.238 N 
HETATM    4  C   UNL     1      40.686 -13.570   2.268  1.00  0.00     0.145 A 
HETATM    5  N   UNL     1      40.063 -13.964   3.411  1.00  0.00    -0.365 N 
HETATM    6  C   UNL     1      40.489 -15.184   4.096  1.00  0.00     0.118 C 
HETATM    7  C   UNL     1      40.740 -16.266   3.033  1.00  0.00     0.066 C 
HETATM    8  C   UNL     1      41.760 -15.801   1.974  1.00  0.00     0.221 C 
HETATM    9  C   UNL     1      40.751 -12.369   1.600  1.00  0.00     0.115 A 
HETATM   10 CL   UNL     1      39.951 -10.933   2.021  1.00  0.00    -0.077 Cl
HETATM   11  H   UNL     1      39.648 -13.255   4.017  1.00  0.00     0.162 HD
ENDROOT
BRANCH   6  12
HETATM   12  C   UNL     1      41.674 -14.978   5.034  1.00  0.00    -0.035 A 
HETATM   13  C   UNL     1      42.257 -13.725   5.276  1.00  0.00     0.012 A 
HETATM   14  C   UNL     1      43.354 -13.596   6.135  1.00  0.00     0.037 A 
HETATM   15  C   UNL     1      43.892 -14.707   6.781  1.00  0.00     0.068 A 
HETATM   16  C   UNL     1      43.315 -15.956   6.566  1.00  0.00     0.037 A 
HETATM   17  C   UNL     1      42.217 -16.087   5.707  1.00  0.00     0.012 A 
BRANCH  15  18
HETATM   18  O   UNL     1      44.962 -14.436   7.587  1.00  0.00    -0.356 OA
HETATM   19  C   UNL     1      45.058 -13.118   8.110  1.00  0.00     0.210 C 
ENDBRANCH  15  18
ENDBRANCH   6  12
BRANCH   8  20
HETATM   20  C   UNL     1      41.738 -16.753   0.799  1.00  0.00     0.409 C 
HETATM   21  F   UNL     1      41.175 -16.226  -0.308  1.00  0.00    -0.169 F 
HETATM   22  F   UNL     1      43.011 -17.085   0.454  1.00  0.00    -0.169 F 
HETATM   23  F   UNL     1      41.102 -17.911   1.085  1.00  0.00    -0.169 F 
ENDBRANCH   8  20
BRANCH   1  24
HETATM   24  C   UNL     1      42.184 -11.602  -0.436  1.00  0.00     0.273 C 
HETATM   25  N   UNL     1      41.268 -11.324  -1.430  1.00  0.00    -0.356 N 
HETATM   26  H   UNL     1      40.401 -11.856  -1.384  1.00  0.00     0.162 HD
HETATM   27  O   UNL     1      43.306 -11.107  -0.397  1.00  0.00    -0.266 OA
BRANCH  25  28
HETATM   28  C   UNL     1      41.586 -10.540  -2.598  1.00  0.00     0.122 C 
BRANCH  28  29
HETATM   29  C   UNL     1      42.153 -11.388  -3.735  1.00  0.00     0.015 C 
HETATM   30  C   UNL     1      41.523 -12.773  -3.805  1.00  0.00     0.006 C 
ENDBRANCH  28  29
ENDBRANCH  25  28
ENDBRANCH   1  24
TORSDOF 6
ENDMDL
