MODEL 1
REMARK VINA RESULT:      -6.3      0.000      0.000
REMARK  2 active torsions:
REMARK  status: ('A' for Active; 'I' for Inactive)
REMARK    1  A    between atoms: N_6  and  C_7 
REMARK    2  A    between atoms: C_11  and  N_12 
ROOT
HETATM    1  C   UNL     1      43.356 -17.511   5.449  1.00  0.00     0.070 A 
HETATM    2  C   UNL     1      43.593 -18.863   5.781  1.00  0.00     0.145 A 
HETATM    3  F   UNL     1      43.561 -19.261   7.063  1.00  0.00    -0.204 F 
HETATM    4  C   UNL     1      43.914 -19.826   4.828  1.00  0.00     0.082 A 
HETATM    5  C   UNL     1      44.006 -19.442   3.493  1.00  0.00     0.123 A 
HETATM    6  C   UNL     1      43.775 -18.128   3.100  1.00  0.00     0.046 A 
HETATM    7 BR   UNL     1      43.844 -17.545   1.297  1.00  0.00    -0.048 Br
HETATM    8  C   UNL     1      43.447 -17.178   4.080  1.00  0.00     0.054 A 
ENDROOT
BRANCH   1   9
HETATM    9  N   UNL     1      42.995 -16.527   6.374  1.00  0.00    -0.375 N 
HETATM   10  C   UNL     1      41.569 -16.154   6.493  1.00  0.00     0.150 C 
HETATM   11  C   UNL     1      41.268 -14.860   5.703  1.00  0.00     0.254 C 
HETATM   12  N   UNL     1      42.214 -13.735   6.128  1.00  0.00    -0.072 N 
HETATM   13  C   UNL     1      41.919 -12.452   5.413  1.00  0.00     0.269 C 
HETATM   14  H   UNL     1      42.062 -13.573   7.132  1.00  0.00     0.279 HD
HETATM   15  C   UNL     1      43.678 -14.161   5.963  1.00  0.00     0.254 C 
HETATM   16  C   UNL     1      43.942 -15.459   6.754  1.00  0.00     0.150 C 
ENDBRANCH   1   9
BRANCH   5  17
HETATM   17  N   UNL     1      44.361 -20.456   2.530  1.00  0.00    -0.114 N 
HETATM   18  O   UNL     1      43.432 -20.974   1.902  1.00  0.00    -0.532 OA
HETATM   19  O   UNL     1      45.558 -20.760   2.459  1.00  0.00    -0.532 OA
ENDBRANCH   5  17
TORSDOF 2
ENDMDL
MODEL 2
REMARK VINA RESULT:      -6.2      2.984      3.728
REMARK  2 active torsions:
REMARK  status: ('A' for Active; 'I' for Inactive)
REMARK    1  A    between atoms: N_6  and  C_7 
REMARK    2  A    between atoms: C_11  and  N_12 
ROOT
HETATM    1  C   UNL     1      43.774 -17.864   3.113  1.00  0.00     0.070 A 
HETATM    2  C   UNL     1      43.969 -17.857   4.512  1.00  0.00     0.145 A 
HETATM    3  F   UNL     1      43.914 -16.704   5.197  1.00  0.00    -0.204 F 
HETATM    4  C   UNL     1      44.270 -19.008   5.236  1.00  0.00     0.082 A 
HETATM    5  C   UNL     1      44.384 -20.217   4.552  1.00  0.00     0.123 A 
HETATM    6  C   UNL     1      44.194 -20.291   3.177  1.00  0.00     0.046 A 
HETATM    7 BR   UNL     1      44.294 -21.908   2.191  1.00  0.00    -0.048 Br
HETATM    8  C   UNL     1      43.885 -19.117   2.473  1.00  0.00     0.054 A 
ENDROOT
BRANCH   1   9
HETATM    9  N   UNL     1      43.433 -16.735   2.363  1.00  0.00    -0.375 N 
HETATM   10  C   UNL     1      43.071 -15.491   3.075  1.00  0.00     0.150 C 
HETATM   11  C   UNL     1      41.536 -15.325   3.154  1.00  0.00     0.254 C 
HETATM   12  N   UNL     1      40.911 -15.415   1.761  1.00  0.00    -0.072 N 
HETATM   13  C   UNL     1      39.427 -15.212   1.796  1.00  0.00     0.269 C 
HETATM   14  H   UNL     1      41.314 -14.656   1.197  1.00  0.00     0.279 HD
HETATM   15  C   UNL     1      41.294 -16.732   1.075  1.00  0.00     0.254 C 
HETATM   16  C   UNL     1      42.830 -16.871   1.021  1.00  0.00     0.150 C 
ENDBRANCH   1   9
BRANCH   5  17
HETATM   17  N   UNL     1      44.717 -21.390   5.323  1.00  0.00    -0.114 N 
HETATM   18  O   UNL     1      44.019 -21.618   6.316  1.00  0.00    -0.532 OA
HETATM   19  O   UNL     1      45.710 -22.031   4.957  1.00  0.00    -0.532 OA
ENDBRANCH   5  17
TORSDOF 2
ENDMDL
MODEL 3
REMARK VINA RESULT:      -6.2      3.103      3.824
REMARK  2 active torsions:
REMARK  status: ('A' for Active; 'I' for Inactive)
REMARK    1  A    between atoms: N_6  and  C_7 
REMARK    2  A    between atoms: C_11  and  N_12 
ROOT
HETATM    1  C   UNL     1      42.375 -17.557   2.430  1.00  0.00     0.070 A 
HETATM    2  C   UNL     1      42.825 -17.236   3.729  1.00  0.00     0.145 A 
HETATM    3  F   UNL     1      42.567 -16.028   4.256  1.00  0.00    -0.204 F 
HETATM    4  C   UNL     1      43.586 -18.112   4.500  1.00  0.00     0.082 A 
HETATM    5  C   UNL     1      43.916 -19.356   3.968  1.00  0.00     0.123 A 
HETATM    6  C   UNL     1      43.496 -19.736   2.699  1.00  0.00     0.046 A 
HETATM    7 BR   UNL     1      43.876 -21.427   1.931  1.00  0.00    -0.048 Br
HETATM    8  C   UNL     1      42.725 -18.836   1.946  1.00  0.00     0.054 A 
ENDROOT
BRANCH   1   9
HETATM    9  N   UNL     1      41.579 -16.719   1.645  1.00  0.00    -0.375 N 
HETATM   10  C   UNL     1      42.225 -15.609   0.911  1.00  0.00     0.150 C 
HETATM   11  C   UNL     1      42.062 -14.274   1.673  1.00  0.00     0.254 C 
HETATM   12  N   UNL     1      40.588 -14.004   1.982  1.00  0.00    -0.072 N 
HETATM   13  C   UNL     1      40.390 -12.694   2.681  1.00  0.00     0.269 C 
HETATM   14  H   UNL     1      40.093 -13.954   1.082  1.00  0.00     0.279 HD
HETATM   15  C   UNL     1      39.972 -15.171   2.764  1.00  0.00     0.254 C 
HETATM   16  C   UNL     1      40.159 -16.488   1.982  1.00  0.00     0.150 C 
ENDBRANCH   1   9
BRANCH   5  17
HETATM   17  N   UNL     1      44.723 -20.235   4.780  1.00  0.00    -0.114 N 
HETATM   18  O   UNL     1      45.864 -20.474   4.374  1.00  0.00    -0.532 OA
HETATM   19  O   UNL     1      44.180 -20.719   5.782  1.00  0.00    -0.532 OA
ENDBRANCH   5  17
TORSDOF 2
ENDMDL
MODEL 4
REMARK VINA RESULT:      -6.1      1.936      2.361
REMARK  2 active torsions:
REMARK  status: ('A' for Active; 'I' for Inactive)
REMARK    1  A    between atoms: N_6  and  C_7 
REMARK    2  A    between atoms: C_11  and  N_12 
ROOT
HETATM    1  C   UNL     1      43.528 -18.233   5.282  1.00  0.00     0.070 A 
HETATM    2  C   UNL     1      43.319 -17.973   3.910  1.00  0.00     0.145 A 
HETATM    3  F   UNL     1      42.816 -16.793   3.514  1.00  0.00    -0.204 F 
HETATM    4  C   UNL     1      43.570 -18.918   2.918  1.00  0.00     0.082 A 
HETATM    5  C   UNL     1      44.046 -20.172   3.295  1.00  0.00     0.123 A 
HETATM    6  C   UNL     1      44.281 -20.487   4.628  1.00  0.00     0.046 A 
HETATM    7 BR   UNL     1      44.966 -22.158   5.206  1.00  0.00    -0.048 Br
HETATM    8  C   UNL     1      44.025 -19.513   5.607  1.00  0.00     0.054 A 
ENDROOT
BRANCH   1   9
HETATM    9  N   UNL     1      43.323 -17.296   6.299  1.00  0.00    -0.375 N 
HETATM   10  C   UNL     1      41.943 -17.050   6.771  1.00  0.00     0.150 C 
HETATM   11  C   UNL     1      41.356 -15.776   6.120  1.00  0.00     0.254 C 
HETATM   12  N   UNL     1      42.283 -14.580   6.342  1.00  0.00    -0.072 N 
HETATM   13  C   UNL     1      41.720 -13.318   5.762  1.00  0.00     0.269 C 
HETATM   14  H   UNL     1      42.367 -14.444   7.357  1.00  0.00     0.279 HD
HETATM   15  C   UNL     1      43.692 -14.875   5.814  1.00  0.00     0.254 C 
HETATM   16  C   UNL     1      44.245 -16.155   6.475  1.00  0.00     0.150 C 
ENDBRANCH   1   9
BRANCH   5  17
HETATM   17  N   UNL     1      44.277 -21.138   2.249  1.00  0.00    -0.114 N 
HETATM   18  O   UNL     1      45.451 -21.319   1.910  1.00  0.00    -0.532 OA
HETATM   19  O   UNL     1      43.275 -21.658   1.742  1.00  0.00    -0.532 OA
ENDBRANCH   5  17
TORSDOF 2
ENDMDL
MODEL 5
REMARK VINA RESULT:      -6.1      3.780      4.548
REMARK  2 active torsions:
REMARK  status: ('A' for Active; 'I' for Inactive)
REMARK    1  A    between atoms: N_6  and  C_7 
REMARK    2  A    between atoms: C_11  and  N_12 
ROOT
HETATM    1  C   UNL     1      42.276 -17.649   2.891  1.00  0.00     0.070 A 
HETATM    2  C   UNL     1      43.006 -18.851   3.012  1.00  0.00     0.145 A 
HETATM    3  F   UNL     1      42.918 -19.796   2.062  1.00  0.00    -0.204 F 
HETATM    4  C   UNL     1      43.801 -19.141   4.119  1.00  0.00     0.082 A 
HETATM    5  C   UNL     1      43.880 -18.206   5.149  1.00  0.00     0.123 A 
HETATM    6  C   UNL     1      43.192 -16.999   5.085  1.00  0.00     0.046 A 
HETATM    7 BR   UNL     1      43.285 -15.667   6.432  1.00  0.00    -0.048 Br
HETATM    8  C   UNL     1      42.402 -16.731   3.956  1.00  0.00     0.054 A 
ENDROOT
BRANCH   1   9
HETATM    9  N   UNL     1      41.500 -17.310   1.779  1.00  0.00    -0.375 N 
HETATM   10  C   UNL     1      42.161 -16.677   0.618  1.00  0.00     0.150 C 
HETATM   11  C   UNL     1      41.962 -15.144   0.638  1.00  0.00     0.254 C 
HETATM   12  N   UNL     1      40.476 -14.793   0.741  1.00  0.00    -0.072 N 
HETATM   13  C   UNL     1      40.245 -13.313   0.716  1.00  0.00     0.269 C 
HETATM   14  H   UNL     1      40.011 -15.193  -0.084  1.00  0.00     0.279 HD
HETATM   15  C   UNL     1      39.844 -15.452   1.972  1.00  0.00     0.254 C 
HETATM   16  C   UNL     1      40.068 -16.978   1.927  1.00  0.00     0.150 C 
ENDBRANCH   1   9
BRANCH   5  17
HETATM   17  N   UNL     1      44.693 -18.540   6.292  1.00  0.00    -0.114 N 
HETATM   18  O   UNL     1      44.153 -19.204   7.183  1.00  0.00    -0.532 OA
HETATM   19  O   UNL     1      45.843 -18.084   6.308  1.00  0.00    -0.532 OA
ENDBRANCH   5  17
TORSDOF 2
ENDMDL
MODEL 6
REMARK VINA RESULT:      -6.1      2.718      3.387
REMARK  2 active torsions:
REMARK  status: ('A' for Active; 'I' for Inactive)
REMARK    1  A    between atoms: N_6  and  C_7 
REMARK    2  A    between atoms: C_11  and  N_12 
ROOT
HETATM    1  C   UNL     1      43.521 -17.661   3.265  1.00  0.00     0.070 A 
HETATM    2  C   UNL     1      43.988 -18.499   2.229  1.00  0.00     0.145 A 
HETATM    3  F   UNL     1      44.014 -18.058   0.961  1.00  0.00    -0.204 F 
HETATM    4  C   UNL     1      44.391 -19.814   2.449  1.00  0.00     0.082 A 
HETATM    5  C   UNL     1      44.331 -20.324   3.744  1.00  0.00     0.123 A 
HETATM    6  C   UNL     1      43.890 -19.547   4.809  1.00  0.00     0.046 A 
HETATM    7 BR   UNL     1      43.821 -20.164   6.600  1.00  0.00    -0.048 Br
HETATM    8  C   UNL     1      43.495 -18.223   4.559  1.00  0.00     0.054 A 
ENDROOT
BRANCH   1   9
HETATM    9  N   UNL     1      43.145 -16.327   3.086  1.00  0.00    -0.375 N 
HETATM   10  C   UNL     1      43.483 -15.346   4.141  1.00  0.00     0.150 C 
HETATM   11  C   UNL     1      42.266 -15.078   5.055  1.00  0.00     0.254 C 
HETATM   12  N   UNL     1      41.048 -14.665   4.227  1.00  0.00    -0.072 N 
HETATM   13  C   UNL     1      39.863 -14.352   5.088  1.00  0.00     0.269 C 
HETATM   14  H   UNL     1      41.300 -13.804   3.723  1.00  0.00     0.279 HD
HETATM   15  C   UNL     1      40.724 -15.723   3.166  1.00  0.00     0.254 C 
HETATM   16  C   UNL     1      41.960 -15.975   2.277  1.00  0.00     0.150 C 
ENDBRANCH   1   9
BRANCH   5  17
HETATM   17  N   UNL     1      44.735 -21.695   3.939  1.00  0.00    -0.114 N 
HETATM   18  O   UNL     1      45.471 -21.925   4.904  1.00  0.00    -0.532 OA
HETATM   19  O   UNL     1      44.357 -22.512   3.090  1.00  0.00    -0.532 OA
ENDBRANCH   5  17
TORSDOF 2
ENDMDL
MODEL 7
REMARK VINA RESULT:      -5.9      3.764      4.562
REMARK  2 active torsions:
REMARK  status: ('A' for Active; 'I' for Inactive)
REMARK    1  A    between atoms: N_6  and  C_7 
REMARK    2  A    between atoms: C_11  and  N_12 
ROOT
HETATM    1  C   UNL     1      41.624 -17.301   3.515  1.00  0.00     0.070 A 
HETATM    2  C   UNL     1      41.610 -16.787   4.830  1.00  0.00     0.145 A 
HETATM    3  F   UNL     1      40.771 -15.793   5.159  1.00  0.00    -0.204 F 
HETATM    4  C   UNL     1      42.477 -17.237   5.823  1.00  0.00     0.082 A 
HETATM    5  C   UNL     1      43.397 -18.235   5.506  1.00  0.00     0.123 A 
HETATM    6  C   UNL     1      43.455 -18.788   4.231  1.00  0.00     0.046 A 
HETATM    7 BR   UNL     1      44.653 -20.174   3.744  1.00  0.00    -0.048 Br
HETATM    8  C   UNL     1      42.565 -18.320   3.252  1.00  0.00     0.054 A 
ENDROOT
BRANCH   1   9
HETATM    9  N   UNL     1      40.744 -16.900   2.506  1.00  0.00    -0.375 N 
HETATM   10  C   UNL     1      40.915 -17.461   1.149  1.00  0.00     0.150 C 
HETATM   11  C   UNL     1      41.674 -16.472   0.234  1.00  0.00     0.254 C 
HETATM   12  N   UNL     1      40.987 -15.105   0.229  1.00  0.00    -0.072 N 
HETATM   13  C   UNL     1      41.671 -14.135  -0.684  1.00  0.00     0.269 C 
HETATM   14  H   UNL     1      40.032 -15.246  -0.126  1.00  0.00     0.279 HD
HETATM   15  C   UNL     1      40.855 -14.556   1.655  1.00  0.00     0.254 C 
HETATM   16  C   UNL     1      40.103 -15.569   2.543  1.00  0.00     0.150 C 
ENDBRANCH   1   9
BRANCH   5  17
HETATM   17  N   UNL     1      44.297 -18.666   6.547  1.00  0.00    -0.114 N 
HETATM   18  O   UNL     1      45.395 -18.103   6.600  1.00  0.00    -0.532 OA
HETATM   19  O   UNL     1      43.914 -19.603   7.259  1.00  0.00    -0.532 OA
ENDBRANCH   5  17
TORSDOF 2
ENDMDL
MODEL 8
REMARK VINA RESULT:      -5.9      2.100      2.681
REMARK  2 active torsions:
REMARK  status: ('A' for Active; 'I' for Inactive)
REMARK    1  A    between atoms: N_6  and  C_7 
REMARK    2  A    between atoms: C_11  and  N_12 
ROOT
HETATM    1  C   UNL     1      42.728 -16.643   3.880  1.00  0.00     0.070 A 
HETATM    2  C   UNL     1      43.296 -16.837   5.158  1.00  0.00     0.145 A 
HETATM    3  F   UNL     1      43.290 -15.842   6.060  1.00  0.00    -0.204 F 
HETATM    4  C   UNL     1      43.924 -18.023   5.530  1.00  0.00     0.082 A 
HETATM    5  C   UNL     1      43.994 -19.062   4.604  1.00  0.00     0.123 A 
HETATM    6  C   UNL     1      43.445 -18.937   3.333  1.00  0.00     0.046 A 
HETATM    7 BR   UNL     1      43.470 -20.323   2.040  1.00  0.00    -0.048 Br
HETATM    8  C   UNL     1      42.814 -17.732   2.986  1.00  0.00     0.054 A 
ENDROOT
BRANCH   1   9
HETATM    9  N   UNL     1      42.058 -15.481   3.487  1.00  0.00    -0.375 N 
HETATM   10  C   UNL     1      42.855 -14.288   3.131  1.00  0.00     0.150 C 
HETATM   11  C   UNL     1      42.916 -13.292   4.312  1.00  0.00     0.254 C 
HETATM   12  N   UNL     1      41.508 -12.943   4.799  1.00  0.00    -0.072 N 
HETATM   13  C   UNL     1      41.530 -11.944   5.914  1.00  0.00     0.269 C 
HETATM   14  H   UNL     1      41.011 -12.514   4.007  1.00  0.00     0.279 HD
HETATM   15  C   UNL     1      40.732 -14.210   5.177  1.00  0.00     0.254 C 
HETATM   16  C   UNL     1      40.698 -15.186   3.983  1.00  0.00     0.150 C 
ENDBRANCH   1   9
BRANCH   5  17
HETATM   17  N   UNL     1      44.668 -20.272   5.010  1.00  0.00    -0.114 N 
HETATM   18  O   UNL     1      44.172 -20.893   5.955  1.00  0.00    -0.532 OA
HETATM   19  O   UNL     1      45.716 -20.550   4.414  1.00  0.00    -0.532 OA
ENDBRANCH   5  17
TORSDOF 2
ENDMDL
MODEL 9
REMARK VINA RESULT:      -5.9      8.501     10.086
REMARK  2 active torsions:
REMARK  status: ('A' for Active; 'I' for Inactive)
REMARK    1  A    between atoms: N_6  and  C_7 
REMARK    2  A    between atoms: C_11  and  N_12 
ROOT
HETATM    1  C   UNL     1      42.329  -9.741  11.697  1.00  0.00     0.070 A 
HETATM    2  C   UNL     1      43.604 -10.124  12.168  1.00  0.00     0.145 A 
HETATM    3  F   UNL     1      43.979  -9.829  13.423  1.00  0.00    -0.204 F 
HETATM    4  C   UNL     1      44.541 -10.770  11.365  1.00  0.00     0.082 A 
HETATM    5  C   UNL     1      44.207 -11.050  10.042  1.00  0.00     0.123 A 
HETATM    6  C   UNL     1      42.965 -10.706   9.520  1.00  0.00     0.046 A 
HETATM    7 BR   UNL     1      42.432 -11.092   7.742  1.00  0.00    -0.048 Br
HETATM    8  C   UNL     1      42.038 -10.061  10.354  1.00  0.00     0.054 A 
ENDROOT
BRANCH   1   9
HETATM    9  N   UNL     1      41.353  -9.127  12.486  1.00  0.00    -0.375 N 
HETATM   10  C   UNL     1      40.146  -9.899  12.851  1.00  0.00     0.150 C 
HETATM   11  C   UNL     1      38.959  -9.540  11.928  1.00  0.00     0.254 C 
HETATM   12  N   UNL     1      38.718  -8.030  11.920  1.00  0.00    -0.072 N 
HETATM   13  C   UNL     1      37.544  -7.652  11.070  1.00  0.00     0.269 C 
HETATM   14  H   UNL     1      38.504  -7.751  12.886  1.00  0.00     0.279 HD
HETATM   15  C   UNL     1      39.990  -7.276  11.512  1.00  0.00     0.254 C 
HETATM   16  C   UNL     1      41.156  -7.663  12.445  1.00  0.00     0.150 C 
ENDBRANCH   1   9
BRANCH   5  17
HETATM   17  N   UNL     1      45.204 -11.700   9.226  1.00  0.00    -0.114 N 
HETATM   18  O   UNL     1      45.076 -12.917   9.059  1.00  0.00    -0.532 OA
HETATM   19  O   UNL     1      46.132 -10.993   8.815  1.00  0.00    -0.532 OA
ENDBRANCH   5  17
TORSDOF 2
ENDMDL
MODEL 10
REMARK VINA RESULT:      -5.9      8.556     10.430
REMARK  2 active torsions:
REMARK  status: ('A' for Active; 'I' for Inactive)
REMARK    1  A    between atoms: N_6  and  C_7 
REMARK    2  A    between atoms: C_11  and  N_12 
ROOT
HETATM    1  C   UNL     1      42.325  -9.872  11.503  1.00  0.00     0.070 A 
HETATM    2  C   UNL     1      43.629 -10.128  11.982  1.00  0.00     0.145 A 
HETATM    3  F   UNL     1      43.983  -9.749  13.220  1.00  0.00    -0.204 F 
HETATM    4  C   UNL     1      44.613 -10.729  11.200  1.00  0.00     0.082 A 
HETATM    5  C   UNL     1      44.298 -11.092   9.892  1.00  0.00     0.123 A 
HETATM    6  C   UNL     1      43.030 -10.875   9.365  1.00  0.00     0.046 A 
HETATM    7 BR   UNL     1      42.524 -11.381   7.610  1.00  0.00    -0.048 Br
HETATM    8  C   UNL     1      42.056 -10.273  10.177  1.00  0.00     0.054 A 
ENDROOT
BRANCH   1   9
HETATM    9  N   UNL     1      41.304  -9.306  12.272  1.00  0.00    -0.375 N 
HETATM   10  C   UNL     1      41.320  -7.847  12.511  1.00  0.00     0.150 C 
HETATM   11  C   UNL     1      41.910  -7.521  13.902  1.00  0.00     0.254 C 
HETATM   12  N   UNL     1      41.173  -8.294  14.997  1.00  0.00    -0.072 N 
HETATM   13  C   UNL     1      41.690  -7.966  16.363  1.00  0.00     0.269 C 
HETATM   14  H   UNL     1      40.186  -8.006  14.961  1.00  0.00     0.279 HD
HETATM   15  C   UNL     1      41.206  -9.801  14.717  1.00  0.00     0.254 C 
HETATM   16  C   UNL     1      40.620 -10.092  13.320  1.00  0.00     0.150 C 
ENDBRANCH   1   9
BRANCH   5  17
HETATM   17  N   UNL     1      45.342 -11.694   9.098  1.00  0.00    -0.114 N 
HETATM   18  O   UNL     1      45.298 -12.920   8.961  1.00  0.00    -0.532 OA
HETATM   19  O   UNL     1      46.223 -10.936   8.674  1.00  0.00    -0.532 OA
ENDBRANCH   5  17
TORSDOF 2
ENDMDL
