MODEL 1
REMARK VINA RESULT:      -7.6      0.000      0.000
REMARK  7 active torsions:
REMARK  status: ('A' for Active; 'I' for Inactive)
REMARK    1  A    between atoms: C_2  and  C_3 
REMARK    2  A    between atoms: C_3  and  O_4 
REMARK    3  A    between atoms: O_4  and  C_5 
REMARK    4  A    between atoms: C_8  and  C_9 
REMARK    5  A    between atoms: C_9  and  N_10 
REMARK    6  A    between atoms: N_10  and  C_11 
REMARK    7  A    between atoms: C_18  and  C_19 
REMARK       I    between atoms: C_19  and  N_20 
ROOT
HETATM    1  C   UNL     1      44.455 -19.546   4.791  1.00  0.00     0.009 A 
HETATM    2  C   UNL     1      44.391 -18.191   5.167  1.00  0.00     0.039 A 
HETATM    3  C   UNL     1      44.021 -17.828   6.479  1.00  0.00     0.030 A 
HETATM    4  C   UNL     1      43.759 -18.833   7.399  1.00  0.00     0.063 A 
HETATM    5  N   UNL     1      43.443 -18.187   8.561  1.00  0.00    -0.277 N 
HETATM    6  H   UNL     1      43.199 -18.609   9.450  1.00  0.00     0.189 HD
HETATM    7  N   UNL     1      43.472 -16.846   8.479  1.00  0.00    -0.168 NA
HETATM    8  C   UNL     1      43.832 -16.609   7.196  1.00  0.00     0.156 A 
HETATM    9  C   UNL     1      43.850 -20.189   7.086  1.00  0.00     0.034 A 
HETATM   10  C   UNL     1      44.216 -20.518   5.771  1.00  0.00     0.026 A 
ENDROOT
BRANCH   1  11
HETATM   11  N   UNL     1      44.896 -19.852   3.497  1.00  0.00    -0.289 NA
HETATM   12  H   UNL     1      45.605 -19.198   3.171  1.00  0.00     0.128 HD
BRANCH  11  13
HETATM   13  C   UNL     1      43.923 -20.169   2.463  1.00  0.00     0.131 C 
BRANCH  13  14
HETATM   14  C   UNL     1      43.251 -18.899   1.994  1.00  0.00    -0.045 A 
HETATM   15  C   UNL     1      44.019 -17.783   1.632  1.00  0.00     0.011 A 
HETATM   16  C   UNL     1      43.411 -16.610   1.175  1.00  0.00     0.037 A 
HETATM   17  C   UNL     1      42.022 -16.537   1.071  1.00  0.00     0.068 A 
HETATM   18  C   UNL     1      41.251 -17.637   1.453  1.00  0.00     0.037 A 
HETATM   19  C   UNL     1      41.857 -18.811   1.911  1.00  0.00     0.011 A 
BRANCH  17  20
HETATM   20  O   UNL     1      41.304 -15.461   0.628  1.00  0.00    -0.351 OA
BRANCH  20  21
HETATM   21  C   UNL     1      41.404 -14.258   1.391  1.00  0.00     0.179 C 
BRANCH  21  22
HETATM   22  C   UNL     1      40.115 -14.080   2.208  1.00  0.00     0.002 C 
HETATM   23  C   UNL     1      40.251 -14.696   3.603  1.00  0.00     0.011 C 
HETATM   24  C   UNL     1      38.927 -14.694   1.471  1.00  0.00     0.011 C 
ENDBRANCH  21  22
ENDBRANCH  20  21
ENDBRANCH  17  20
ENDBRANCH  13  14
ENDBRANCH  11  13
ENDBRANCH   1  11
BRANCH   8  25
HETATM   25  C   UNL     1      43.981 -15.241   6.685  1.00  0.00     0.270 C 
HETATM   26  N   UNL     1      44.323 -14.322   7.640  1.00  0.00    -0.365 N 
HETATM   27  H   UNL     1      44.442 -14.638   8.595  1.00  0.00     0.159 HD
HETATM   28  H   UNL     1      44.448 -13.356   7.384  1.00  0.00     0.159 HD
HETATM   29  O   UNL     1      43.821 -14.912   5.514  1.00  0.00    -0.266 OA
ENDBRANCH   8  25
TORSDOF 7
ENDMDL
MODEL 2
REMARK VINA RESULT:      -7.5      4.844      8.525
REMARK  7 active torsions:
REMARK  status: ('A' for Active; 'I' for Inactive)
REMARK    1  A    between atoms: C_2  and  C_3 
REMARK    2  A    between atoms: C_3  and  O_4 
REMARK    3  A    between atoms: O_4  and  C_5 
REMARK    4  A    between atoms: C_8  and  C_9 
REMARK    5  A    between atoms: C_9  and  N_10 
REMARK    6  A    between atoms: N_10  and  C_11 
REMARK    7  A    between atoms: C_18  and  C_19 
REMARK       I    between atoms: C_19  and  N_20 
ROOT
HETATM    1  C   UNL     1      43.906 -15.107   6.817  1.00  0.00     0.009 A 
HETATM    2  C   UNL     1      44.020 -16.509   6.774  1.00  0.00     0.039 A 
HETATM    3  C   UNL     1      43.659 -17.223   5.613  1.00  0.00     0.030 A 
HETATM    4  C   UNL     1      43.226 -16.512   4.502  1.00  0.00     0.063 A 
HETATM    5  N   UNL     1      42.964 -17.454   3.548  1.00  0.00    -0.277 N 
HETATM    6  H   UNL     1      42.632 -17.294   2.604  1.00  0.00     0.189 HD
HETATM    7  N   UNL     1      43.184 -18.721   3.940  1.00  0.00    -0.168 NA
HETATM    8  C   UNL     1      43.618 -18.592   5.215  1.00  0.00     0.156 A 
HETATM    9  C   UNL     1      43.137 -15.120   4.482  1.00  0.00     0.034 A 
HETATM   10  C   UNL     1      43.498 -14.439   5.655  1.00  0.00     0.026 A 
ENDROOT
BRANCH   1  11
HETATM   11  N   UNL     1      44.345 -14.443   7.970  1.00  0.00    -0.289 NA
HETATM   12  H   UNL     1      43.601 -14.342   8.658  1.00  0.00     0.128 HD
BRANCH  11  13
HETATM   13  C   UNL     1      45.142 -13.232   7.842  1.00  0.00     0.131 C 
BRANCH  13  14
HETATM   14  C   UNL     1      44.687 -12.217   8.864  1.00  0.00    -0.045 A 
HETATM   15  C   UNL     1      45.461 -11.966  10.007  1.00  0.00     0.011 A 
HETATM   16  C   UNL     1      45.062 -11.013  10.949  1.00  0.00     0.037 A 
HETATM   17  C   UNL     1      43.884 -10.292  10.760  1.00  0.00     0.068 A 
HETATM   18  C   UNL     1      43.098 -10.554   9.636  1.00  0.00     0.037 A 
HETATM   19  C   UNL     1      43.492 -11.508   8.693  1.00  0.00     0.011 A 
BRANCH  17  20
HETATM   20  O   UNL     1      43.389  -9.326  11.591  1.00  0.00    -0.351 OA
BRANCH  20  21
HETATM   21  C   UNL     1      42.059  -9.511  12.078  1.00  0.00     0.179 C 
BRANCH  21  22
HETATM   22  C   UNL     1      42.047 -10.698  13.054  1.00  0.00     0.002 C 
HETATM   23  C   UNL     1      40.722 -11.459  12.989  1.00  0.00     0.011 C 
HETATM   24  C   UNL     1      42.314 -10.219  14.480  1.00  0.00     0.011 C 
ENDBRANCH  21  22
ENDBRANCH  20  21
ENDBRANCH  17  20
ENDBRANCH  13  14
ENDBRANCH  11  13
ENDBRANCH   1  11
BRANCH   8  25
HETATM   25  C   UNL     1      43.976 -19.766   6.022  1.00  0.00     0.270 C 
HETATM   26  N   UNL     1      44.673 -20.723   5.337  1.00  0.00    -0.365 N 
HETATM   27  H   UNL     1      44.882 -20.562   4.358  1.00  0.00     0.159 HD
HETATM   28  H   UNL     1      44.962 -21.566   5.807  1.00  0.00     0.159 HD
HETATM   29  O   UNL     1      43.692 -19.911   7.207  1.00  0.00    -0.266 OA
ENDBRANCH   8  25
TORSDOF 7
ENDMDL
MODEL 3
REMARK VINA RESULT:      -7.4      4.440      8.578
REMARK  7 active torsions:
REMARK  status: ('A' for Active; 'I' for Inactive)
REMARK    1  A    between atoms: C_2  and  C_3 
REMARK    2  A    between atoms: C_3  and  O_4 
REMARK    3  A    between atoms: O_4  and  C_5 
REMARK    4  A    between atoms: C_8  and  C_9 
REMARK    5  A    between atoms: C_9  and  N_10 
REMARK    6  A    between atoms: N_10  and  C_11 
REMARK    7  A    between atoms: C_18  and  C_19 
REMARK       I    between atoms: C_19  and  N_20 
ROOT
HETATM    1  C   UNL     1      40.410 -13.599   0.567  1.00  0.00     0.009 A 
HETATM    2  C   UNL     1      39.761 -14.255  -0.495  1.00  0.00     0.039 A 
HETATM    3  C   UNL     1      40.369 -14.340  -1.764  1.00  0.00     0.030 A 
HETATM    4  C   UNL     1      41.635 -13.797  -1.934  1.00  0.00     0.063 A 
HETATM    5  N   UNL     1      41.960 -14.038  -3.239  1.00  0.00    -0.277 N 
HETATM    6  H   UNL     1      42.819 -13.783  -3.713  1.00  0.00     0.189 HD
HETATM    7  N   UNL     1      41.015 -14.688  -3.939  1.00  0.00    -0.168 NA
HETATM    8  C   UNL     1      40.025 -14.885  -3.038  1.00  0.00     0.156 A 
HETATM    9  C   UNL     1      42.336 -13.175  -0.902  1.00  0.00     0.034 A 
HETATM   10  C   UNL     1      41.701 -13.101   0.348  1.00  0.00     0.026 A 
ENDROOT
BRANCH   1  11
HETATM   11  N   UNL     1      39.792 -13.605   1.824  1.00  0.00    -0.289 NA
HETATM   12  H   UNL     1      40.277 -13.005   2.490  1.00  0.00     0.128 HD
BRANCH  11  13
HETATM   13  C   UNL     1      39.385 -14.869   2.419  1.00  0.00     0.131 C 
BRANCH  13  14
HETATM   14  C   UNL     1      40.595 -15.756   2.601  1.00  0.00    -0.045 A 
HETATM   15  C   UNL     1      41.604 -15.400   3.507  1.00  0.00     0.011 A 
HETATM   16  C   UNL     1      42.718 -16.224   3.701  1.00  0.00     0.037 A 
HETATM   17  C   UNL     1      42.837 -17.418   2.992  1.00  0.00     0.068 A 
HETATM   18  C   UNL     1      41.846 -17.766   2.071  1.00  0.00     0.037 A 
HETATM   19  C   UNL     1      40.733 -16.944   1.874  1.00  0.00     0.011 A 
BRANCH  17  20
HETATM   20  O   UNL     1      43.861 -18.317   3.097  1.00  0.00    -0.351 OA
BRANCH  20  21
HETATM   21  C   UNL     1      43.913 -19.357   2.119  1.00  0.00     0.179 C 
BRANCH  21  22
HETATM   22  C   UNL     1      44.699 -20.544   2.697  1.00  0.00     0.002 C 
HETATM   23  C   UNL     1      44.139 -21.878   2.199  1.00  0.00     0.011 C 
HETATM   24  C   UNL     1      44.686 -20.500   4.223  1.00  0.00     0.011 C 
ENDBRANCH  21  22
ENDBRANCH  20  21
ENDBRANCH  17  20
ENDBRANCH  13  14
ENDBRANCH  11  13
ENDBRANCH   1  11
BRANCH   8  25
HETATM   25  C   UNL     1      38.783 -15.576  -3.406  1.00  0.00     0.270 C 
HETATM   26  N   UNL     1      38.965 -16.864  -3.829  1.00  0.00    -0.365 N 
HETATM   27  H   UNL     1      39.908 -17.236  -3.858  1.00  0.00     0.159 HD
HETATM   28  H   UNL     1      38.170 -17.419  -4.104  1.00  0.00     0.159 HD
HETATM   29  O   UNL     1      37.664 -15.075  -3.355  1.00  0.00    -0.266 OA
ENDBRANCH   8  25
TORSDOF 7
ENDMDL
MODEL 4
REMARK VINA RESULT:      -7.3      4.309      8.109
REMARK  7 active torsions:
REMARK  status: ('A' for Active; 'I' for Inactive)
REMARK    1  A    between atoms: C_2  and  C_3 
REMARK    2  A    between atoms: C_3  and  O_4 
REMARK    3  A    between atoms: O_4  and  C_5 
REMARK    4  A    between atoms: C_8  and  C_9 
REMARK    5  A    between atoms: C_9  and  N_10 
REMARK    6  A    between atoms: N_10  and  C_11 
REMARK    7  A    between atoms: C_18  and  C_19 
REMARK       I    between atoms: C_19  and  N_20 
ROOT
HETATM    1  C   UNL     1      41.461 -13.184   1.421  1.00  0.00     0.009 A 
HETATM    2  C   UNL     1      41.612 -13.515   0.062  1.00  0.00     0.039 A 
HETATM    3  C   UNL     1      40.488 -13.823  -0.731  1.00  0.00     0.030 A 
HETATM    4  C   UNL     1      39.227 -13.756  -0.154  1.00  0.00     0.063 A 
HETATM    5  N   UNL     1      38.354 -14.091  -1.150  1.00  0.00    -0.277 N 
HETATM    6  H   UNL     1      37.344 -14.141  -1.087  1.00  0.00     0.189 HD
HETATM    7  N   UNL     1      38.934 -14.376  -2.328  1.00  0.00    -0.168 NA
HETATM    8  C   UNL     1      40.255 -14.211  -2.084  1.00  0.00     0.156 A 
HETATM    9  C   UNL     1      39.023 -13.391   1.177  1.00  0.00     0.034 A 
HETATM   10  C   UNL     1      40.163 -13.096   1.941  1.00  0.00     0.026 A 
ENDROOT
BRANCH   1  11
HETATM   11  N   UNL     1      42.604 -12.818   2.144  1.00  0.00    -0.289 NA
HETATM   12  H   UNL     1      43.446 -12.859   1.572  1.00  0.00     0.128 HD
BRANCH  11  13
HETATM   13  C   UNL     1      42.817 -13.364   3.475  1.00  0.00     0.131 C 
BRANCH  13  14
HETATM   14  C   UNL     1      42.829 -14.873   3.408  1.00  0.00    -0.045 A 
HETATM   15  C   UNL     1      41.960 -15.625   4.212  1.00  0.00     0.011 A 
HETATM   16  C   UNL     1      41.946 -17.022   4.142  1.00  0.00     0.037 A 
HETATM   17  C   UNL     1      42.800 -17.688   3.265  1.00  0.00     0.068 A 
HETATM   18  C   UNL     1      43.684 -16.945   2.479  1.00  0.00     0.037 A 
HETATM   19  C   UNL     1      43.702 -15.549   2.547  1.00  0.00     0.011 A 
BRANCH  17  20
HETATM   20  O   UNL     1      42.876 -19.041   3.088  1.00  0.00    -0.351 OA
BRANCH  20  21
HETATM   21  C   UNL     1      43.639 -19.506   1.973  1.00  0.00     0.179 C 
BRANCH  21  22
HETATM   22  C   UNL     1      44.603 -20.602   2.454  1.00  0.00     0.002 C 
HETATM   23  C   UNL     1      44.181 -21.980   1.938  1.00  0.00     0.011 C 
HETATM   24  C   UNL     1      44.684 -20.609   3.978  1.00  0.00     0.011 C 
ENDBRANCH  21  22
ENDBRANCH  20  21
ENDBRANCH  17  20
ENDBRANCH  13  14
ENDBRANCH  11  13
ENDBRANCH   1  11
BRANCH   8  25
HETATM   25  C   UNL     1      41.258 -14.428  -3.135  1.00  0.00     0.270 C 
HETATM   26  N   UNL     1      41.846 -13.281  -3.592  1.00  0.00    -0.365 N 
HETATM   27  H   UNL     1      41.557 -12.396  -3.191  1.00  0.00     0.159 HD
HETATM   28  H   UNL     1      42.547 -13.330  -4.314  1.00  0.00     0.159 HD
HETATM   29  O   UNL     1      41.567 -15.526  -3.588  1.00  0.00    -0.266 OA
ENDBRANCH   8  25
TORSDOF 7
ENDMDL
MODEL 5
REMARK VINA RESULT:      -7.3      2.740      5.948
REMARK  7 active torsions:
REMARK  status: ('A' for Active; 'I' for Inactive)
REMARK    1  A    between atoms: C_2  and  C_3 
REMARK    2  A    between atoms: C_3  and  O_4 
REMARK    3  A    between atoms: O_4  and  C_5 
REMARK    4  A    between atoms: C_8  and  C_9 
REMARK    5  A    between atoms: C_9  and  N_10 
REMARK    6  A    between atoms: N_10  and  C_11 
REMARK    7  A    between atoms: C_18  and  C_19 
REMARK       I    between atoms: C_19  and  N_20 
ROOT
HETATM    1  C   UNL     1      41.780 -17.560   3.082  1.00  0.00     0.009 A 
HETATM    2  C   UNL     1      42.318 -18.160   4.235  1.00  0.00     0.039 A 
HETATM    3  C   UNL     1      43.392 -19.068   4.137  1.00  0.00     0.030 A 
HETATM    4  C   UNL     1      43.931 -19.329   2.884  1.00  0.00     0.063 A 
HETATM    5  N   UNL     1      44.942 -20.221   3.104  1.00  0.00    -0.277 N 
HETATM    6  H   UNL     1      45.559 -20.630   2.411  1.00  0.00     0.189 HD
HETATM    7  N   UNL     1      45.110 -20.569   4.391  1.00  0.00    -0.168 NA
HETATM    8  C   UNL     1      44.159 -19.860   5.042  1.00  0.00     0.156 A 
HETATM    9  C   UNL     1      43.459 -18.728   1.718  1.00  0.00     0.034 A 
HETATM   10  C   UNL     1      42.386 -17.832   1.849  1.00  0.00     0.026 A 
ENDROOT
BRANCH   1  11
HETATM   11  N   UNL     1      40.761 -16.612   3.244  1.00  0.00    -0.289 NA
HETATM   12  H   UNL     1      39.902 -16.891   2.773  1.00  0.00     0.128 HD
BRANCH  11  13
HETATM   13  C   UNL     1      41.057 -15.200   3.055  1.00  0.00     0.131 C 
BRANCH  13  14
HETATM   14  C   UNL     1      42.085 -14.758   4.069  1.00  0.00    -0.045 A 
HETATM   15  C   UNL     1      41.757 -14.698   5.431  1.00  0.00     0.011 A 
HETATM   16  C   UNL     1      42.706 -14.312   6.383  1.00  0.00     0.037 A 
HETATM   17  C   UNL     1      44.001 -13.982   5.986  1.00  0.00     0.068 A 
HETATM   18  C   UNL     1      44.327 -14.017   4.628  1.00  0.00     0.037 A 
HETATM   19  C   UNL     1      43.380 -14.401   3.674  1.00  0.00     0.011 A 
BRANCH  17  20
HETATM   20  O   UNL     1      45.024 -13.605   6.810  1.00  0.00    -0.351 OA
BRANCH  20  21
HETATM   21  C   UNL     1      44.667 -13.126   8.108  1.00  0.00     0.179 C 
BRANCH  21  22
HETATM   22  C   UNL     1      45.900 -12.474   8.754  1.00  0.00     0.002 C 
HETATM   23  C   UNL     1      45.531 -11.173   9.470  1.00  0.00     0.011 C 
HETATM   24  C   UNL     1      46.976 -12.214   7.703  1.00  0.00     0.011 C 
ENDBRANCH  21  22
ENDBRANCH  20  21
ENDBRANCH  17  20
ENDBRANCH  13  14
ENDBRANCH  11  13
ENDBRANCH   1  11
BRANCH   8  25
HETATM   25  C   UNL     1      44.000 -19.955   6.499  1.00  0.00     0.270 C 
HETATM   26  N   UNL     1      44.298 -18.801   7.170  1.00  0.00    -0.365 N 
HETATM   27  H   UNL     1      44.598 -17.994   6.635  1.00  0.00     0.159 HD
HETATM   28  H   UNL     1      44.219 -18.770   8.174  1.00  0.00     0.159 HD
HETATM   29  O   UNL     1      43.636 -20.963   7.097  1.00  0.00    -0.266 OA
ENDBRANCH   8  25
TORSDOF 7
ENDMDL
MODEL 6
REMARK VINA RESULT:      -7.3      2.935      4.780
REMARK  7 active torsions:
REMARK  status: ('A' for Active; 'I' for Inactive)
REMARK    1  A    between atoms: C_2  and  C_3 
REMARK    2  A    between atoms: C_3  and  O_4 
REMARK    3  A    between atoms: O_4  and  C_5 
REMARK    4  A    between atoms: C_8  and  C_9 
REMARK    5  A    between atoms: C_9  and  N_10 
REMARK    6  A    between atoms: N_10  and  C_11 
REMARK    7  A    between atoms: C_18  and  C_19 
REMARK       I    between atoms: C_19  and  N_20 
ROOT
HETATM    1  C   UNL     1      42.690 -17.392   3.017  1.00  0.00     0.009 A 
HETATM    2  C   UNL     1      42.978 -17.809   4.329  1.00  0.00     0.039 A 
HETATM    3  C   UNL     1      43.685 -19.007   4.562  1.00  0.00     0.030 A 
HETATM    4  C   UNL     1      44.123 -19.745   3.471  1.00  0.00     0.063 A 
HETATM    5  N   UNL     1      44.772 -20.824   4.001  1.00  0.00    -0.277 N 
HETATM    6  H   UNL     1      45.225 -21.575   3.493  1.00  0.00     0.189 HD
HETATM    7  N   UNL     1      44.793 -20.858   5.344  1.00  0.00    -0.168 NA
HETATM    8  C   UNL     1      44.127 -19.737   5.705  1.00  0.00     0.156 A 
HETATM    9  C   UNL     1      43.898 -19.351   2.152  1.00  0.00     0.034 A 
HETATM   10  C   UNL     1      43.187 -18.157   1.954  1.00  0.00     0.026 A 
ENDROOT
BRANCH   1  11
HETATM   11  N   UNL     1      42.047 -16.160   2.840  1.00  0.00    -0.289 NA
HETATM   12  H   UNL     1      42.426 -15.441   3.454  1.00  0.00     0.128 HD
BRANCH  11  13
HETATM   13  C   UNL     1      40.594 -16.111   2.769  1.00  0.00     0.131 C 
BRANCH  13  14
HETATM   14  C   UNL     1      40.174 -15.368   1.522  1.00  0.00    -0.045 A 
HETATM   15  C   UNL     1      41.003 -15.355   0.391  1.00  0.00     0.011 A 
HETATM   16  C   UNL     1      40.615 -14.690  -0.776  1.00  0.00     0.037 A 
HETATM   17  C   UNL     1      39.389 -14.030  -0.831  1.00  0.00     0.068 A 
HETATM   18  C   UNL     1      38.569 -14.020   0.300  1.00  0.00     0.037 A 
HETATM   19  C   UNL     1      38.954 -14.682   1.468  1.00  0.00     0.011 A 
BRANCH  17  20
HETATM   20  O   UNL     1      38.884 -13.358  -1.909  1.00  0.00    -0.351 OA
BRANCH  20  21
HETATM   21  C   UNL     1      39.165 -13.902  -3.200  1.00  0.00     0.179 C 
BRANCH  21  22
HETATM   22  C   UNL     1      38.227 -15.094  -3.452  1.00  0.00     0.002 C 
HETATM   23  C   UNL     1      38.914 -16.175  -4.288  1.00  0.00     0.011 C 
HETATM   24  C   UNL     1      36.945 -14.627  -4.137  1.00  0.00     0.011 C 
ENDBRANCH  21  22
ENDBRANCH  20  21
ENDBRANCH  17  20
ENDBRANCH  13  14
ENDBRANCH  11  13
ENDBRANCH   1  11
BRANCH   8  25
HETATM   25  C   UNL     1      43.923 -19.392   7.118  1.00  0.00     0.270 C 
HETATM   26  N   UNL     1      43.541 -20.447   7.901  1.00  0.00    -0.365 N 
HETATM   27  H   UNL     1      43.428 -21.356   7.468  1.00  0.00     0.159 HD
HETATM   28  H   UNL     1      43.377 -20.307   8.885  1.00  0.00     0.159 HD
HETATM   29  O   UNL     1      44.071 -18.269   7.590  1.00  0.00    -0.266 OA
ENDBRANCH   8  25
TORSDOF 7
ENDMDL
MODEL 7
REMARK VINA RESULT:      -7.2      4.831      8.385
REMARK  7 active torsions:
REMARK  status: ('A' for Active; 'I' for Inactive)
REMARK    1  A    between atoms: C_2  and  C_3 
REMARK    2  A    between atoms: C_3  and  O_4 
REMARK    3  A    between atoms: O_4  and  C_5 
REMARK    4  A    between atoms: C_8  and  C_9 
REMARK    5  A    between atoms: C_9  and  N_10 
REMARK    6  A    between atoms: N_10  and  C_11 
REMARK    7  A    between atoms: C_18  and  C_19 
REMARK       I    between atoms: C_19  and  N_20 
ROOT
HETATM    1  C   UNL     1      41.038 -15.180  -0.693  1.00  0.00     0.009 A 
HETATM    2  C   UNL     1      41.471 -13.844  -0.631  1.00  0.00     0.039 A 
HETATM    3  C   UNL     1      41.825 -13.149  -1.806  1.00  0.00     0.030 A 
HETATM    4  C   UNL     1      41.701 -13.799  -3.026  1.00  0.00     0.063 A 
HETATM    5  N   UNL     1      42.099 -12.888  -3.963  1.00  0.00    -0.277 N 
HETATM    6  H   UNL     1      42.134 -13.018  -4.968  1.00  0.00     0.189 HD
HETATM    7  N   UNL     1      42.477 -11.700  -3.462  1.00  0.00    -0.168 NA
HETATM    8  C   UNL     1      42.309 -11.846  -2.127  1.00  0.00     0.156 A 
HETATM    9  C   UNL     1      41.236 -15.108  -3.143  1.00  0.00     0.034 A 
HETATM   10  C   UNL     1      40.897 -15.774  -1.954  1.00  0.00     0.026 A 
ENDROOT
BRANCH   1  11
HETATM   11  N   UNL     1      40.631 -15.800   0.496  1.00  0.00    -0.289 NA
HETATM   12  H   UNL     1      39.617 -15.859   0.568  1.00  0.00     0.128 HD
BRANCH  11  13
HETATM   13  C   UNL     1      41.250 -15.413   1.755  1.00  0.00     0.131 C 
BRANCH  13  14
HETATM   14  C   UNL     1      42.087 -16.556   2.280  1.00  0.00    -0.045 A 
HETATM   15  C   UNL     1      41.733 -17.205   3.472  1.00  0.00     0.011 A 
HETATM   16  C   UNL     1      42.488 -18.278   3.956  1.00  0.00     0.037 A 
HETATM   17  C   UNL     1      43.607 -18.721   3.253  1.00  0.00     0.068 A 
HETATM   18  C   UNL     1      43.978 -18.062   2.078  1.00  0.00     0.037 A 
HETATM   19  C   UNL     1      43.227 -16.989   1.592  1.00  0.00     0.011 A 
BRANCH  17  20
HETATM   20  O   UNL     1      44.419 -19.762   3.606  1.00  0.00    -0.351 OA
BRANCH  20  21
HETATM   21  C   UNL     1      45.123 -20.420   2.551  1.00  0.00     0.179 C 
BRANCH  21  22
HETATM   22  C   UNL     1      44.591 -21.856   2.418  1.00  0.00     0.002 C 
HETATM   23  C   UNL     1      43.247 -21.885   1.687  1.00  0.00     0.011 C 
HETATM   24  C   UNL     1      44.460 -22.505   3.794  1.00  0.00     0.011 C 
ENDBRANCH  21  22
ENDBRANCH  20  21
ENDBRANCH  17  20
ENDBRANCH  13  14
ENDBRANCH  11  13
ENDBRANCH   1  11
BRANCH   8  25
HETATM   25  C   UNL     1      42.615 -10.753  -1.195  1.00  0.00     0.270 C 
HETATM   26  N   UNL     1      41.852  -9.633  -1.378  1.00  0.00    -0.365 N 
HETATM   27  H   UNL     1      41.158  -9.635  -2.117  1.00  0.00     0.159 HD
HETATM   28  H   UNL     1      41.990  -8.829  -0.786  1.00  0.00     0.159 HD
HETATM   29  O   UNL     1      43.473 -10.803  -0.319  1.00  0.00    -0.266 OA
ENDBRANCH   8  25
TORSDOF 7
ENDMDL
MODEL 8
REMARK VINA RESULT:      -7.1      4.675      8.204
REMARK  7 active torsions:
REMARK  status: ('A' for Active; 'I' for Inactive)
REMARK    1  A    between atoms: C_2  and  C_3 
REMARK    2  A    between atoms: C_3  and  O_4 
REMARK    3  A    between atoms: O_4  and  C_5 
REMARK    4  A    between atoms: C_8  and  C_9 
REMARK    5  A    between atoms: C_9  and  N_10 
REMARK    6  A    between atoms: N_10  and  C_11 
REMARK    7  A    between atoms: C_18  and  C_19 
REMARK       I    between atoms: C_19  and  N_20 
ROOT
HETATM    1  C   UNL     1      43.942 -15.630   6.480  1.00  0.00     0.009 A 
HETATM    2  C   UNL     1      43.138 -15.788   5.337  1.00  0.00     0.039 A 
HETATM    3  C   UNL     1      43.156 -16.996   4.608  1.00  0.00     0.030 A 
HETATM    4  C   UNL     1      43.954 -18.036   5.064  1.00  0.00     0.063 A 
HETATM    5  N   UNL     1      43.759 -19.057   4.177  1.00  0.00    -0.277 N 
HETATM    6  H   UNL     1      44.182 -19.978   4.201  1.00  0.00     0.189 HD
HETATM    7  N   UNL     1      42.906 -18.773   3.178  1.00  0.00    -0.168 NA
HETATM    8  C   UNL     1      42.521 -17.502   3.434  1.00  0.00     0.156 A 
HETATM    9  C   UNL     1      44.736 -17.942   6.214  1.00  0.00     0.034 A 
HETATM   10  C   UNL     1      44.700 -16.725   6.914  1.00  0.00     0.026 A 
ENDROOT
BRANCH   1  11
HETATM   11  N   UNL     1      43.832 -14.437   7.206  1.00  0.00    -0.289 NA
HETATM   12  H   UNL     1      43.016 -13.895   6.928  1.00  0.00     0.128 HD
BRANCH  11  13
HETATM   13  C   UNL     1      45.008 -13.600   7.395  1.00  0.00     0.131 C 
BRANCH  13  14
HETATM   14  C   UNL     1      44.730 -12.573   8.467  1.00  0.00    -0.045 A 
HETATM   15  C   UNL     1      45.683 -12.313   9.463  1.00  0.00     0.011 A 
HETATM   16  C   UNL     1      45.447 -11.348  10.448  1.00  0.00     0.037 A 
HETATM   17  C   UNL     1      44.255 -10.626  10.449  1.00  0.00     0.068 A 
HETATM   18  C   UNL     1      43.293 -10.897   9.473  1.00  0.00     0.037 A 
HETATM   19  C   UNL     1      43.525 -11.861   8.489  1.00  0.00     0.011 A 
BRANCH  17  20
HETATM   20  O   UNL     1      43.907  -9.650  11.340  1.00  0.00    -0.351 OA
BRANCH  20  21
HETATM   21  C   UNL     1      42.515  -9.351  11.462  1.00  0.00     0.179 C 
BRANCH  21  22
HETATM   22  C   UNL     1      42.079  -9.600  12.915  1.00  0.00     0.002 C 
HETATM   23  C   UNL     1      43.225  -9.329  13.893  1.00  0.00     0.011 C 
HETATM   24  C   UNL     1      41.567 -11.029  13.081  1.00  0.00     0.011 C 
ENDBRANCH  21  22
ENDBRANCH  20  21
ENDBRANCH  17  20
ENDBRANCH  13  14
ENDBRANCH  11  13
ENDBRANCH   1  11
BRANCH   8  25
HETATM   25  C   UNL     1      41.571 -16.800   2.562  1.00  0.00     0.270 C 
HETATM   26  N   UNL     1      40.314 -16.681   3.087  1.00  0.00    -0.365 N 
HETATM   27  H   UNL     1      40.133 -17.071   4.005  1.00  0.00     0.159 HD
HETATM   28  H   UNL     1      39.592 -16.215   2.560  1.00  0.00     0.159 HD
HETATM   29  O   UNL     1      41.843 -16.350   1.453  1.00  0.00    -0.266 OA
ENDBRANCH   8  25
TORSDOF 7
ENDMDL
MODEL 9
REMARK VINA RESULT:      -7.0      4.645      8.231
REMARK  7 active torsions:
REMARK  status: ('A' for Active; 'I' for Inactive)
REMARK    1  A    between atoms: C_2  and  C_3 
REMARK    2  A    between atoms: C_3  and  O_4 
REMARK    3  A    between atoms: O_4  and  C_5 
REMARK    4  A    between atoms: C_8  and  C_9 
REMARK    5  A    between atoms: C_9  and  N_10 
REMARK    6  A    between atoms: N_10  and  C_11 
REMARK    7  A    between atoms: C_18  and  C_19 
REMARK       I    between atoms: C_19  and  N_20 
ROOT
HETATM    1  C   UNL     1      41.132 -15.225  -0.695  1.00  0.00     0.009 A 
HETATM    2  C   UNL     1      41.604 -13.903  -0.604  1.00  0.00     0.039 A 
HETATM    3  C   UNL     1      41.905 -13.167  -1.768  1.00  0.00     0.030 A 
HETATM    4  C   UNL     1      41.691 -13.760  -3.005  1.00  0.00     0.063 A 
HETATM    5  N   UNL     1      42.056 -12.820  -3.926  1.00  0.00    -0.277 N 
HETATM    6  H   UNL     1      42.028 -12.908  -4.935  1.00  0.00     0.189 HD
HETATM    7  N   UNL     1      42.495 -11.664  -3.399  1.00  0.00    -0.168 NA
HETATM    8  C   UNL     1      42.403 -11.863  -2.064  1.00  0.00     0.156 A 
HETATM    9  C   UNL     1      41.186 -15.052  -3.147  1.00  0.00     0.034 A 
HETATM   10  C   UNL     1      40.901 -15.760  -1.969  1.00  0.00     0.026 A 
ENDROOT
BRANCH   1  11
HETATM   11  N   UNL     1      40.782 -15.886   0.490  1.00  0.00    -0.289 NA
HETATM   12  H   UNL     1      41.028 -15.343   1.316  1.00  0.00     0.128 HD
BRANCH  11  13
HETATM   13  C   UNL     1      41.097 -17.297   0.646  1.00  0.00     0.131 C 
BRANCH  13  14
HETATM   14  C   UNL     1      41.908 -17.499   1.905  1.00  0.00    -0.045 A 
HETATM   15  C   UNL     1      43.204 -18.031   1.836  1.00  0.00     0.011 A 
HETATM   16  C   UNL     1      43.973 -18.201   2.991  1.00  0.00     0.037 A 
HETATM   17  C   UNL     1      43.457 -17.840   4.235  1.00  0.00     0.068 A 
HETATM   18  C   UNL     1      42.158 -17.332   4.313  1.00  0.00     0.037 A 
HETATM   19  C   UNL     1      41.386 -17.162   3.160  1.00  0.00     0.011 A 
BRANCH  17  20
HETATM   20  O   UNL     1      44.105 -17.940   5.434  1.00  0.00    -0.351 OA
BRANCH  20  21
HETATM   21  C   UNL     1      44.966 -19.066   5.613  1.00  0.00     0.179 C 
BRANCH  21  22
HETATM   22  C   UNL     1      44.108 -20.339   5.693  1.00  0.00     0.002 C 
HETATM   23  C   UNL     1      43.721 -20.659   7.139  1.00  0.00     0.011 C 
HETATM   24  C   UNL     1      44.847 -21.520   5.068  1.00  0.00     0.011 C 
ENDBRANCH  21  22
ENDBRANCH  20  21
ENDBRANCH  17  20
ENDBRANCH  13  14
ENDBRANCH  11  13
ENDBRANCH   1  11
BRANCH   8  25
HETATM   25  C   UNL     1      42.793 -10.819  -1.108  1.00  0.00     0.270 C 
HETATM   26  N   UNL     1      41.745 -10.088  -0.621  1.00  0.00    -0.365 N 
HETATM   27  H   UNL     1      40.810 -10.308  -0.944  1.00  0.00     0.159 HD
HETATM   28  H   UNL     1      41.914  -9.348   0.041  1.00  0.00     0.159 HD
HETATM   29  O   UNL     1      43.946 -10.593  -0.754  1.00  0.00    -0.266 OA
ENDBRANCH   8  25
TORSDOF 7
ENDMDL
MODEL 10
REMARK VINA RESULT:      -6.7      2.632      4.680
REMARK  7 active torsions:
REMARK  status: ('A' for Active; 'I' for Inactive)
REMARK    1  A    between atoms: C_2  and  C_3 
REMARK    2  A    between atoms: C_3  and  O_4 
REMARK    3  A    between atoms: O_4  and  C_5 
REMARK    4  A    between atoms: C_8  and  C_9 
REMARK    5  A    between atoms: C_9  and  N_10 
REMARK    6  A    between atoms: N_10  and  C_11 
REMARK    7  A    between atoms: C_18  and  C_19 
REMARK       I    between atoms: C_19  and  N_20 
ROOT
HETATM    1  C   UNL     1      41.409 -16.879   5.741  1.00  0.00     0.009 A 
HETATM    2  C   UNL     1      41.922 -17.615   4.657  1.00  0.00     0.039 A 
HETATM    3  C   UNL     1      43.069 -18.420   4.816  1.00  0.00     0.030 A 
HETATM    4  C   UNL     1      43.657 -18.501   6.070  1.00  0.00     0.063 A 
HETATM    5  N   UNL     1      44.720 -19.346   5.918  1.00  0.00    -0.277 N 
HETATM    6  H   UNL     1      45.376 -19.640   6.633  1.00  0.00     0.189 HD
HETATM    7  N   UNL     1      44.880 -19.822   4.672  1.00  0.00    -0.168 NA
HETATM    8  C   UNL     1      43.863 -19.260   3.979  1.00  0.00     0.156 A 
HETATM    9  C   UNL     1      43.161 -17.824   7.184  1.00  0.00     0.034 A 
HETATM   10  C   UNL     1      42.021 -17.027   6.992  1.00  0.00     0.026 A 
ENDROOT
BRANCH   1  11
HETATM   11  N   UNL     1      40.227 -16.152   5.546  1.00  0.00    -0.289 NA
HETATM   12  H   UNL     1      39.525 -16.692   5.044  1.00  0.00     0.128 HD
BRANCH  11  13
HETATM   13  C   UNL     1      40.300 -14.776   5.077  1.00  0.00     0.131 C 
BRANCH  13  14
HETATM   14  C   UNL     1      40.647 -14.760   3.607  1.00  0.00    -0.045 A 
HETATM   15  C   UNL     1      39.785 -15.344   2.668  1.00  0.00     0.011 A 
HETATM   16  C   UNL     1      40.084 -15.316   1.302  1.00  0.00     0.037 A 
HETATM   17  C   UNL     1      41.252 -14.699   0.854  1.00  0.00     0.068 A 
HETATM   18  C   UNL     1      42.126 -14.136   1.787  1.00  0.00     0.037 A 
HETATM   19  C   UNL     1      41.830 -14.164   3.152  1.00  0.00     0.011 A 
BRANCH  17  20
HETATM   20  O   UNL     1      41.655 -14.589  -0.447  1.00  0.00    -0.351 OA
BRANCH  20  21
HETATM   21  C   UNL     1      40.971 -15.397  -1.407  1.00  0.00     0.179 C 
BRANCH  21  22
HETATM   22  C   UNL     1      40.406 -14.487  -2.509  1.00  0.00     0.002 C 
HETATM   23  C   UNL     1      39.598 -15.288  -3.533  1.00  0.00     0.011 C 
HETATM   24  C   UNL     1      41.534 -13.726  -3.203  1.00  0.00     0.011 C 
ENDBRANCH  21  22
ENDBRANCH  20  21
ENDBRANCH  17  20
ENDBRANCH  13  14
ENDBRANCH  11  13
ENDBRANCH   1  11
BRANCH   8  25
HETATM   25  C   UNL     1      43.674 -19.528   2.548  1.00  0.00     0.270 C 
HETATM   26  N   UNL     1      43.946 -18.459   1.739  1.00  0.00    -0.365 N 
HETATM   27  H   UNL     1      44.246 -17.591   2.167  1.00  0.00     0.159 HD
HETATM   28  H   UNL     1      43.844 -18.547   0.740  1.00  0.00     0.159 HD
HETATM   29  O   UNL     1      43.304 -20.601   2.082  1.00  0.00    -0.266 OA
ENDBRANCH   8  25
TORSDOF 7
ENDMDL
