MODEL 1
REMARK VINA RESULT:      -7.4      0.000      0.000
REMARK  8 active torsions:
REMARK  status: ('A' for Active; 'I' for Inactive)
REMARK    1  A    between atoms: C_2  and  O_3 
REMARK    2  A    between atoms: O_3  and  C_4 
REMARK       I    between atoms: C_4  and  N_5 
REMARK    3  A    between atoms: C_8  and  N_9 
REMARK       I    between atoms: N_9  and  C_10 
REMARK    4  A    between atoms: C_10  and  C_11 
REMARK    5  A    between atoms: C_12  and  C_13 
REMARK    6  A    between atoms: N_18  and  C_19 
REMARK    7  A    between atoms: C_19  and  C_20 
REMARK    8  A    between atoms: C_20  and  O_21 
ROOT
HETATM    1  C   UNL     1      40.605 -13.456  -0.304  1.00  0.00     0.139 C 
HETATM    2  C   UNL     1      39.082 -13.484  -0.567  1.00  0.00     0.145 C 
HETATM    3  N   UNL     1      38.713 -13.252  -1.970  1.00  0.00    -0.335 N 
HETATM    4  C   UNL     1      39.476 -12.437  -2.806  1.00  0.00     0.255 C 
HETATM    5  O   UNL     1      39.170 -12.186  -3.969  1.00  0.00    -0.267 OA
HETATM    6  C   UNL     1      40.746 -11.878  -2.268  1.00  0.00     0.039 A 
HETATM    7  C   UNL     1      41.309 -12.377  -1.087  1.00  0.00    -0.027 A 
HETATM    8  C   UNL     1      41.406 -10.874  -2.989  1.00  0.00     0.017 A 
HETATM    9  C   UNL     1      42.624 -10.366  -2.537  1.00  0.00     0.001 A 
HETATM   10  C   UNL     1      43.193 -10.866  -1.368  1.00  0.00     0.001 A 
HETATM   11  C   UNL     1      42.542 -11.868  -0.646  1.00  0.00     0.009 A 
ENDROOT
BRANCH   1  12
HETATM   12  C   UNL     1      41.141 -14.861  -0.561  1.00  0.00     0.229 C 
HETATM   13  N   UNL     1      41.678 -15.453   0.574  1.00  0.00    -0.356 N 
HETATM   14  H   UNL     1      41.898 -14.864   1.368  1.00  0.00     0.162 HD
HETATM   15  O   UNL     1      41.058 -15.446  -1.635  1.00  0.00    -0.273 OA
BRANCH  13  16
HETATM   16  C   UNL     1      42.157 -16.832   0.579  1.00  0.00     0.087 C 
HETATM   17  C   UNL     1      43.580 -16.955   1.129  1.00  0.00     0.045 C 
HETATM   18  C   UNL     1      43.639 -16.741   2.637  1.00  0.00     0.130 C 
HETATM   19  N   UNL     1      42.657 -17.554   3.350  1.00  0.00    -0.328 N 
HETATM   20  C   UNL     1      42.863 -17.965   4.662  1.00  0.00     0.362 C 
HETATM   21  C   UNL     1      41.287 -17.514   2.863  1.00  0.00     0.130 C 
HETATM   22  O   UNL     1      41.978 -18.409   5.384  1.00  0.00    -0.238 OA
HETATM   23  C   UNL     1      41.201 -17.738   1.358  1.00  0.00     0.045 C 
BRANCH  20  24
HETATM   24  O   UNL     1      44.158 -17.829   5.055  1.00  0.00    -0.304 OA
BRANCH  24  25
HETATM   25  C   UNL     1      44.794 -19.014   5.554  1.00  0.00     0.176 C 
HETATM   26  C   UNL     1      44.887 -20.067   4.465  1.00  0.00     0.034 C 
ENDBRANCH  24  25
ENDBRANCH  20  24
ENDBRANCH  13  16
ENDBRANCH   1  12
BRANCH   2  27
HETATM   27  C   UNL     1      38.365 -12.495   0.339  1.00  0.00     0.006 A 
HETATM   28  S   UNL     1      39.054 -12.124   1.875  1.00  0.00    -0.104 SA
HETATM   29  C   UNL     1      37.805 -11.021   2.247  1.00  0.00     0.050 A 
HETATM   30  C   UNL     1      36.870 -10.941   1.240  1.00  0.00     0.008 A 
HETATM   31  C   UNL     1      37.192 -11.791   0.142  1.00  0.00     0.017 A 
ENDBRANCH   2  27
BRANCH   3  32
HETATM   32  C   UNL     1      37.655 -14.062  -2.594  1.00  0.00     0.153 C 
BRANCH  32  33
HETATM   33  C   UNL     1      38.093 -15.209  -3.512  1.00  0.00     0.187 C 
BRANCH  33  34
HETATM   34  O   UNL     1      37.287 -15.245  -4.688  1.00  0.00    -0.394 OA
HETATM   35  C   UNL     1      36.268 -14.255  -4.655  1.00  0.00     0.201 C 
ENDBRANCH  33  34
ENDBRANCH  32  33
ENDBRANCH   3  32
TORSDOF 8
ENDMDL
MODEL 2
REMARK VINA RESULT:      -7.2      2.245      4.609
REMARK  8 active torsions:
REMARK  status: ('A' for Active; 'I' for Inactive)
REMARK    1  A    between atoms: C_2  and  O_3 
REMARK    2  A    between atoms: O_3  and  C_4 
REMARK       I    between atoms: C_4  and  N_5 
REMARK    3  A    between atoms: C_8  and  N_9 
REMARK       I    between atoms: N_9  and  C_10 
REMARK    4  A    between atoms: C_10  and  C_11 
REMARK    5  A    between atoms: C_12  and  C_13 
REMARK    6  A    between atoms: N_18  and  C_19 
REMARK    7  A    between atoms: C_19  and  C_20 
REMARK    8  A    between atoms: C_20  and  O_21 
ROOT
HETATM    1  C   UNL     1      41.193 -13.769  -1.291  1.00  0.00     0.139 C 
HETATM    2  C   UNL     1      41.667 -13.019  -0.026  1.00  0.00     0.145 C 
HETATM    3  N   UNL     1      40.617 -12.830   0.985  1.00  0.00    -0.335 N 
HETATM    4  C   UNL     1      39.276 -12.676   0.634  1.00  0.00     0.255 C 
HETATM    5  O   UNL     1      38.383 -12.471   1.451  1.00  0.00    -0.267 OA
HETATM    6  C   UNL     1      38.911 -12.809  -0.802  1.00  0.00     0.039 A 
HETATM    7  C   UNL     1      39.809 -13.356  -1.726  1.00  0.00    -0.027 A 
HETATM    8  C   UNL     1      37.627 -12.427  -1.215  1.00  0.00     0.017 A 
HETATM    9  C   UNL     1      37.237 -12.587  -2.545  1.00  0.00     0.001 A 
HETATM   10  C   UNL     1      38.125 -13.140  -3.465  1.00  0.00     0.001 A 
HETATM   11  C   UNL     1      39.404 -13.526  -3.061  1.00  0.00     0.009 A 
ENDROOT
BRANCH   1  12
HETATM   12  C   UNL     1      41.339 -15.263  -1.020  1.00  0.00     0.229 C 
HETATM   13  N   UNL     1      42.082 -15.538   0.119  1.00  0.00    -0.356 N 
HETATM   14  H   UNL     1      42.651 -14.799   0.516  1.00  0.00     0.162 HD
HETATM   15  O   UNL     1      40.811 -16.142  -1.692  1.00  0.00    -0.273 OA
BRANCH  13  16
HETATM   16  C   UNL     1      42.264 -16.897   0.621  1.00  0.00     0.087 C 
HETATM   17  C   UNL     1      43.564 -17.060   1.412  1.00  0.00     0.045 C 
HETATM   18  C   UNL     1      43.505 -16.376   2.772  1.00  0.00     0.130 C 
HETATM   19  N   UNL     1      42.306 -16.740   3.523  1.00  0.00    -0.328 N 
HETATM   20  C   UNL     1      42.282 -16.725   4.914  1.00  0.00     0.362 C 
HETATM   21  C   UNL     1      41.033 -16.641   2.825  1.00  0.00     0.130 C 
HETATM   22  O   UNL     1      41.252 -16.758   5.577  1.00  0.00    -0.238 OA
HETATM   23  C   UNL     1      41.064 -17.330   1.466  1.00  0.00     0.045 C 
BRANCH  20  24
HETATM   24  O   UNL     1      43.528 -16.677   5.457  1.00  0.00    -0.304 OA
BRANCH  24  25
HETATM   25  C   UNL     1      43.621 -16.111   6.772  1.00  0.00     0.176 C 
HETATM   26  C   UNL     1      44.434 -14.829   6.744  1.00  0.00     0.034 C 
ENDBRANCH  24  25
ENDBRANCH  20  24
ENDBRANCH  13  16
ENDBRANCH   1  12
BRANCH   2  27
HETATM   27  C   UNL     1      42.290 -11.682  -0.399  1.00  0.00     0.006 A 
HETATM   28  S   UNL     1      41.773 -10.264   0.432  1.00  0.00    -0.104 SA
HETATM   29  C   UNL     1      42.855  -9.273  -0.442  1.00  0.00     0.050 A 
HETATM   30  C   UNL     1      43.585  -9.992  -1.360  1.00  0.00     0.008 A 
HETATM   31  C   UNL     1      43.260 -11.380  -1.336  1.00  0.00     0.017 A 
ENDBRANCH   2  27
BRANCH   3  32
HETATM   32  C   UNL     1      40.927 -13.031   2.410  1.00  0.00     0.153 C 
BRANCH  32  33
HETATM   33  C   UNL     1      42.406 -13.115   2.805  1.00  0.00     0.187 C 
BRANCH  33  34
HETATM   34  O   UNL     1      42.555 -12.981   4.217  1.00  0.00    -0.394 OA
HETATM   35  C   UNL     1      41.328 -13.205   4.897  1.00  0.00     0.201 C 
ENDBRANCH  33  34
ENDBRANCH  32  33
ENDBRANCH   3  32
TORSDOF 8
ENDMDL
MODEL 3
REMARK VINA RESULT:      -7.1      2.793      4.814
REMARK  8 active torsions:
REMARK  status: ('A' for Active; 'I' for Inactive)
REMARK    1  A    between atoms: C_2  and  O_3 
REMARK    2  A    between atoms: O_3  and  C_4 
REMARK       I    between atoms: C_4  and  N_5 
REMARK    3  A    between atoms: C_8  and  N_9 
REMARK       I    between atoms: N_9  and  C_10 
REMARK    4  A    between atoms: C_10  and  C_11 
REMARK    5  A    between atoms: C_12  and  C_13 
REMARK    6  A    between atoms: N_18  and  C_19 
REMARK    7  A    between atoms: C_19  and  C_20 
REMARK    8  A    between atoms: C_20  and  O_21 
ROOT
HETATM    1  C   UNL     1      41.205 -14.515  -1.302  1.00  0.00     0.139 C 
HETATM    2  C   UNL     1      41.123 -13.121  -0.641  1.00  0.00     0.145 C 
HETATM    3  N   UNL     1      39.763 -12.725  -0.249  1.00  0.00    -0.335 N 
HETATM    4  C   UNL     1      38.640 -13.145  -0.960  1.00  0.00     0.255 C 
HETATM    5  O   UNL     1      37.495 -12.795  -0.685  1.00  0.00    -0.267 OA
HETATM    6  C   UNL     1      38.843 -14.099  -2.084  1.00  0.00     0.039 A 
HETATM    7  C   UNL     1      40.055 -14.781  -2.241  1.00  0.00    -0.027 A 
HETATM    8  C   UNL     1      37.779 -14.352  -2.961  1.00  0.00     0.017 A 
HETATM    9  C   UNL     1      37.920 -15.279  -3.994  1.00  0.00     0.001 A 
HETATM   10  C   UNL     1      39.122 -15.966  -4.147  1.00  0.00     0.001 A 
HETATM   11  C   UNL     1      40.185 -15.722  -3.276  1.00  0.00     0.009 A 
ENDROOT
BRANCH   1  12
HETATM   12  C   UNL     1      41.347 -15.545  -0.186  1.00  0.00     0.229 C 
HETATM   13  N   UNL     1      41.300 -14.981   1.081  1.00  0.00    -0.356 N 
HETATM   14  H   UNL     1      41.428 -13.980   1.170  1.00  0.00     0.162 HD
HETATM   15  O   UNL     1      41.432 -16.754  -0.368  1.00  0.00    -0.273 OA
BRANCH  13  16
HETATM   16  C   UNL     1      41.316 -15.793   2.295  1.00  0.00     0.087 C 
HETATM   17  C   UNL     1      42.734 -16.047   2.810  1.00  0.00     0.045 C 
HETATM   18  C   UNL     1      43.360 -14.799   3.424  1.00  0.00     0.130 C 
HETATM   19  N   UNL     1      42.481 -14.162   4.401  1.00  0.00    -0.328 N 
HETATM   20  C   UNL     1      42.984 -13.406   5.454  1.00  0.00     0.362 C 
HETATM   21  C   UNL     1      41.105 -13.919   3.992  1.00  0.00     0.130 C 
HETATM   22  O   UNL     1      42.304 -12.644   6.131  1.00  0.00    -0.238 OA
HETATM   23  C   UNL     1      40.454 -15.157   3.387  1.00  0.00     0.045 C 
BRANCH  20  24
HETATM   24  O   UNL     1      44.313 -13.612   5.656  1.00  0.00    -0.304 OA
BRANCH  24  25
HETATM   25  C   UNL     1      44.678 -14.171   6.927  1.00  0.00     0.176 C 
HETATM   26  C   UNL     1      44.359 -15.654   6.968  1.00  0.00     0.034 C 
ENDBRANCH  24  25
ENDBRANCH  20  24
ENDBRANCH  13  16
ENDBRANCH   1  12
BRANCH   2  27
HETATM   27  C   UNL     1      41.743 -12.064  -1.542  1.00  0.00     0.006 A 
HETATM   28  S   UNL     1      42.774 -10.875  -0.841  1.00  0.00    -0.104 SA
HETATM   29  C   UNL     1      43.073 -10.142  -2.354  1.00  0.00     0.050 A 
HETATM   30  C   UNL     1      42.395 -10.769  -3.374  1.00  0.00     0.008 A 
HETATM   31  C   UNL     1      41.628 -11.876  -2.907  1.00  0.00     0.017 A 
ENDBRANCH   2  27
BRANCH   3  32
HETATM   32  C   UNL     1      39.538 -12.063   1.047  1.00  0.00     0.153 C 
BRANCH  32  33
HETATM   33  C   UNL     1      39.449 -10.532   1.050  1.00  0.00     0.187 C 
BRANCH  33  34
HETATM   34  O   UNL     1      40.513  -9.971   1.816  1.00  0.00    -0.394 OA
HETATM   35  C   UNL     1      40.427 -10.346   3.185  1.00  0.00     0.201 C 
ENDBRANCH  33  34
ENDBRANCH  32  33
ENDBRANCH   3  32
TORSDOF 8
ENDMDL
MODEL 4
REMARK VINA RESULT:      -7.1      2.195      4.236
REMARK  8 active torsions:
REMARK  status: ('A' for Active; 'I' for Inactive)
REMARK    1  A    between atoms: C_2  and  O_3 
REMARK    2  A    between atoms: O_3  and  C_4 
REMARK       I    between atoms: C_4  and  N_5 
REMARK    3  A    between atoms: C_8  and  N_9 
REMARK       I    between atoms: N_9  and  C_10 
REMARK    4  A    between atoms: C_10  and  C_11 
REMARK    5  A    between atoms: C_12  and  C_13 
REMARK    6  A    between atoms: N_18  and  C_19 
REMARK    7  A    between atoms: C_19  and  C_20 
REMARK    8  A    between atoms: C_20  and  O_21 
ROOT
HETATM    1  C   UNL     1      40.858 -13.763   0.128  1.00  0.00     0.139 C 
HETATM    2  C   UNL     1      40.550 -12.262   0.326  1.00  0.00     0.145 C 
HETATM    3  N   UNL     1      39.250 -11.842  -0.214  1.00  0.00    -0.335 N 
HETATM    4  C   UNL     1      38.687 -12.452  -1.335  1.00  0.00     0.255 C 
HETATM    5  O   UNL     1      37.624 -12.094  -1.837  1.00  0.00    -0.267 OA
HETATM    6  C   UNL     1      39.394 -13.621  -1.922  1.00  0.00     0.039 A 
HETATM    7  C   UNL     1      40.415 -14.273  -1.220  1.00  0.00    -0.027 A 
HETATM    8  C   UNL     1      38.989 -14.101  -3.175  1.00  0.00     0.017 A 
HETATM    9  C   UNL     1      39.598 -15.226  -3.731  1.00  0.00     0.001 A 
HETATM   10  C   UNL     1      40.608 -15.883  -3.031  1.00  0.00     0.001 A 
HETATM   11  C   UNL     1      41.014 -15.413  -1.781  1.00  0.00     0.009 A 
ENDROOT
BRANCH   1  12
HETATM   12  C   UNL     1      40.251 -14.516   1.307  1.00  0.00     0.229 C 
HETATM   13  N   UNL     1      41.183 -14.836   2.285  1.00  0.00    -0.356 N 
HETATM   14  H   UNL     1      42.167 -14.785   2.050  1.00  0.00     0.162 HD
HETATM   15  O   UNL     1      39.057 -14.766   1.427  1.00  0.00    -0.273 OA
BRANCH  13  16
HETATM   16  C   UNL     1      40.804 -15.468   3.545  1.00  0.00     0.087 C 
HETATM   17  C   UNL     1      40.592 -16.977   3.403  1.00  0.00     0.045 C 
HETATM   18  C   UNL     1      41.904 -17.731   3.215  1.00  0.00     0.130 C 
HETATM   19  N   UNL     1      42.900 -17.365   4.218  1.00  0.00    -0.328 N 
HETATM   20  C   UNL     1      43.901 -18.247   4.611  1.00  0.00     0.362 C 
HETATM   21  C   UNL     1      43.132 -15.944   4.433  1.00  0.00     0.130 C 
HETATM   22  O   UNL     1      44.901 -17.910   5.234  1.00  0.00    -0.238 OA
HETATM   23  C   UNL     1      41.834 -15.171   4.636  1.00  0.00     0.045 C 
BRANCH  20  24
HETATM   24  O   UNL     1      43.643 -19.529   4.235  1.00  0.00    -0.304 OA
BRANCH  24  25
HETATM   25  C   UNL     1      44.665 -20.177   3.463  1.00  0.00     0.176 C 
HETATM   26  C   UNL     1      44.064 -20.849   2.242  1.00  0.00     0.034 C 
ENDBRANCH  24  25
ENDBRANCH  20  24
ENDBRANCH  13  16
ENDBRANCH   1  12
BRANCH   2  27
HETATM   27  C   UNL     1      41.665 -11.406  -0.254  1.00  0.00     0.006 A 
HETATM   28  S   UNL     1      41.837  -9.781   0.292  1.00  0.00    -0.104 SA
HETATM   29  C   UNL     1      43.198  -9.516  -0.703  1.00  0.00     0.050 A 
HETATM   30  C   UNL     1      43.514 -10.626  -1.452  1.00  0.00     0.008 A 
HETATM   31  C   UNL     1      42.631 -11.715  -1.194  1.00  0.00     0.017 A 
ENDBRANCH   2  27
BRANCH   3  32
HETATM   32  C   UNL     1      38.399 -10.920   0.557  1.00  0.00     0.153 C 
BRANCH  32  33
HETATM   33  C   UNL     1      37.663 -11.492   1.775  1.00  0.00     0.187 C 
BRANCH  33  34
HETATM   34  O   UNL     1      38.190 -10.943   2.980  1.00  0.00    -0.394 OA
HETATM   35  C   UNL     1      38.980 -11.890   3.686  1.00  0.00     0.201 C 
ENDBRANCH  33  34
ENDBRANCH  32  33
ENDBRANCH   3  32
TORSDOF 8
ENDMDL
MODEL 5
REMARK VINA RESULT:      -6.9      4.822      9.112
REMARK  8 active torsions:
REMARK  status: ('A' for Active; 'I' for Inactive)
REMARK    1  A    between atoms: C_2  and  O_3 
REMARK    2  A    between atoms: O_3  and  C_4 
REMARK       I    between atoms: C_4  and  N_5 
REMARK    3  A    between atoms: C_8  and  N_9 
REMARK       I    between atoms: N_9  and  C_10 
REMARK    4  A    between atoms: C_10  and  C_11 
REMARK    5  A    between atoms: C_12  and  C_13 
REMARK    6  A    between atoms: N_18  and  C_19 
REMARK    7  A    between atoms: C_19  and  C_20 
REMARK    8  A    between atoms: C_20  and  O_21 
ROOT
HETATM    1  C   UNL     1      41.376 -16.168   4.731  1.00  0.00     0.139 C 
HETATM    2  C   UNL     1      42.781 -16.141   5.374  1.00  0.00     0.145 C 
HETATM    3  N   UNL     1      43.623 -15.023   4.926  1.00  0.00    -0.335 N 
HETATM    4  C   UNL     1      43.514 -14.489   3.643  1.00  0.00     0.255 C 
HETATM    5  O   UNL     1      44.234 -13.586   3.224  1.00  0.00    -0.267 OA
HETATM    6  C   UNL     1      42.443 -15.016   2.755  1.00  0.00     0.039 A 
HETATM    7  C   UNL     1      41.401 -15.797   3.270  1.00  0.00    -0.027 A 
HETATM    8  C   UNL     1      42.459 -14.676   1.396  1.00  0.00     0.017 A 
HETATM    9  C   UNL     1      41.441 -15.113   0.548  1.00  0.00     0.001 A 
HETATM   10  C   UNL     1      40.397 -15.882   1.057  1.00  0.00     0.001 A 
HETATM   11  C   UNL     1      40.373 -16.221   2.411  1.00  0.00     0.009 A 
ENDROOT
BRANCH   1  12
HETATM   12  C   UNL     1      40.466 -15.287   5.581  1.00  0.00     0.229 C 
HETATM   13  N   UNL     1      40.290 -14.017   5.050  1.00  0.00    -0.356 N 
HETATM   14  H   UNL     1      40.933 -13.699   4.334  1.00  0.00     0.162 HD
HETATM   15  O   UNL     1      39.890 -15.664   6.595  1.00  0.00    -0.273 OA
BRANCH  13  16
HETATM   16  C   UNL     1      39.380 -13.043   5.645  1.00  0.00     0.087 C 
HETATM   17  C   UNL     1      39.969 -12.376   6.890  1.00  0.00     0.045 C 
HETATM   18  C   UNL     1      41.081 -11.392   6.549  1.00  0.00     0.130 C 
HETATM   19  N   UNL     1      40.685 -10.450   5.504  1.00  0.00    -0.328 N 
HETATM   20  C   UNL     1      41.245  -9.180   5.414  1.00  0.00     0.362 C 
HETATM   21  C   UNL     1      40.086 -11.010   4.302  1.00  0.00     0.130 C 
HETATM   22  O   UNL     1      41.152  -8.464   4.425  1.00  0.00    -0.238 OA
HETATM   23  C   UNL     1      38.962 -11.989   4.618  1.00  0.00     0.045 C 
BRANCH  20  24
HETATM   24  O   UNL     1      41.900  -8.817   6.549  1.00  0.00    -0.304 OA
BRANCH  24  25
HETATM   25  C   UNL     1      41.267  -7.805   7.346  1.00  0.00     0.176 C 
HETATM   26  C   UNL     1      40.931  -8.344   8.725  1.00  0.00     0.034 C 
ENDBRANCH  24  25
ENDBRANCH  20  24
ENDBRANCH  13  16
ENDBRANCH   1  12
BRANCH   2  27
HETATM   27  C   UNL     1      43.496 -17.465   5.151  1.00  0.00     0.006 A 
HETATM   28  S   UNL     1      44.616 -18.015   6.340  1.00  0.00    -0.104 SA
HETATM   29  C   UNL     1      44.943 -19.448   5.470  1.00  0.00     0.050 A 
HETATM   30  C   UNL     1      44.234 -19.509   4.292  1.00  0.00     0.008 A 
HETATM   31  C   UNL     1      43.402 -18.367   4.107  1.00  0.00     0.017 A 
ENDBRANCH   2  27
BRANCH   3  32
HETATM   32  C   UNL     1      44.442 -14.286   5.902  1.00  0.00     0.153 C 
BRANCH  32  33
HETATM   33  C   UNL     1      43.780 -13.897   7.228  1.00  0.00     0.187 C 
BRANCH  33  34
HETATM   34  O   UNL     1      44.743 -13.868   8.280  1.00  0.00    -0.394 OA
HETATM   35  C   UNL     1      45.250 -12.558   8.490  1.00  0.00     0.201 C 
ENDBRANCH  33  34
ENDBRANCH  32  33
ENDBRANCH   3  32
TORSDOF 8
ENDMDL
MODEL 6
REMARK VINA RESULT:      -6.9      2.328      4.593
REMARK  8 active torsions:
REMARK  status: ('A' for Active; 'I' for Inactive)
REMARK    1  A    between atoms: C_2  and  O_3 
REMARK    2  A    between atoms: O_3  and  C_4 
REMARK       I    between atoms: C_4  and  N_5 
REMARK    3  A    between atoms: C_8  and  N_9 
REMARK       I    between atoms: N_9  and  C_10 
REMARK    4  A    between atoms: C_10  and  C_11 
REMARK    5  A    between atoms: C_12  and  C_13 
REMARK    6  A    between atoms: N_18  and  C_19 
REMARK    7  A    between atoms: C_19  and  C_20 
REMARK    8  A    between atoms: C_20  and  O_21 
ROOT
HETATM    1  C   UNL     1      39.208 -13.131  -0.107  1.00  0.00     0.139 C 
HETATM    2  C   UNL     1      40.079 -13.212  -1.382  1.00  0.00     0.145 C 
HETATM    3  N   UNL     1      40.275 -11.920  -2.054  1.00  0.00    -0.335 N 
HETATM    4  C   UNL     1      39.304 -10.919  -2.023  1.00  0.00     0.255 C 
HETATM    5  O   UNL     1      39.419  -9.847  -2.612  1.00  0.00    -0.267 OA
HETATM    6  C   UNL     1      38.087 -11.153  -1.200  1.00  0.00     0.039 A 
HETATM    7  C   UNL     1      38.041 -12.190  -0.261  1.00  0.00    -0.027 A 
HETATM    8  C   UNL     1      36.997 -10.282  -1.336  1.00  0.00     0.017 A 
HETATM    9  C   UNL     1      35.861 -10.443  -0.543  1.00  0.00     0.001 A 
HETATM   10  C   UNL     1      35.815 -11.468   0.399  1.00  0.00     0.001 A 
HETATM   11  C   UNL     1      36.898 -12.337   0.543  1.00  0.00     0.009 A 
ENDROOT
BRANCH   1  12
HETATM   12  C   UNL     1      40.132 -12.792   1.059  1.00  0.00     0.229 C 
HETATM   13  N   UNL     1      40.383 -13.878   1.886  1.00  0.00    -0.356 N 
HETATM   14  H   UNL     1      39.780 -14.688   1.816  1.00  0.00     0.162 HD
HETATM   15  O   UNL     1      40.656 -11.697   1.229  1.00  0.00    -0.273 OA
BRANCH  13  16
HETATM   16  C   UNL     1      41.319 -13.804   3.004  1.00  0.00     0.087 C 
HETATM   17  C   UNL     1      40.896 -14.687   4.180  1.00  0.00     0.045 C 
HETATM   18  C   UNL     1      41.088 -16.171   3.888  1.00  0.00     0.130 C 
HETATM   19  N   UNL     1      42.423 -16.466   3.375  1.00  0.00    -0.328 N 
HETATM   20  C   UNL     1      43.019 -17.709   3.561  1.00  0.00     0.362 C 
HETATM   21  C   UNL     1      42.907 -15.644   2.277  1.00  0.00     0.130 C 
HETATM   22  O   UNL     1      44.001 -18.093   2.937  1.00  0.00    -0.238 OA
HETATM   23  C   UNL     1      42.738 -14.154   2.552  1.00  0.00     0.045 C 
BRANCH  20  24
HETATM   24  O   UNL     1      42.397 -18.449   4.518  1.00  0.00    -0.304 OA
BRANCH  24  25
HETATM   25  C   UNL     1      43.218 -18.881   5.613  1.00  0.00     0.176 C 
HETATM   26  C   UNL     1      43.618 -17.700   6.478  1.00  0.00     0.034 C 
ENDBRANCH  24  25
ENDBRANCH  20  24
ENDBRANCH  13  16
ENDBRANCH   1  12
BRANCH   2  27
HETATM   27  C   UNL     1      39.510 -14.233  -2.354  1.00  0.00     0.006 A 
HETATM   28  S   UNL     1      40.547 -15.464  -2.968  1.00  0.00    -0.104 SA
HETATM   29  C   UNL     1      39.286 -16.170  -3.879  1.00  0.00     0.050 A 
HETATM   30  C   UNL     1      38.102 -15.482  -3.740  1.00  0.00     0.008 A 
HETATM   31  C   UNL     1      38.231 -14.366  -2.863  1.00  0.00     0.017 A 
ENDBRANCH   2  27
BRANCH   3  32
HETATM   32  C   UNL     1      41.602 -11.562  -2.581  1.00  0.00     0.153 C 
BRANCH  32  33
HETATM   33  C   UNL     1      42.823 -12.211  -1.918  1.00  0.00     0.187 C 
BRANCH  33  34
HETATM   34  O   UNL     1      43.340 -11.369  -0.889  1.00  0.00    -0.394 OA
HETATM   35  C   UNL     1      43.334 -10.002  -1.278  1.00  0.00     0.201 C 
ENDBRANCH  33  34
ENDBRANCH  32  33
ENDBRANCH   3  32
TORSDOF 8
ENDMDL
MODEL 7
REMARK VINA RESULT:      -6.5      2.285      3.913
REMARK  8 active torsions:
REMARK  status: ('A' for Active; 'I' for Inactive)
REMARK    1  A    between atoms: C_2  and  O_3 
REMARK    2  A    between atoms: O_3  and  C_4 
REMARK       I    between atoms: C_4  and  N_5 
REMARK    3  A    between atoms: C_8  and  N_9 
REMARK       I    between atoms: N_9  and  C_10 
REMARK    4  A    between atoms: C_10  and  C_11 
REMARK    5  A    between atoms: C_12  and  C_13 
REMARK    6  A    between atoms: N_18  and  C_19 
REMARK    7  A    between atoms: C_19  and  C_20 
REMARK    8  A    between atoms: C_20  and  O_21 
ROOT
HETATM    1  C   UNL     1      40.227 -14.193  -0.349  1.00  0.00     0.139 C 
HETATM    2  C   UNL     1      40.555 -13.330  -1.588  1.00  0.00     0.145 C 
HETATM    3  N   UNL     1      41.705 -12.433  -1.404  1.00  0.00    -0.335 N 
HETATM    4  C   UNL     1      42.019 -11.885  -0.161  1.00  0.00     0.255 C 
HETATM    5  O   UNL     1      42.945 -11.097   0.016  1.00  0.00    -0.267 OA
HETATM    6  C   UNL     1      41.213 -12.312   1.015  1.00  0.00     0.039 A 
HETATM    7  C   UNL     1      40.374 -13.431   0.944  1.00  0.00    -0.027 A 
HETATM    8  C   UNL     1      41.343 -11.610   2.220  1.00  0.00     0.017 A 
HETATM    9  C   UNL     1      40.640 -12.017   3.354  1.00  0.00     0.001 A 
HETATM   10  C   UNL     1      39.812 -13.135   3.291  1.00  0.00     0.001 A 
HETATM   11  C   UNL     1      39.679 -13.841   2.094  1.00  0.00     0.009 A 
ENDROOT
BRANCH   1  12
HETATM   12  C   UNL     1      41.082 -15.454  -0.428  1.00  0.00     0.229 C 
HETATM   13  N   UNL     1      41.785 -15.707   0.742  1.00  0.00    -0.356 N 
HETATM   14  H   UNL     1      41.880 -14.960   1.420  1.00  0.00     0.162 HD
HETATM   15  O   UNL     1      41.110 -16.210  -1.392  1.00  0.00    -0.273 OA
BRANCH  13  16
HETATM   16  C   UNL     1      42.586 -16.913   0.922  1.00  0.00     0.087 C 
HETATM   17  C   UNL     1      43.911 -16.635   1.636  1.00  0.00     0.045 C 
HETATM   18  C   UNL     1      43.718 -16.328   3.117  1.00  0.00     0.130 C 
HETATM   19  N   UNL     1      42.885 -17.325   3.784  1.00  0.00    -0.328 N 
HETATM   20  C   UNL     1      43.013 -17.594   5.142  1.00  0.00     0.362 C 
HETATM   21  C   UNL     1      41.623 -17.666   3.145  1.00  0.00     0.130 C 
HETATM   22  O   UNL     1      42.180 -18.210   5.796  1.00  0.00    -0.238 OA
HETATM   23  C   UNL     1      41.792 -17.989   1.665  1.00  0.00     0.045 C 
BRANCH  20  24
HETATM   24  O   UNL     1      44.170 -17.107   5.664  1.00  0.00    -0.304 OA
BRANCH  24  25
HETATM   25  C   UNL     1      44.060 -16.439   6.929  1.00  0.00     0.176 C 
HETATM   26  C   UNL     1      44.053 -14.933   6.738  1.00  0.00     0.034 C 
ENDBRANCH  24  25
ENDBRANCH  20  24
ENDBRANCH  13  16
ENDBRANCH   1  12
BRANCH   2  27
HETATM   27  C   UNL     1      39.333 -12.540  -2.028  1.00  0.00     0.006 A 
HETATM   28  S   UNL     1      38.037 -13.374  -2.800  1.00  0.00    -0.104 SA
HETATM   29  C   UNL     1      37.112 -11.946  -2.946  1.00  0.00     0.050 A 
HETATM   30  C   UNL     1      37.770 -10.850  -2.436  1.00  0.00     0.008 A 
HETATM   31  C   UNL     1      39.050 -11.191  -1.909  1.00  0.00     0.017 A 
ENDBRANCH   2  27
BRANCH   3  32
HETATM   32  C   UNL     1      42.692 -12.276  -2.484  1.00  0.00     0.153 C 
BRANCH  32  33
HETATM   33  C   UNL     1      42.402 -11.219  -3.556  1.00  0.00     0.187 C 
BRANCH  33  34
HETATM   34  O   UNL     1      42.983  -9.968  -3.195  1.00  0.00    -0.394 OA
HETATM   35  C   UNL     1      42.058  -8.899  -3.342  1.00  0.00     0.201 C 
ENDBRANCH  33  34
ENDBRANCH  32  33
ENDBRANCH   3  32
TORSDOF 8
ENDMDL
MODEL 8
REMARK VINA RESULT:      -6.5      6.150      9.590
REMARK  8 active torsions:
REMARK  status: ('A' for Active; 'I' for Inactive)
REMARK    1  A    between atoms: C_2  and  O_3 
REMARK    2  A    between atoms: O_3  and  C_4 
REMARK       I    between atoms: C_4  and  N_5 
REMARK    3  A    between atoms: C_8  and  N_9 
REMARK       I    between atoms: N_9  and  C_10 
REMARK    4  A    between atoms: C_10  and  C_11 
REMARK    5  A    between atoms: C_12  and  C_13 
REMARK    6  A    between atoms: N_18  and  C_19 
REMARK    7  A    between atoms: C_19  and  C_20 
REMARK    8  A    between atoms: C_20  and  O_21 
ROOT
HETATM    1  C   UNL     1      40.841 -14.783   5.304  1.00  0.00     0.139 C 
HETATM    2  C   UNL     1      42.137 -14.749   6.146  1.00  0.00     0.145 C 
HETATM    3  N   UNL     1      43.272 -14.105   5.470  1.00  0.00    -0.335 N 
HETATM    4  C   UNL     1      43.429 -14.156   4.085  1.00  0.00     0.255 C 
HETATM    5  O   UNL     1      44.390 -13.668   3.495  1.00  0.00    -0.267 OA
HETATM    6  C   UNL     1      42.353 -14.800   3.284  1.00  0.00     0.039 A 
HETATM    7  C   UNL     1      41.103 -15.079   3.849  1.00  0.00    -0.027 A 
HETATM    8  C   UNL     1      42.588 -15.079   1.931  1.00  0.00     0.017 A 
HETATM    9  C   UNL     1      41.583 -15.636   1.140  1.00  0.00     0.001 A 
HETATM   10  C   UNL     1      40.335 -15.906   1.696  1.00  0.00     0.001 A 
HETATM   11  C   UNL     1      40.092 -15.628   3.042  1.00  0.00     0.009 A 
ENDROOT
BRANCH   1  12
HETATM   12  C   UNL     1      40.100 -13.472   5.548  1.00  0.00     0.229 C 
HETATM   13  N   UNL     1      40.682 -12.697   6.542  1.00  0.00    -0.356 N 
HETATM   14  H   UNL     1      41.349 -13.134   7.167  1.00  0.00     0.162 HD
HETATM   15  O   UNL     1      39.128 -13.097   4.902  1.00  0.00    -0.273 OA
BRANCH  13  16
HETATM   16  C   UNL     1      40.196 -11.360   6.870  1.00  0.00     0.087 C 
HETATM   17  C   UNL     1      39.338 -11.344   8.137  1.00  0.00     0.045 C 
HETATM   18  C   UNL     1      40.166 -11.546   9.401  1.00  0.00     0.130 C 
HETATM   19  N   UNL     1      41.319 -10.651   9.456  1.00  0.00    -0.328 N 
HETATM   20  C   UNL     1      41.872 -10.244  10.665  1.00  0.00     0.362 C 
HETATM   21  C   UNL     1      42.165 -10.589   8.273  1.00  0.00     0.130 C 
HETATM   22  O   UNL     1      42.977  -9.724  10.768  1.00  0.00    -0.238 OA
HETATM   23  C   UNL     1      41.359 -10.374   6.997  1.00  0.00     0.045 C 
BRANCH  20  24
HETATM   24  O   UNL     1      41.047 -10.478  11.721  1.00  0.00    -0.304 OA
BRANCH  24  25
HETATM   25  C   UNL     1      41.230  -9.630  12.864  1.00  0.00     0.176 C 
HETATM   26  C   UNL     1      41.751 -10.432  14.043  1.00  0.00     0.034 C 
ENDBRANCH  24  25
ENDBRANCH  20  24
ENDBRANCH  13  16
ENDBRANCH   1  12
BRANCH   2  27
HETATM   27  C   UNL     1      42.517 -16.149   6.600  1.00  0.00     0.006 A 
HETATM   28  S   UNL     1      42.023 -17.496   5.645  1.00  0.00    -0.104 SA
HETATM   29  C   UNL     1      42.786 -18.608   6.693  1.00  0.00     0.050 A 
HETATM   30  C   UNL     1      43.391 -17.981   7.758  1.00  0.00     0.008 A 
HETATM   31  C   UNL     1      43.236 -16.566   7.706  1.00  0.00     0.017 A 
ENDBRANCH   2  27
BRANCH   3  32
HETATM   32  C   UNL     1      44.149 -13.191   6.219  1.00  0.00     0.153 C 
BRANCH  32  33
HETATM   33  C   UNL     1      45.223 -13.819   7.115  1.00  0.00     0.187 C 
BRANCH  33  34
HETATM   34  O   UNL     1      44.987 -13.494   8.483  1.00  0.00    -0.394 OA
HETATM   35  C   UNL     1      45.618 -12.274   8.848  1.00  0.00     0.201 C 
ENDBRANCH  33  34
ENDBRANCH  32  33
ENDBRANCH   3  32
TORSDOF 8
ENDMDL
MODEL 9
REMARK VINA RESULT:      -6.4      2.696      4.507
REMARK  8 active torsions:
REMARK  status: ('A' for Active; 'I' for Inactive)
REMARK    1  A    between atoms: C_2  and  O_3 
REMARK    2  A    between atoms: O_3  and  C_4 
REMARK       I    between atoms: C_4  and  N_5 
REMARK    3  A    between atoms: C_8  and  N_9 
REMARK       I    between atoms: N_9  and  C_10 
REMARK    4  A    between atoms: C_10  and  C_11 
REMARK    5  A    between atoms: C_12  and  C_13 
REMARK    6  A    between atoms: N_18  and  C_19 
REMARK    7  A    between atoms: C_19  and  C_20 
REMARK    8  A    between atoms: C_20  and  O_21 
ROOT
HETATM    1  C   UNL     1      40.547 -13.570  -0.321  1.00  0.00     0.139 C 
HETATM    2  C   UNL     1      40.181 -12.071  -0.405  1.00  0.00     0.145 C 
HETATM    3  N   UNL     1      38.887 -11.807  -1.047  1.00  0.00    -0.335 N 
HETATM    4  C   UNL     1      38.384 -12.629  -2.055  1.00  0.00     0.255 C 
HETATM    5  O   UNL     1      37.327 -12.410  -2.642  1.00  0.00    -0.267 OA
HETATM    6  C   UNL     1      39.151 -13.856  -2.403  1.00  0.00     0.039 A 
HETATM    7  C   UNL     1      40.168 -14.330  -1.567  1.00  0.00    -0.027 A 
HETATM    8  C   UNL     1      38.805 -14.568  -3.559  1.00  0.00     0.017 A 
HETATM    9  C   UNL     1      39.471 -15.750  -3.886  1.00  0.00     0.001 A 
HETATM   10  C   UNL     1      40.478 -16.230  -3.052  1.00  0.00     0.001 A 
HETATM   11  C   UNL     1      40.825 -15.527  -1.897  1.00  0.00     0.009 A 
ENDROOT
BRANCH   1  12
HETATM   12  C   UNL     1      39.926 -14.123   0.958  1.00  0.00     0.229 C 
HETATM   13  N   UNL     1      40.620 -13.753   2.102  1.00  0.00    -0.356 N 
HETATM   14  H   UNL     1      41.560 -13.390   2.001  1.00  0.00     0.162 HD
HETATM   15  O   UNL     1      38.889 -14.775   0.996  1.00  0.00    -0.273 OA
BRANCH  13  16
HETATM   16  C   UNL     1      40.146 -14.088   3.441  1.00  0.00     0.087 C 
HETATM   17  C   UNL     1      40.596 -15.479   3.891  1.00  0.00     0.045 C 
HETATM   18  C   UNL     1      42.085 -15.530   4.213  1.00  0.00     0.130 C 
HETATM   19  N   UNL     1      42.493 -14.456   5.115  1.00  0.00    -0.328 N 
HETATM   20  C   UNL     1      43.583 -14.592   5.969  1.00  0.00     0.362 C 
HETATM   21  C   UNL     1      42.072 -13.106   4.769  1.00  0.00     0.130 C 
HETATM   22  O   UNL     1      44.123 -13.651   6.538  1.00  0.00    -0.238 OA
HETATM   23  C   UNL     1      40.583 -13.028   4.455  1.00  0.00     0.045 C 
BRANCH  20  24
HETATM   24  O   UNL     1      43.977 -15.886   6.109  1.00  0.00    -0.304 OA
BRANCH  24  25
HETATM   25  C   UNL     1      43.810 -16.458   7.414  1.00  0.00     0.176 C 
HETATM   26  C   UNL     1      42.846 -17.630   7.362  1.00  0.00     0.034 C 
ENDBRANCH  24  25
ENDBRANCH  20  24
ENDBRANCH  13  16
ENDBRANCH   1  12
BRANCH   2  27
HETATM   27  C   UNL     1      41.286 -11.289  -1.099  1.00  0.00     0.006 A 
HETATM   28  S   UNL     1      42.470 -10.489  -0.136  1.00  0.00    -0.104 SA
HETATM   29  C   UNL     1      43.305  -9.919  -1.512  1.00  0.00     0.050 A 
HETATM   30  C   UNL     1      42.696 -10.308  -2.683  1.00  0.00     0.008 A 
HETATM   31  C   UNL     1      41.533 -11.096  -2.446  1.00  0.00     0.017 A 
ENDBRANCH   2  27
BRANCH   3  32
HETATM   32  C   UNL     1      37.979 -10.797  -0.479  1.00  0.00     0.153 C 
BRANCH  32  33
HETATM   33  C   UNL     1      37.062 -11.238   0.668  1.00  0.00     0.187 C 
BRANCH  33  34
HETATM   34  O   UNL     1      37.097 -10.287   1.730  1.00  0.00    -0.394 OA
HETATM   35  C   UNL     1      38.361  -9.644   1.817  1.00  0.00     0.201 C 
ENDBRANCH  33  34
ENDBRANCH  32  33
ENDBRANCH   3  32
TORSDOF 8
ENDMDL
MODEL 10
REMARK VINA RESULT:      -6.3      1.895      2.473
REMARK  8 active torsions:
REMARK  status: ('A' for Active; 'I' for Inactive)
REMARK    1  A    between atoms: C_2  and  O_3 
REMARK    2  A    between atoms: O_3  and  C_4 
REMARK       I    between atoms: C_4  and  N_5 
REMARK    3  A    between atoms: C_8  and  N_9 
REMARK       I    between atoms: N_9  and  C_10 
REMARK    4  A    between atoms: C_10  and  C_11 
REMARK    5  A    between atoms: C_12  and  C_13 
REMARK    6  A    between atoms: N_18  and  C_19 
REMARK    7  A    between atoms: C_19  and  C_20 
REMARK    8  A    between atoms: C_20  and  O_21 
ROOT
HETATM    1  C   UNL     1      41.432 -12.607   0.187  1.00  0.00     0.139 C 
HETATM    2  C   UNL     1      40.022 -12.435   0.793  1.00  0.00     0.145 C 
HETATM    3  N   UNL     1      38.976 -12.144  -0.198  1.00  0.00    -0.335 N 
HETATM    4  C   UNL     1      39.246 -11.427  -1.363  1.00  0.00     0.255 C 
HETATM    5  O   UNL     1      38.386 -11.129  -2.188  1.00  0.00    -0.267 OA
HETATM    6  C   UNL     1      40.658 -11.043  -1.635  1.00  0.00     0.039 A 
HETATM    7  C   UNL     1      41.712 -11.622  -0.920  1.00  0.00    -0.027 A 
HETATM    8  C   UNL     1      40.927 -10.127  -2.662  1.00  0.00     0.017 A 
HETATM    9  C   UNL     1      42.242  -9.785  -2.976  1.00  0.00     0.001 A 
HETATM   10  C   UNL     1      43.295 -10.366  -2.272  1.00  0.00     0.001 A 
HETATM   11  C   UNL     1      43.035 -11.281  -1.251  1.00  0.00     0.009 A 
ENDROOT
BRANCH   1  12
HETATM   12  C   UNL     1      41.578 -14.067  -0.230  1.00  0.00     0.229 C 
HETATM   13  N   UNL     1      41.976 -14.892   0.812  1.00  0.00    -0.356 N 
HETATM   14  H   UNL     1      42.365 -14.465   1.645  1.00  0.00     0.162 HD
HETATM   15  O   UNL     1      41.314 -14.496  -1.348  1.00  0.00    -0.273 OA
BRANCH  13  16
HETATM   16  C   UNL     1      42.081 -16.340   0.663  1.00  0.00     0.087 C 
HETATM   17  C   UNL     1      43.432 -16.882   1.135  1.00  0.00     0.045 C 
HETATM   18  C   UNL     1      43.570 -16.851   2.652  1.00  0.00     0.130 C 
HETATM   19  N   UNL     1      42.422 -17.456   3.325  1.00  0.00    -0.328 N 
HETATM   20  C   UNL     1      42.536 -18.042   4.581  1.00  0.00     0.362 C 
HETATM   21  C   UNL     1      41.101 -17.013   2.904  1.00  0.00     0.130 C 
HETATM   22  O   UNL     1      41.578 -18.317   5.293  1.00  0.00    -0.238 OA
HETATM   23  C   UNL     1      40.935 -17.048   1.389  1.00  0.00     0.045 C 
BRANCH  20  24
HETATM   24  O   UNL     1      43.828 -18.284   4.928  1.00  0.00    -0.304 OA
BRANCH  24  25
HETATM   25  C   UNL     1      44.299 -17.620   6.110  1.00  0.00     0.176 C 
HETATM   26  C   UNL     1      44.509 -18.619   7.234  1.00  0.00     0.034 C 
ENDBRANCH  24  25
ENDBRANCH  20  24
ENDBRANCH  13  16
ENDBRANCH   1  12
BRANCH   2  27
HETATM   27  C   UNL     1      40.033 -11.369   1.879  1.00  0.00     0.006 A 
HETATM   28  S   UNL     1      39.245 -11.699   3.376  1.00  0.00    -0.104 SA
HETATM   29  C   UNL     1      39.685 -10.181   4.021  1.00  0.00     0.050 A 
HETATM   30  C   UNL     1      40.401  -9.425   3.122  1.00  0.00     0.008 A 
HETATM   31  C   UNL     1      40.601 -10.108   1.887  1.00  0.00     0.017 A 
ENDBRANCH   2  27
BRANCH   3  32
HETATM   32  C   UNL     1      37.665 -12.805  -0.095  1.00  0.00     0.153 C 
BRANCH  32  33
HETATM   33  C   UNL     1      36.566 -12.073   0.684  1.00  0.00     0.187 C 
BRANCH  33  34
HETATM   34  O   UNL     1      35.691 -11.387  -0.208  1.00  0.00    -0.394 OA
HETATM   35  C   UNL     1      34.548 -10.878   0.465  1.00  0.00     0.201 C 
ENDBRANCH  33  34
ENDBRANCH  32  33
ENDBRANCH   3  32
TORSDOF 8
ENDMDL
