MODEL 1
REMARK VINA RESULT:      -7.4      0.000      0.000
REMARK  5 active torsions:
REMARK  status: ('A' for Active; 'I' for Inactive)
REMARK    1  A    between atoms: C_2  and  O_3 
REMARK    2  A    between atoms: O_3  and  C_4 
REMARK    3  A    between atoms: C_8  and  C_9 
REMARK    4  A    between atoms: C_9  and  N_10 
REMARK       I    between atoms: N_10  and  C_11 
REMARK    5  A    between atoms: C_11  and  C_12 
ROOT
HETATM    1  C   UNL     1      43.072 -17.543   6.816  1.00  0.00     0.161 C 
ENDROOT
BRANCH   1   2
HETATM    2  C   UNL     1      42.688 -16.282   6.096  1.00  0.00    -0.035 A 
HETATM    3  C   UNL     1      43.392 -15.096   6.318  1.00  0.00     0.028 A 
HETATM    4  C   UNL     1      42.985 -13.950   5.656  1.00  0.00     0.120 A 
HETATM    5  N   UNL     1      41.936 -13.903   4.809  1.00  0.00    -0.237 NA
HETATM    6  C   UNL     1      41.264 -15.052   4.608  1.00  0.00     0.165 A 
HETATM    7  C   UNL     1      41.601 -16.252   5.218  1.00  0.00     0.066 A 
BRANCH   6   8
HETATM    8  O   UNL     1      40.198 -15.101   3.741  1.00  0.00    -0.324 OA
BRANCH   8   9
HETATM    9  C   UNL     1      40.402 -15.473   2.365  1.00  0.00     0.058 C 
HETATM   10  C   UNL     1      40.222 -16.978   2.116  1.00  0.00     0.045 C 
HETATM   11  C   UNL     1      41.732 -14.944   1.808  1.00  0.00     0.045 C 
HETATM   12  C   UNL     1      39.265 -14.746   1.620  1.00  0.00     0.045 C 
ENDBRANCH   8   9
ENDBRANCH   6   8
ENDBRANCH   1   2
BRANCH   1  13
HETATM   13  N   UNL     1      43.187 -18.641   5.887  1.00  0.00    -0.353 N 
HETATM   14  C   UNL     1      44.407 -19.006   5.371  1.00  0.00     0.253 C 
HETATM   15  O   UNL     1      45.471 -18.532   5.753  1.00  0.00    -0.268 OA
HETATM   16  H   UNL     1      42.342 -18.985   5.450  1.00  0.00     0.163 HD
BRANCH  14  17
HETATM   17  C   UNL     1      44.403 -20.086   4.351  1.00  0.00     0.049 A 
HETATM   18  C   UNL     1      44.134 -19.898   2.989  1.00  0.00     0.026 A 
HETATM   19 BR   UNL     1      43.807 -18.197   2.206  1.00  0.00    -0.050 Br
HETATM   20  C   UNL     1      44.148 -20.996   2.119  1.00  0.00     0.020 A 
HETATM   21  C   UNL     1      44.436 -22.276   2.598  1.00  0.00     0.001 A 
HETATM   22  C   UNL     1      44.722 -22.465   3.947  1.00  0.00     0.001 A 
HETATM   23  C   UNL     1      44.710 -21.375   4.818  1.00  0.00     0.018 A 
ENDBRANCH  14  17
ENDBRANCH   1  13
TORSDOF 5
ENDMDL
MODEL 2
REMARK VINA RESULT:      -7.4      1.220      1.678
REMARK  5 active torsions:
REMARK  status: ('A' for Active; 'I' for Inactive)
REMARK    1  A    between atoms: C_2  and  O_3 
REMARK    2  A    between atoms: O_3  and  C_4 
REMARK    3  A    between atoms: C_8  and  C_9 
REMARK    4  A    between atoms: C_9  and  N_10 
REMARK       I    between atoms: N_10  and  C_11 
REMARK    5  A    between atoms: C_11  and  C_12 
ROOT
HETATM    1  C   UNL     1      42.618 -17.138   6.165  1.00  0.00     0.161 C 
ENDROOT
BRANCH   1   2
HETATM    2  C   UNL     1      41.688 -16.280   5.356  1.00  0.00    -0.035 A 
HETATM    3  C   UNL     1      41.026 -15.201   5.945  1.00  0.00     0.028 A 
HETATM    4  C   UNL     1      40.155 -14.455   5.170  1.00  0.00     0.120 A 
HETATM    5  N   UNL     1      39.894 -14.713   3.871  1.00  0.00    -0.237 NA
HETATM    6  C   UNL     1      40.535 -15.759   3.318  1.00  0.00     0.165 A 
HETATM    7  C   UNL     1      41.433 -16.559   4.010  1.00  0.00     0.066 A 
BRANCH   6   8
HETATM    8  O   UNL     1      40.349 -16.078   1.994  1.00  0.00    -0.324 OA
BRANCH   8   9
HETATM    9  C   UNL     1      40.922 -15.250   0.964  1.00  0.00     0.058 C 
HETATM   10  C   UNL     1      42.121 -14.424   1.454  1.00  0.00     0.045 C 
HETATM   11  C   UNL     1      39.868 -14.387   0.254  1.00  0.00     0.045 C 
HETATM   12  C   UNL     1      41.456 -16.268  -0.064  1.00  0.00     0.045 C 
ENDBRANCH   8   9
ENDBRANCH   6   8
ENDBRANCH   1   2
BRANCH   1  13
HETATM   13  N   UNL     1      42.878 -18.384   5.484  1.00  0.00    -0.353 N 
HETATM   14  C   UNL     1      44.164 -18.833   5.296  1.00  0.00     0.253 C 
HETATM   15  O   UNL     1      45.146 -18.297   5.795  1.00  0.00    -0.268 OA
HETATM   16  H   UNL     1      42.126 -18.802   4.952  1.00  0.00     0.163 HD
BRANCH  14  17
HETATM   17  C   UNL     1      44.325 -20.077   4.500  1.00  0.00     0.049 A 
HETATM   18  C   UNL     1      44.196 -20.157   3.107  1.00  0.00     0.026 A 
HETATM   19 BR   UNL     1      43.868 -18.654   1.992  1.00  0.00    -0.050 Br
HETATM   20  C   UNL     1      44.359 -21.391   2.463  1.00  0.00     0.020 A 
HETATM   21  C   UNL     1      44.659 -22.539   3.198  1.00  0.00     0.001 A 
HETATM   22  C   UNL     1      44.807 -22.461   4.581  1.00  0.00     0.001 A 
HETATM   23  C   UNL     1      44.645 -21.235   5.227  1.00  0.00     0.018 A 
ENDBRANCH  14  17
ENDBRANCH   1  13
TORSDOF 5
ENDMDL
MODEL 3
REMARK VINA RESULT:      -7.3      1.937      3.798
REMARK  5 active torsions:
REMARK  status: ('A' for Active; 'I' for Inactive)
REMARK    1  A    between atoms: C_2  and  O_3 
REMARK    2  A    between atoms: O_3  and  C_4 
REMARK    3  A    between atoms: C_8  and  C_9 
REMARK    4  A    between atoms: C_9  and  N_10 
REMARK       I    between atoms: N_10  and  C_11 
REMARK    5  A    between atoms: C_11  and  C_12 
ROOT
HETATM    1  C   UNL     1      41.530 -17.361   1.105  1.00  0.00     0.161 C 
ENDROOT
BRANCH   1   2
HETATM    2  C   UNL     1      40.984 -16.326   2.046  1.00  0.00    -0.035 A 
HETATM    3  C   UNL     1      39.879 -15.551   1.685  1.00  0.00     0.028 A 
HETATM    4  C   UNL     1      39.428 -14.587   2.570  1.00  0.00     0.120 A 
HETATM    5  N   UNL     1      39.999 -14.339   3.767  1.00  0.00    -0.237 NA
HETATM    6  C   UNL     1      41.066 -15.089   4.100  1.00  0.00     0.165 A 
HETATM    7  C   UNL     1      41.586 -16.084   3.285  1.00  0.00     0.066 A 
BRANCH   6   8
HETATM    8  O   UNL     1      41.693 -14.921   5.312  1.00  0.00    -0.324 OA
BRANCH   8   9
HETATM    9  C   UNL     1      42.701 -13.904   5.468  1.00  0.00     0.058 C 
HETATM   10  C   UNL     1      42.156 -12.608   6.089  1.00  0.00     0.045 C 
HETATM   11  C   UNL     1      43.478 -13.647   4.169  1.00  0.00     0.045 C 
HETATM   12  C   UNL     1      43.684 -14.520   6.483  1.00  0.00     0.045 C 
ENDBRANCH   8   9
ENDBRANCH   6   8
ENDBRANCH   1   2
BRANCH   1  13
HETATM   13  N   UNL     1      42.100 -18.464   1.842  1.00  0.00    -0.353 N 
HETATM   14  C   UNL     1      43.462 -18.632   1.923  1.00  0.00     0.253 C 
HETATM   15  O   UNL     1      44.270 -17.811   1.504  1.00  0.00    -0.268 OA
HETATM   16  H   UNL     1      41.491 -19.229   2.101  1.00  0.00     0.163 HD
BRANCH  14  17
HETATM   17  C   UNL     1      43.942 -19.851   2.623  1.00  0.00     0.049 A 
HETATM   18  C   UNL     1      44.366 -19.892   3.958  1.00  0.00     0.026 A 
HETATM   19 BR   UNL     1      44.320 -18.392   5.123  1.00  0.00    -0.050 Br
HETATM   20  C   UNL     1      44.809 -21.101   4.510  1.00  0.00     0.020 A 
HETATM   21  C   UNL     1      44.822 -22.268   3.743  1.00  0.00     0.001 A 
HETATM   22  C   UNL     1      44.384 -22.236   2.421  1.00  0.00     0.001 A 
HETATM   23  C   UNL     1      43.941 -21.035   1.866  1.00  0.00     0.018 A 
ENDBRANCH  14  17
ENDBRANCH   1  13
TORSDOF 5
ENDMDL
MODEL 4
REMARK VINA RESULT:      -6.9      2.912      4.188
REMARK  5 active torsions:
REMARK  status: ('A' for Active; 'I' for Inactive)
REMARK    1  A    between atoms: C_2  and  O_3 
REMARK    2  A    between atoms: O_3  and  C_4 
REMARK    3  A    between atoms: C_8  and  C_9 
REMARK    4  A    between atoms: C_9  and  N_10 
REMARK       I    between atoms: N_10  and  C_11 
REMARK    5  A    between atoms: C_11  and  C_12 
ROOT
HETATM    1  C   UNL     1      42.217 -15.083   3.351  1.00  0.00     0.161 C 
ENDROOT
BRANCH   1   2
HETATM    2  C   UNL     1      41.141 -14.774   2.350  1.00  0.00    -0.035 A 
HETATM    3  C   UNL     1      39.803 -15.054   2.638  1.00  0.00     0.028 A 
HETATM    4  C   UNL     1      38.847 -14.781   1.674  1.00  0.00     0.120 A 
HETATM    5  N   UNL     1      39.130 -14.266   0.459  1.00  0.00    -0.237 NA
HETATM    6  C   UNL     1      40.424 -14.006   0.194  1.00  0.00     0.165 A 
HETATM    7  C   UNL     1      41.451 -14.236   1.098  1.00  0.00     0.066 A 
BRANCH   6   8
HETATM    8  O   UNL     1      40.799 -13.456  -1.009  1.00  0.00    -0.324 OA
BRANCH   8   9
HETATM    9  C   UNL     1      40.666 -14.219  -2.224  1.00  0.00     0.058 C 
HETATM   10  C   UNL     1      39.315 -14.005  -2.924  1.00  0.00     0.045 C 
HETATM   11  C   UNL     1      40.988 -15.706  -2.018  1.00  0.00     0.045 C 
HETATM   12  C   UNL     1      41.756 -13.631  -3.142  1.00  0.00     0.045 C 
ENDBRANCH   8   9
ENDBRANCH   6   8
ENDBRANCH   1   2
BRANCH   1  13
HETATM   13  N   UNL     1      42.840 -16.350   3.050  1.00  0.00    -0.353 N 
HETATM   14  C   UNL     1      42.484 -17.492   3.727  1.00  0.00     0.253 C 
HETATM   15  O   UNL     1      41.547 -17.546   4.515  1.00  0.00    -0.268 OA
HETATM   16  H   UNL     1      43.691 -16.344   2.503  1.00  0.00     0.163 HD
BRANCH  14  17
HETATM   17  C   UNL     1      43.252 -18.722   3.407  1.00  0.00     0.049 A 
HETATM   18  C   UNL     1      44.258 -19.270   4.214  1.00  0.00     0.026 A 
HETATM   19 BR   UNL     1      44.752 -18.560   5.906  1.00  0.00    -0.050 Br
HETATM   20  C   UNL     1      44.925 -20.431   3.803  1.00  0.00     0.020 A 
HETATM   21  C   UNL     1      44.587 -21.054   2.599  1.00  0.00     0.001 A 
HETATM   22  C   UNL     1      43.575 -20.525   1.803  1.00  0.00     0.001 A 
HETATM   23  C   UNL     1      42.908 -19.368   2.207  1.00  0.00     0.018 A 
ENDBRANCH  14  17
ENDBRANCH   1  13
TORSDOF 5
ENDMDL
MODEL 5
REMARK VINA RESULT:      -6.8      2.773      4.077
REMARK  5 active torsions:
REMARK  status: ('A' for Active; 'I' for Inactive)
REMARK    1  A    between atoms: C_2  and  O_3 
REMARK    2  A    between atoms: O_3  and  C_4 
REMARK    3  A    between atoms: C_8  and  C_9 
REMARK    4  A    between atoms: C_9  and  N_10 
REMARK       I    between atoms: N_10  and  C_11 
REMARK    5  A    between atoms: C_11  and  C_12 
ROOT
HETATM    1  C   UNL     1      41.140 -17.212   0.836  1.00  0.00     0.161 C 
ENDROOT
BRANCH   1   2
HETATM    2  C   UNL     1      41.090 -15.837   1.438  1.00  0.00    -0.035 A 
HETATM    3  C   UNL     1      40.281 -15.577   2.547  1.00  0.00     0.028 A 
HETATM    4  C   UNL     1      40.243 -14.288   3.051  1.00  0.00     0.120 A 
HETATM    5  N   UNL     1      40.936 -13.254   2.528  1.00  0.00    -0.237 NA
HETATM    6  C   UNL     1      41.707 -13.519   1.458  1.00  0.00     0.165 A 
HETATM    7  C   UNL     1      41.819 -14.778   0.887  1.00  0.00     0.066 A 
BRANCH   6   8
HETATM    8  O   UNL     1      42.467 -12.531   0.878  1.00  0.00    -0.324 OA
BRANCH   8   9
HETATM    9  C   UNL     1      41.976 -11.827  -0.279  1.00  0.00     0.058 C 
HETATM   10  C   UNL     1      40.443 -11.818  -0.371  1.00  0.00     0.045 C 
HETATM   11  C   UNL     1      42.636 -12.309  -1.580  1.00  0.00     0.045 C 
HETATM   12  C   UNL     1      42.430 -10.373  -0.039  1.00  0.00     0.045 C 
ENDBRANCH   8   9
ENDBRANCH   6   8
ENDBRANCH   1   2
BRANCH   1  13
HETATM   13  N   UNL     1      41.797 -18.133   1.732  1.00  0.00    -0.353 N 
HETATM   14  C   UNL     1      43.140 -18.399   1.612  1.00  0.00     0.253 C 
HETATM   15  O   UNL     1      43.884 -17.793   0.850  1.00  0.00    -0.268 OA
HETATM   16  H   UNL     1      41.219 -18.745   2.293  1.00  0.00     0.163 HD
BRANCH  14  17
HETATM   17  C   UNL     1      43.697 -19.434   2.521  1.00  0.00     0.049 A 
HETATM   18  C   UNL     1      44.021 -19.225   3.867  1.00  0.00     0.026 A 
HETATM   19 BR   UNL     1      43.721 -17.585   4.780  1.00  0.00    -0.050 Br
HETATM   20  C   UNL     1      44.552 -20.276   4.627  1.00  0.00     0.020 A 
HETATM   21  C   UNL     1      44.752 -21.534   4.053  1.00  0.00     0.001 A 
HETATM   22  C   UNL     1      44.414 -21.751   2.720  1.00  0.00     0.001 A 
HETATM   23  C   UNL     1      43.885 -20.708   1.959  1.00  0.00     0.018 A 
ENDBRANCH  14  17
ENDBRANCH   1  13
TORSDOF 5
ENDMDL
MODEL 6
REMARK VINA RESULT:      -6.7      2.272      6.527
REMARK  5 active torsions:
REMARK  status: ('A' for Active; 'I' for Inactive)
REMARK    1  A    between atoms: C_2  and  O_3 
REMARK    2  A    between atoms: O_3  and  C_4 
REMARK    3  A    between atoms: C_8  and  C_9 
REMARK    4  A    between atoms: C_9  and  N_10 
REMARK       I    between atoms: N_10  and  C_11 
REMARK    5  A    between atoms: C_11  and  C_12 
ROOT
HETATM    1  C   UNL     1      43.597 -17.986   0.994  1.00  0.00     0.161 C 
ENDROOT
BRANCH   1   2
HETATM    2  C   UNL     1      43.945 -18.582   2.328  1.00  0.00    -0.035 A 
HETATM    3  C   UNL     1      44.266 -19.937   2.437  1.00  0.00     0.028 A 
HETATM    4  C   UNL     1      44.550 -20.452   3.691  1.00  0.00     0.120 A 
HETATM    5  N   UNL     1      44.526 -19.722   4.826  1.00  0.00    -0.237 NA
HETATM    6  C   UNL     1      44.210 -18.420   4.706  1.00  0.00     0.165 A 
HETATM    7  C   UNL     1      43.919 -17.811   3.494  1.00  0.00     0.066 A 
BRANCH   6   8
HETATM    8  O   UNL     1      44.187 -17.598   5.808  1.00  0.00    -0.324 OA
BRANCH   8   9
HETATM    9  C   UNL     1      42.950 -16.998   6.236  1.00  0.00     0.058 C 
HETATM   10  C   UNL     1      41.713 -17.652   5.601  1.00  0.00     0.045 C 
HETATM   11  C   UNL     1      42.952 -15.471   6.069  1.00  0.00     0.045 C 
HETATM   12  C   UNL     1      42.904 -17.300   7.747  1.00  0.00     0.045 C 
ENDBRANCH   8   9
ENDBRANCH   6   8
ENDBRANCH   1   2
BRANCH   1  13
HETATM   13  N   UNL     1      42.785 -16.805   1.164  1.00  0.00    -0.353 N 
HETATM   14  C   UNL     1      41.414 -16.872   1.089  1.00  0.00     0.253 C 
HETATM   15  O   UNL     1      40.793 -17.926   1.011  1.00  0.00    -0.268 OA
HETATM   16  H   UNL     1      43.240 -15.903   1.111  1.00  0.00     0.163 HD
BRANCH  14  17
HETATM   17  C   UNL     1      40.679 -15.585   1.182  1.00  0.00     0.049 A 
HETATM   18  C   UNL     1      40.423 -14.730   0.102  1.00  0.00     0.026 A 
HETATM   19 BR   UNL     1      40.913 -15.124  -1.691  1.00  0.00    -0.050 Br
HETATM   20  C   UNL     1      39.726 -13.533   0.313  1.00  0.00     0.020 A 
HETATM   21  C   UNL     1      39.277 -13.189   1.590  1.00  0.00     0.001 A 
HETATM   22  C   UNL     1      39.512 -14.045   2.663  1.00  0.00     0.001 A 
HETATM   23  C   UNL     1      40.205 -15.239   2.459  1.00  0.00     0.018 A 
ENDBRANCH  14  17
ENDBRANCH   1  13
TORSDOF 5
ENDMDL
MODEL 7
REMARK VINA RESULT:      -6.5      2.374      3.629
REMARK  5 active torsions:
REMARK  status: ('A' for Active; 'I' for Inactive)
REMARK    1  A    between atoms: C_2  and  O_3 
REMARK    2  A    between atoms: O_3  and  C_4 
REMARK    3  A    between atoms: C_8  and  C_9 
REMARK    4  A    between atoms: C_9  and  N_10 
REMARK       I    between atoms: N_10  and  C_11 
REMARK    5  A    between atoms: C_11  and  C_12 
ROOT
HETATM    1  C   UNL     1      41.190 -16.725   2.034  1.00  0.00     0.161 C 
ENDROOT
BRANCH   1   2
HETATM    2  C   UNL     1      41.600 -15.452   2.716  1.00  0.00    -0.035 A 
HETATM    3  C   UNL     1      42.577 -14.628   2.152  1.00  0.00     0.028 A 
HETATM    4  C   UNL     1      42.947 -13.479   2.831  1.00  0.00     0.120 A 
HETATM    5  N   UNL     1      42.425 -13.106   4.018  1.00  0.00    -0.237 NA
HETATM    6  C   UNL     1      41.488 -13.911   4.551  1.00  0.00     0.165 A 
HETATM    7  C   UNL     1      41.046 -15.078   3.944  1.00  0.00     0.066 A 
BRANCH   6   8
HETATM    8  O   UNL     1      40.885 -13.594   5.745  1.00  0.00    -0.324 OA
BRANCH   8   9
HETATM    9  C   UNL     1      40.166 -12.354   5.884  1.00  0.00     0.058 C 
HETATM   10  C   UNL     1      39.223 -12.070   4.706  1.00  0.00     0.045 C 
HETATM   11  C   UNL     1      41.096 -11.170   6.186  1.00  0.00     0.045 C 
HETATM   12  C   UNL     1      39.286 -12.583   7.130  1.00  0.00     0.045 C 
ENDBRANCH   8   9
ENDBRANCH   6   8
ENDBRANCH   1   2
BRANCH   1  13
HETATM   13  N   UNL     1      41.897 -17.851   2.596  1.00  0.00    -0.353 N 
HETATM   14  C   UNL     1      43.023 -18.354   1.988  1.00  0.00     0.253 C 
HETATM   15  O   UNL     1      43.571 -17.818   1.032  1.00  0.00    -0.268 OA
HETATM   16  H   UNL     1      41.430 -18.401   3.305  1.00  0.00     0.163 HD
BRANCH  14  17
HETATM   17  C   UNL     1      43.619 -19.572   2.595  1.00  0.00     0.049 A 
HETATM   18  C   UNL     1      44.178 -19.635   3.878  1.00  0.00     0.026 A 
HETATM   19 BR   UNL     1      44.193 -18.173   5.093  1.00  0.00    -0.050 Br
HETATM   20  C   UNL     1      44.722 -20.840   4.341  1.00  0.00     0.020 A 
HETATM   21  C   UNL     1      44.703 -21.982   3.538  1.00  0.00     0.001 A 
HETATM   22  C   UNL     1      44.131 -21.929   2.269  1.00  0.00     0.001 A 
HETATM   23  C   UNL     1      43.588 -20.732   1.802  1.00  0.00     0.018 A 
ENDBRANCH  14  17
ENDBRANCH   1  13
TORSDOF 5
ENDMDL
MODEL 8
REMARK VINA RESULT:      -6.4      3.016      4.282
REMARK  5 active torsions:
REMARK  status: ('A' for Active; 'I' for Inactive)
REMARK    1  A    between atoms: C_2  and  O_3 
REMARK    2  A    between atoms: O_3  and  C_4 
REMARK    3  A    between atoms: C_8  and  C_9 
REMARK    4  A    between atoms: C_9  and  N_10 
REMARK       I    between atoms: N_10  and  C_11 
REMARK    5  A    between atoms: C_11  and  C_12 
ROOT
HETATM    1  C   UNL     1      40.482 -15.203   3.212  1.00  0.00     0.161 C 
ENDROOT
BRANCH   1   2
HETATM    2  C   UNL     1      40.749 -14.475   1.927  1.00  0.00    -0.035 A 
HETATM    3  C   UNL     1      41.809 -13.569   1.832  1.00  0.00     0.028 A 
HETATM    4  C   UNL     1      42.000 -12.897   0.637  1.00  0.00     0.120 A 
HETATM    5  N   UNL     1      41.215 -13.055  -0.449  1.00  0.00    -0.237 NA
HETATM    6  C   UNL     1      40.196 -13.926  -0.342  1.00  0.00     0.165 A 
HETATM    7  C   UNL     1      39.928 -14.653   0.809  1.00  0.00     0.066 A 
BRANCH   6   8
HETATM    8  O   UNL     1      39.361 -14.167  -1.408  1.00  0.00    -0.324 OA
BRANCH   8   9
HETATM    9  C   UNL     1      39.907 -14.594  -2.670  1.00  0.00     0.058 C 
HETATM   10  C   UNL     1      40.904 -15.755  -2.532  1.00  0.00     0.045 C 
HETATM   11  C   UNL     1      40.480 -13.425  -3.484  1.00  0.00     0.045 C 
HETATM   12  C   UNL     1      38.679 -15.133  -3.432  1.00  0.00     0.045 C 
ENDBRANCH   8   9
ENDBRANCH   6   8
ENDBRANCH   1   2
BRANCH   1  13
HETATM   13  N   UNL     1      41.241 -16.430   3.266  1.00  0.00    -0.353 N 
HETATM   14  C   UNL     1      42.453 -16.483   3.911  1.00  0.00     0.253 C 
HETATM   15  O   UNL     1      42.902 -15.562   4.583  1.00  0.00    -0.268 OA
HETATM   16  H   UNL     1      40.982 -17.178   2.636  1.00  0.00     0.163 HD
BRANCH  14  17
HETATM   17  C   UNL     1      43.197 -17.766   3.825  1.00  0.00     0.049 A 
HETATM   18  C   UNL     1      43.673 -18.337   2.638  1.00  0.00     0.026 A 
HETATM   19 BR   UNL     1      43.511 -17.510   0.934  1.00  0.00    -0.050 Br
HETATM   20  C   UNL     1      44.354 -19.560   2.678  1.00  0.00     0.020 A 
HETATM   21  C   UNL     1      44.570 -20.211   3.894  1.00  0.00     0.001 A 
HETATM   22  C   UNL     1      44.115 -19.639   5.080  1.00  0.00     0.001 A 
HETATM   23  C   UNL     1      43.437 -18.421   5.046  1.00  0.00     0.018 A 
ENDBRANCH  14  17
ENDBRANCH   1  13
TORSDOF 5
ENDMDL
MODEL 9
REMARK VINA RESULT:      -6.4      2.792      4.280
REMARK  5 active torsions:
REMARK  status: ('A' for Active; 'I' for Inactive)
REMARK    1  A    between atoms: C_2  and  O_3 
REMARK    2  A    between atoms: O_3  and  C_4 
REMARK    3  A    between atoms: C_8  and  C_9 
REMARK    4  A    between atoms: C_9  and  N_10 
REMARK       I    between atoms: N_10  and  C_11 
REMARK    5  A    between atoms: C_11  and  C_12 
ROOT
HETATM    1  C   UNL     1      40.875 -16.036   3.254  1.00  0.00     0.161 C 
ENDROOT
BRANCH   1   2
HETATM    2  C   UNL     1      40.610 -15.542   1.861  1.00  0.00    -0.035 A 
HETATM    3  C   UNL     1      41.566 -15.709   0.855  1.00  0.00     0.028 A 
HETATM    4  C   UNL     1      41.292 -15.211  -0.407  1.00  0.00     0.120 A 
HETATM    5  N   UNL     1      40.154 -14.560  -0.729  1.00  0.00    -0.237 NA
HETATM    6  C   UNL     1      39.246 -14.403   0.251  1.00  0.00     0.165 A 
HETATM    7  C   UNL     1      39.424 -14.874   1.543  1.00  0.00     0.066 A 
BRANCH   6   8
HETATM    8  O   UNL     1      38.048 -13.774   0.004  1.00  0.00    -0.324 OA
BRANCH   8   9
HETATM    9  C   UNL     1      37.978 -12.336  -0.016  1.00  0.00     0.058 C 
HETATM   10  C   UNL     1      39.301 -11.663   0.379  1.00  0.00     0.045 C 
HETATM   11  C   UNL     1      36.786 -11.797   0.788  1.00  0.00     0.045 C 
HETATM   12  C   UNL     1      37.722 -12.007  -1.501  1.00  0.00     0.045 C 
ENDBRANCH   8   9
ENDBRANCH   6   8
ENDBRANCH   1   2
BRANCH   1  13
HETATM   13  N   UNL     1      41.522 -17.326   3.219  1.00  0.00    -0.353 N 
HETATM   14  C   UNL     1      42.880 -17.442   3.403  1.00  0.00     0.253 C 
HETATM   15  O   UNL     1      43.598 -16.506   3.736  1.00  0.00    -0.268 OA
HETATM   16  H   UNL     1      41.007 -18.107   2.834  1.00  0.00     0.163 HD
BRANCH  14  17
HETATM   17  C   UNL     1      43.458 -18.801   3.252  1.00  0.00     0.049 A 
HETATM   18  C   UNL     1      44.284 -19.429   4.194  1.00  0.00     0.026 A 
HETATM   19 BR   UNL     1      44.737 -18.661   5.873  1.00  0.00    -0.050 Br
HETATM   20  C   UNL     1      44.782 -20.713   3.938  1.00  0.00     0.020 A 
HETATM   21  C   UNL     1      44.453 -21.377   2.754  1.00  0.00     0.001 A 
HETATM   22  C   UNL     1      43.617 -20.765   1.823  1.00  0.00     0.001 A 
HETATM   23  C   UNL     1      43.119 -19.486   2.073  1.00  0.00     0.018 A 
ENDBRANCH  14  17
ENDBRANCH   1  13
TORSDOF 5
ENDMDL
MODEL 10
REMARK VINA RESULT:      -6.4      4.392      8.439
REMARK  5 active torsions:
REMARK  status: ('A' for Active; 'I' for Inactive)
REMARK    1  A    between atoms: C_2  and  O_3 
REMARK    2  A    between atoms: O_3  and  C_4 
REMARK    3  A    between atoms: C_8  and  C_9 
REMARK    4  A    between atoms: C_9  and  N_10 
REMARK       I    between atoms: N_10  and  C_11 
REMARK    5  A    between atoms: C_11  and  C_12 
ROOT
HETATM    1  C   UNL     1      41.227 -11.821   6.129  1.00  0.00     0.161 C 
ENDROOT
BRANCH   1   2
HETATM    2  C   UNL     1      42.033 -12.817   5.345  1.00  0.00    -0.035 A 
HETATM    3  C   UNL     1      42.219 -12.654   3.970  1.00  0.00     0.028 A 
HETATM    4  C   UNL     1      42.944 -13.613   3.282  1.00  0.00     0.120 A 
HETATM    5  N   UNL     1      43.479 -14.709   3.860  1.00  0.00    -0.237 NA
HETATM    6  C   UNL     1      43.288 -14.855   5.183  1.00  0.00     0.165 A 
HETATM    7  C   UNL     1      42.584 -13.945   5.960  1.00  0.00     0.066 A 
BRANCH   6   8
HETATM    8  O   UNL     1      43.820 -15.929   5.857  1.00  0.00    -0.324 OA
BRANCH   8   9
HETATM    9  C   UNL     1      43.047 -17.134   6.020  1.00  0.00     0.058 C 
HETATM   10  C   UNL     1      41.790 -17.166   5.138  1.00  0.00     0.045 C 
HETATM   11  C   UNL     1      42.735 -17.432   7.494  1.00  0.00     0.045 C 
HETATM   12  C   UNL     1      43.991 -18.242   5.512  1.00  0.00     0.045 C 
ENDBRANCH   8   9
ENDBRANCH   6   8
ENDBRANCH   1   2
BRANCH   1  13
HETATM   13  N   UNL     1      41.708 -11.737   7.487  1.00  0.00    -0.353 N 
HETATM   14  C   UNL     1      42.187 -10.553   7.995  1.00  0.00     0.253 C 
HETATM   15  O   UNL     1      42.117  -9.484   7.399  1.00  0.00    -0.268 OA
HETATM   16  H   UNL     1      41.900 -12.600   7.979  1.00  0.00     0.163 HD
BRANCH  14  17
HETATM   17  C   UNL     1      42.747 -10.597   9.370  1.00  0.00     0.049 A 
HETATM   18  C   UNL     1      43.837 -11.383   9.765  1.00  0.00     0.026 A 
HETATM   19 BR   UNL     1      44.836 -12.473   8.571  1.00  0.00    -0.050 Br
HETATM   20  C   UNL     1      44.271 -11.351  11.097  1.00  0.00     0.020 A 
HETATM   21  C   UNL     1      43.632 -10.534  12.031  1.00  0.00     0.001 A 
HETATM   22  C   UNL     1      42.560  -9.737  11.639  1.00  0.00     0.001 A 
HETATM   23  C   UNL     1      42.123  -9.764  10.315  1.00  0.00     0.018 A 
ENDBRANCH  14  17
ENDBRANCH   1  13
TORSDOF 5
ENDMDL
