MODEL 1
REMARK VINA RESULT:      -9.1      0.000      0.000
REMARK  6 active torsions:
REMARK  status: ('A' for Active; 'I' for Inactive)
REMARK    1  A    between atoms: C_6  and  N_7 
REMARK    2  A    between atoms: N_7  and  C_8 
REMARK    3  A    between atoms: C_8  and  N_9 
REMARK    4  A    between atoms: C_12  and  C_13 
REMARK    5  A    between atoms: N_15  and  C_16 
REMARK    6  A    between atoms: C_22  and  O_23 
ROOT
HETATM    1  N   UNL     1      41.837 -15.221   4.310  1.00  0.00    -0.358 N 
HETATM    2  C   UNL     1      40.681 -15.555   3.473  1.00  0.00     0.126 C 
HETATM    3  C   UNL     1      39.827 -14.322   3.198  1.00  0.00     0.031 C 
HETATM    4  C   UNL     1      40.638 -13.192   2.551  1.00  0.00     0.043 C 
HETATM    5  C   UNL     1      41.909 -12.910   3.367  1.00  0.00     0.031 C 
HETATM    6  C   UNL     1      42.690 -14.170   3.740  1.00  0.00     0.126 C 
ENDROOT
BRANCH   4   7
HETATM    7  C   UNL     1      40.874 -13.441   1.083  1.00  0.00     0.063 C 
HETATM    8  N   UNL     1      39.885 -13.801   0.261  1.00  0.00    -0.169 NA
HETATM    9  N   UNL     1      40.472 -13.968  -0.957  1.00  0.00    -0.211 N 
HETATM   10  C   UNL     1      41.791 -13.513  -0.935  1.00  0.00     0.165 C 
HETATM   11  C   UNL     1      42.089 -13.273   0.385  1.00  0.00     0.087 C 
BRANCH   9  12
HETATM   12  C   UNL     1      39.733 -14.544  -2.031  1.00  0.00     0.061 A 
HETATM   13  C   UNL     1      38.415 -14.117  -2.259  1.00  0.00     0.031 A 
HETATM   14  C   UNL     1      37.670 -14.662  -3.309  1.00  0.00     0.002 A 
HETATM   15  C   UNL     1      38.227 -15.644  -4.124  1.00  0.00     0.000 A 
HETATM   16  C   UNL     1      39.525 -16.094  -3.886  1.00  0.00     0.002 A 
HETATM   17  C   UNL     1      40.277 -15.551  -2.839  1.00  0.00     0.031 A 
ENDBRANCH   9  12
BRANCH  10  18
HETATM   18  O   UNL     1      42.567 -13.319  -2.002  1.00  0.00    -0.345 OA
HETATM   19  H   UNL     1      42.285 -12.497  -2.442  1.00  0.00     0.219 HD
ENDBRANCH  10  18
ENDBRANCH   4   7
BRANCH   1  20
HETATM   20  C   UNL     1      42.479 -16.217   5.036  1.00  0.00     0.174 C 
HETATM   21  S   UNL     1      41.984 -16.790   6.539  1.00  0.00    -0.041 SA
BRANCH  20  22
HETATM   22  N   UNL     1      43.561 -16.842   4.481  1.00  0.00    -0.333 N 
HETATM   23  H   UNL     1      44.357 -16.220   4.388  1.00  0.00     0.168 HD
BRANCH  22  24
HETATM   24  C   UNL     1      43.677 -18.066   3.788  1.00  0.00     0.034 A 
HETATM   25  C   UNL     1      44.219 -19.147   4.496  1.00  0.00     0.036 A 
HETATM   26  C   UNL     1      44.420 -20.400   3.888  1.00  0.00    -0.054 A 
HETATM   27  C   UNL     1      44.094 -20.563   2.529  1.00  0.00    -0.056 A 
HETATM   28  C   UNL     1      45.022 -21.518   4.693  1.00  0.00     0.049 C 
HETATM   29  C   UNL     1      44.286 -21.877   1.822  1.00  0.00     0.049 C 
HETATM   30  C   UNL     1      43.555 -19.478   1.824  1.00  0.00     0.009 A 
HETATM   31  C   UNL     1      43.359 -18.239   2.445  1.00  0.00     0.030 A 
ENDBRANCH  22  24
ENDBRANCH  20  22
ENDBRANCH   1  20
TORSDOF 6
ENDMDL
MODEL 2
REMARK VINA RESULT:      -8.9      1.785      2.207
REMARK  6 active torsions:
REMARK  status: ('A' for Active; 'I' for Inactive)
REMARK    1  A    between atoms: C_6  and  N_7 
REMARK    2  A    between atoms: N_7  and  C_8 
REMARK    3  A    between atoms: C_8  and  N_9 
REMARK    4  A    between atoms: C_12  and  C_13 
REMARK    5  A    between atoms: N_15  and  C_16 
REMARK    6  A    between atoms: C_22  and  O_23 
ROOT
HETATM    1  N   UNL     1      42.577 -15.482   5.299  1.00  0.00    -0.358 N 
HETATM    2  C   UNL     1      41.124 -15.290   5.299  1.00  0.00     0.126 C 
HETATM    3  C   UNL     1      40.764 -13.814   5.177  1.00  0.00     0.031 C 
HETATM    4  C   UNL     1      41.382 -13.171   3.928  1.00  0.00     0.043 C 
HETATM    5  C   UNL     1      42.889 -13.462   3.866  1.00  0.00     0.031 C 
HETATM    6  C   UNL     1      43.242 -14.929   4.111  1.00  0.00     0.126 C 
ENDROOT
BRANCH   4   7
HETATM    7  C   UNL     1      40.619 -13.530   2.679  1.00  0.00     0.063 C 
HETATM    8  N   UNL     1      41.233 -13.733   1.510  1.00  0.00    -0.169 NA
HETATM    9  N   UNL     1      40.236 -13.998   0.620  1.00  0.00    -0.211 N 
HETATM   10  C   UNL     1      39.016 -14.161   1.280  1.00  0.00     0.165 C 
HETATM   11  C   UNL     1      39.230 -13.762   2.578  1.00  0.00     0.087 C 
BRANCH   9  12
HETATM   12  C   UNL     1      40.525 -14.071  -0.773  1.00  0.00     0.061 A 
HETATM   13  C   UNL     1      40.904 -15.303  -1.328  1.00  0.00     0.031 A 
HETATM   14  C   UNL     1      41.188 -15.404  -2.693  1.00  0.00     0.002 A 
HETATM   15  C   UNL     1      41.113 -14.277  -3.507  1.00  0.00     0.000 A 
HETATM   16  C   UNL     1      40.766 -13.043  -2.958  1.00  0.00     0.002 A 
HETATM   17  C   UNL     1      40.478 -12.935  -1.594  1.00  0.00     0.031 A 
ENDBRANCH   9  12
BRANCH  10  18
HETATM   18  O   UNL     1      37.898 -14.649   0.742  1.00  0.00    -0.345 OA
HETATM   19  H   UNL     1      37.897 -15.616   0.861  1.00  0.00     0.219 HD
ENDBRANCH  10  18
ENDBRANCH   4   7
BRANCH   1  20
HETATM   20  C   UNL     1      43.123 -16.644   5.832  1.00  0.00     0.174 C 
HETATM   21  S   UNL     1      42.629 -17.376   7.264  1.00  0.00    -0.041 SA
BRANCH  20  22
HETATM   22  N   UNL     1      44.095 -17.298   5.126  1.00  0.00    -0.333 N 
HETATM   23  H   UNL     1      44.964 -16.775   5.094  1.00  0.00     0.168 HD
BRANCH  22  24
HETATM   24  C   UNL     1      44.025 -18.392   4.237  1.00  0.00     0.034 A 
HETATM   25  C   UNL     1      44.448 -19.635   4.728  1.00  0.00     0.036 A 
HETATM   26  C   UNL     1      44.462 -20.782   3.913  1.00  0.00    -0.054 A 
HETATM   27  C   UNL     1      44.067 -20.673   2.568  1.00  0.00    -0.056 A 
HETATM   28  C   UNL     1      44.943 -22.086   4.490  1.00  0.00     0.049 C 
HETATM   29  C   UNL     1      44.061 -21.862   1.647  1.00  0.00     0.049 C 
HETATM   30  C   UNL     1      43.648 -19.427   2.081  1.00  0.00     0.009 A 
HETATM   31  C   UNL     1      43.638 -18.296   2.905  1.00  0.00     0.030 A 
ENDBRANCH  22  24
ENDBRANCH  20  22
ENDBRANCH   1  20
TORSDOF 6
ENDMDL
MODEL 3
REMARK VINA RESULT:      -8.7      2.286      2.851
REMARK  6 active torsions:
REMARK  status: ('A' for Active; 'I' for Inactive)
REMARK    1  A    between atoms: C_6  and  N_7 
REMARK    2  A    between atoms: N_7  and  C_8 
REMARK    3  A    between atoms: C_8  and  N_9 
REMARK    4  A    between atoms: C_12  and  C_13 
REMARK    5  A    between atoms: N_15  and  C_16 
REMARK    6  A    between atoms: C_22  and  O_23 
ROOT
HETATM    1  N   UNL     1      42.906 -16.708   6.279  1.00  0.00    -0.358 N 
HETATM    2  C   UNL     1      41.563 -17.157   5.902  1.00  0.00     0.126 C 
HETATM    3  C   UNL     1      40.554 -16.019   6.005  1.00  0.00     0.031 C 
HETATM    4  C   UNL     1      40.964 -14.807   5.158  1.00  0.00     0.043 C 
HETATM    5  C   UNL     1      42.411 -14.398   5.471  1.00  0.00     0.031 C 
HETATM    6  C   UNL     1      43.390 -15.572   5.484  1.00  0.00     0.126 C 
ENDROOT
BRANCH   4   7
HETATM    7  C   UNL     1      40.673 -15.023   3.695  1.00  0.00     0.063 C 
HETATM    8  N   UNL     1      40.412 -14.007   2.869  1.00  0.00    -0.169 NA
HETATM    9  N   UNL     1      40.168 -14.580   1.657  1.00  0.00    -0.211 N 
HETATM   10  C   UNL     1      40.478 -15.941   1.684  1.00  0.00     0.165 C 
HETATM   11  C   UNL     1      40.700 -16.254   3.004  1.00  0.00     0.087 C 
BRANCH   9  12
HETATM   12  C   UNL     1      39.662 -13.790   0.585  1.00  0.00     0.061 A 
HETATM   13  C   UNL     1      38.307 -13.902   0.235  1.00  0.00     0.031 A 
HETATM   14  C   UNL     1      37.783 -13.135  -0.810  1.00  0.00     0.002 A 
HETATM   15  C   UNL     1      38.608 -12.268  -1.521  1.00  0.00     0.000 A 
HETATM   16  C   UNL     1      39.961 -12.172  -1.198  1.00  0.00     0.002 A 
HETATM   17  C   UNL     1      40.492 -12.934  -0.153  1.00  0.00     0.031 A 
ENDBRANCH   9  12
BRANCH  10  18
HETATM   18  O   UNL     1      40.574 -16.740   0.621  1.00  0.00    -0.345 OA
HETATM   19  H   UNL     1      40.382 -16.214  -0.177  1.00  0.00     0.219 HD
ENDBRANCH  10  18
ENDBRANCH   4   7
BRANCH   1  20
HETATM   20  C   UNL     1      43.860 -17.636   6.682  1.00  0.00     0.174 C 
HETATM   21  S   UNL     1      44.019 -18.243   8.244  1.00  0.00    -0.041 SA
BRANCH  20  22
HETATM   22  N   UNL     1      44.705 -18.160   5.744  1.00  0.00    -0.333 N 
HETATM   23  H   UNL     1      45.596 -17.677   5.716  1.00  0.00     0.168 HD
BRANCH  22  24
HETATM   24  C   UNL     1      44.468 -19.036   4.662  1.00  0.00     0.034 A 
HETATM   25  C   UNL     1      44.711 -20.398   4.884  1.00  0.00     0.036 A 
HETATM   26  C   UNL     1      44.551 -21.352   3.862  1.00  0.00    -0.054 A 
HETATM   27  C   UNL     1      44.163 -20.923   2.579  1.00  0.00    -0.056 A 
HETATM   28  C   UNL     1      44.842 -22.798   4.155  1.00  0.00     0.049 C 
HETATM   29  C   UNL     1      43.975 -21.893   1.445  1.00  0.00     0.049 C 
HETATM   30  C   UNL     1      43.924 -19.559   2.361  1.00  0.00     0.009 A 
HETATM   31  C   UNL     1      44.087 -18.624   3.389  1.00  0.00     0.030 A 
ENDBRANCH  22  24
ENDBRANCH  20  22
ENDBRANCH   1  20
TORSDOF 6
ENDMDL
MODEL 4
REMARK VINA RESULT:      -8.7      2.069      3.410
REMARK  6 active torsions:
REMARK  status: ('A' for Active; 'I' for Inactive)
REMARK    1  A    between atoms: C_6  and  N_7 
REMARK    2  A    between atoms: N_7  and  C_8 
REMARK    3  A    between atoms: C_8  and  N_9 
REMARK    4  A    between atoms: C_12  and  C_13 
REMARK    5  A    between atoms: N_15  and  C_16 
REMARK    6  A    between atoms: C_22  and  O_23 
ROOT
HETATM    1  N   UNL     1      41.983 -16.070   3.055  1.00  0.00    -0.358 N 
HETATM    2  C   UNL     1      41.829 -16.800   1.793  1.00  0.00     0.126 C 
HETATM    3  C   UNL     1      40.417 -16.650   1.239  1.00  0.00     0.031 C 
HETATM    4  C   UNL     1      40.028 -15.178   1.048  1.00  0.00     0.043 C 
HETATM    5  C   UNL     1      40.289 -14.382   2.336  1.00  0.00     0.031 C 
HETATM    6  C   UNL     1      41.667 -14.639   2.946  1.00  0.00     0.126 C 
ENDROOT
BRANCH   4   7
HETATM    7  C   UNL     1      40.651 -14.591  -0.193  1.00  0.00     0.063 C 
HETATM    8  N   UNL     1      41.121 -13.341  -0.223  1.00  0.00    -0.169 NA
HETATM    9  N   UNL     1      41.568 -13.155  -1.496  1.00  0.00    -0.211 N 
HETATM   10  C   UNL     1      41.562 -14.360  -2.202  1.00  0.00     0.165 C 
HETATM   11  C   UNL     1      40.882 -15.258  -1.415  1.00  0.00     0.087 C 
BRANCH   9  12
HETATM   12  C   UNL     1      41.959 -11.856  -1.932  1.00  0.00     0.061 A 
HETATM   13  C   UNL     1      43.111 -11.270  -1.384  1.00  0.00     0.031 A 
HETATM   14  C   UNL     1      43.520  -9.999  -1.797  1.00  0.00     0.002 A 
HETATM   15  C   UNL     1      42.776  -9.299  -2.743  1.00  0.00     0.000 A 
HETATM   16  C   UNL     1      41.614  -9.862  -3.271  1.00  0.00     0.002 A 
HETATM   17  C   UNL     1      41.201 -11.135  -2.864  1.00  0.00     0.031 A 
ENDBRANCH   9  12
BRANCH  10  18
HETATM   18  O   UNL     1      42.144 -14.575  -3.382  1.00  0.00    -0.345 OA
HETATM   19  H   UNL     1      41.755 -13.963  -4.034  1.00  0.00     0.219 HD
ENDBRANCH  10  18
ENDBRANCH   4   7
BRANCH   1  20
HETATM   20  C   UNL     1      42.999 -16.416   3.938  1.00  0.00     0.174 C 
HETATM   21  S   UNL     1      43.080 -15.945   5.551  1.00  0.00    -0.041 SA
BRANCH  20  22
HETATM   22  N   UNL     1      43.988 -17.256   3.507  1.00  0.00    -0.333 N 
HETATM   23  H   UNL     1      44.494 -16.878   2.713  1.00  0.00     0.168 HD
BRANCH  22  24
HETATM   24  C   UNL     1      44.238 -18.619   3.779  1.00  0.00     0.034 A 
HETATM   25  C   UNL     1      44.098 -19.515   2.711  1.00  0.00     0.036 A 
HETATM   26  C   UNL     1      44.279 -20.900   2.883  1.00  0.00    -0.054 A 
HETATM   27  C   UNL     1      44.584 -21.398   4.163  1.00  0.00    -0.056 A 
HETATM   28  C   UNL     1      44.099 -21.815   1.703  1.00  0.00     0.049 C 
HETATM   29  C   UNL     1      44.789 -22.867   4.410  1.00  0.00     0.049 C 
HETATM   30  C   UNL     1      44.720 -20.498   5.228  1.00  0.00     0.009 A 
HETATM   31  C   UNL     1      44.537 -19.124   5.040  1.00  0.00     0.030 A 
ENDBRANCH  22  24
ENDBRANCH  20  22
ENDBRANCH   1  20
TORSDOF 6
ENDMDL
MODEL 5
REMARK VINA RESULT:      -8.5      4.946      8.290
REMARK  6 active torsions:
REMARK  status: ('A' for Active; 'I' for Inactive)
REMARK    1  A    between atoms: C_6  and  N_7 
REMARK    2  A    between atoms: N_7  and  C_8 
REMARK    3  A    between atoms: C_8  and  N_9 
REMARK    4  A    between atoms: C_12  and  C_13 
REMARK    5  A    between atoms: N_15  and  C_16 
REMARK    6  A    between atoms: C_22  and  O_23 
ROOT
HETATM    1  N   UNL     1      41.575 -14.831   4.855  1.00  0.00    -0.358 N 
HETATM    2  C   UNL     1      42.524 -13.890   5.458  1.00  0.00     0.126 C 
HETATM    3  C   UNL     1      42.286 -12.471   4.954  1.00  0.00     0.031 C 
HETATM    4  C   UNL     1      40.846 -12.004   5.206  1.00  0.00     0.043 C 
HETATM    5  C   UNL     1      39.845 -13.040   4.672  1.00  0.00     0.031 C 
HETATM    6  C   UNL     1      40.169 -14.475   5.086  1.00  0.00     0.126 C 
ENDROOT
BRANCH   4   7
HETATM    7  C   UNL     1      40.631 -11.603   6.643  1.00  0.00     0.063 C 
HETATM    8  N   UNL     1      41.583 -10.994   7.356  1.00  0.00    -0.169 NA
HETATM    9  N   UNL     1      41.049 -10.823   8.598  1.00  0.00    -0.211 N 
HETATM   10  C   UNL     1      39.690 -11.143   8.599  1.00  0.00     0.165 C 
HETATM   11  C   UNL     1      39.440 -11.740   7.387  1.00  0.00     0.087 C 
BRANCH   9  12
HETATM   12  C   UNL     1      41.872 -10.374   9.671  1.00  0.00     0.061 A 
HETATM   13  C   UNL     1      43.094 -11.022   9.911  1.00  0.00     0.031 A 
HETATM   14  C   UNL     1      43.922 -10.599  10.954  1.00  0.00     0.002 A 
HETATM   15  C   UNL     1      43.532  -9.541  11.772  1.00  0.00     0.000 A 
HETATM   16  C   UNL     1      42.307  -8.911  11.557  1.00  0.00     0.002 A 
HETATM   17  C   UNL     1      41.473  -9.328  10.514  1.00  0.00     0.031 A 
ENDBRANCH   9  12
BRANCH  10  18
HETATM   18  O   UNL     1      38.826 -10.873   9.578  1.00  0.00    -0.345 OA
HETATM   19  H   UNL     1      38.385 -10.028   9.373  1.00  0.00     0.219 HD
ENDBRANCH  10  18
ENDBRANCH   4   7
BRANCH   1  20
HETATM   20  C   UNL     1      41.874 -16.188   4.814  1.00  0.00     0.174 C 
HETATM   21  S   UNL     1      41.017 -17.391   5.617  1.00  0.00    -0.041 SA
BRANCH  20  22
HETATM   22  N   UNL     1      42.901 -16.611   4.016  1.00  0.00    -0.333 N 
HETATM   23  H   UNL     1      43.405 -15.838   3.596  1.00  0.00     0.168 HD
BRANCH  22  24
HETATM   24  C   UNL     1      43.197 -17.881   3.473  1.00  0.00     0.034 A 
HETATM   25  C   UNL     1      43.960 -18.747   4.267  1.00  0.00     0.036 A 
HETATM   26  C   UNL     1      44.350 -20.018   3.806  1.00  0.00    -0.054 A 
HETATM   27  C   UNL     1      43.987 -20.417   2.507  1.00  0.00    -0.056 A 
HETATM   28  C   UNL     1      45.183 -20.898   4.697  1.00  0.00     0.049 C 
HETATM   29  C   UNL     1      44.374 -21.763   1.956  1.00  0.00     0.049 C 
HETATM   30  C   UNL     1      43.227 -19.546   1.715  1.00  0.00     0.009 A 
HETATM   31  C   UNL     1      42.846 -18.286   2.190  1.00  0.00     0.030 A 
ENDBRANCH  22  24
ENDBRANCH  20  22
ENDBRANCH   1  20
TORSDOF 6
ENDMDL
MODEL 6
REMARK VINA RESULT:      -8.4      0.831      1.723
REMARK  6 active torsions:
REMARK  status: ('A' for Active; 'I' for Inactive)
REMARK    1  A    between atoms: C_6  and  N_7 
REMARK    2  A    between atoms: N_7  and  C_8 
REMARK    3  A    between atoms: C_8  and  N_9 
REMARK    4  A    between atoms: C_12  and  C_13 
REMARK    5  A    between atoms: N_15  and  C_16 
REMARK    6  A    between atoms: C_22  and  O_23 
ROOT
HETATM    1  N   UNL     1      41.869 -15.455   3.528  1.00  0.00    -0.358 N 
HETATM    2  C   UNL     1      40.573 -15.250   2.874  1.00  0.00     0.126 C 
HETATM    3  C   UNL     1      40.202 -13.772   2.840  1.00  0.00     0.031 C 
HETATM    4  C   UNL     1      41.280 -12.923   2.153  1.00  0.00     0.043 C 
HETATM    5  C   UNL     1      42.660 -13.214   2.762  1.00  0.00     0.031 C 
HETATM    6  C   UNL     1      42.967 -14.705   2.902  1.00  0.00     0.126 C 
ENDROOT
BRANCH   4   7
HETATM    7  C   UNL     1      41.215 -13.044   0.652  1.00  0.00     0.063 C 
HETATM    8  N   UNL     1      40.172 -13.603   0.033  1.00  0.00    -0.169 NA
HETATM    9  N   UNL     1      40.478 -13.568  -1.293  1.00  0.00    -0.211 N 
HETATM   10  C   UNL     1      41.624 -12.801  -1.515  1.00  0.00     0.165 C 
HETATM   11  C   UNL     1      42.159 -12.551  -0.274  1.00  0.00     0.087 C 
BRANCH   9  12
HETATM   12  C   UNL     1      39.662 -14.264  -2.231  1.00  0.00     0.061 A 
HETATM   13  C   UNL     1      40.217 -15.325  -2.964  1.00  0.00     0.031 A 
HETATM   14  C   UNL     1      39.438 -16.028  -3.887  1.00  0.00     0.002 A 
HETATM   15  C   UNL     1      38.109 -15.668  -4.097  1.00  0.00     0.000 A 
HETATM   16  C   UNL     1      37.558 -14.597  -3.394  1.00  0.00     0.002 A 
HETATM   17  C   UNL     1      38.332 -13.891  -2.467  1.00  0.00     0.031 A 
ENDBRANCH   9  12
BRANCH  10  18
HETATM   18  O   UNL     1      42.060 -12.377  -2.701  1.00  0.00    -0.345 OA
HETATM   19  H   UNL     1      41.603 -12.884  -3.397  1.00  0.00     0.219 HD
ENDBRANCH  10  18
ENDBRANCH   4   7
BRANCH   1  20
HETATM   20  C   UNL     1      42.191 -16.699   4.058  1.00  0.00     0.174 C 
HETATM   21  S   UNL     1      41.266 -17.536   5.187  1.00  0.00    -0.041 SA
BRANCH  20  22
HETATM   22  N   UNL     1      43.305 -17.343   3.596  1.00  0.00    -0.333 N 
HETATM   23  H   UNL     1      43.724 -16.866   2.805  1.00  0.00     0.168 HD
BRANCH  22  24
HETATM   24  C   UNL     1      43.795 -18.646   3.835  1.00  0.00     0.034 A 
HETATM   25  C   UNL     1      43.761 -19.542   2.759  1.00  0.00     0.036 A 
HETATM   26  C   UNL     1      44.182 -20.878   2.899  1.00  0.00    -0.054 A 
HETATM   27  C   UNL     1      44.624 -21.329   4.157  1.00  0.00    -0.056 A 
HETATM   28  C   UNL     1      44.107 -21.800   1.713  1.00  0.00     0.049 C 
HETATM   29  C   UNL     1      45.087 -22.744   4.371  1.00  0.00     0.049 C 
HETATM   30  C   UNL     1      44.653 -20.428   5.230  1.00  0.00     0.009 A 
HETATM   31  C   UNL     1      44.232 -19.104   5.073  1.00  0.00     0.030 A 
ENDBRANCH  22  24
ENDBRANCH  20  22
ENDBRANCH   1  20
TORSDOF 6
ENDMDL
MODEL 7
REMARK VINA RESULT:      -8.3      2.260      7.310
REMARK  6 active torsions:
REMARK  status: ('A' for Active; 'I' for Inactive)
REMARK    1  A    between atoms: C_6  and  N_7 
REMARK    2  A    between atoms: N_7  and  C_8 
REMARK    3  A    between atoms: C_8  and  N_9 
REMARK    4  A    between atoms: C_12  and  C_13 
REMARK    5  A    between atoms: N_15  and  C_16 
REMARK    6  A    between atoms: C_22  and  O_23 
ROOT
HETATM    1  N   UNL     1      40.809 -13.143   3.747  1.00  0.00    -0.358 N 
HETATM    2  C   UNL     1      42.266 -13.185   3.590  1.00  0.00     0.126 C 
HETATM    3  C   UNL     1      42.925 -13.907   4.760  1.00  0.00     0.031 C 
HETATM    4  C   UNL     1      42.372 -15.326   4.946  1.00  0.00     0.043 C 
HETATM    5  C   UNL     1      40.837 -15.301   5.002  1.00  0.00     0.031 C 
HETATM    6  C   UNL     1      40.196 -14.470   3.891  1.00  0.00     0.126 C 
ENDROOT
BRANCH   4   7
HETATM    7  C   UNL     1      42.950 -16.288   3.939  1.00  0.00     0.063 C 
HETATM    8  N   UNL     1      42.922 -17.610   4.128  1.00  0.00    -0.169 NA
HETATM    9  N   UNL     1      43.556 -18.142   3.046  1.00  0.00    -0.211 N 
HETATM   10  C   UNL     1      43.798 -17.160   2.084  1.00  0.00     0.165 C 
HETATM   11  C   UNL     1      43.511 -15.959   2.686  1.00  0.00     0.087 C 
BRANCH   9  12
HETATM   12  C   UNL     1      43.877 -19.530   3.020  1.00  0.00     0.061 A 
HETATM   13  C   UNL     1      43.477 -20.303   1.919  1.00  0.00     0.031 A 
HETATM   14  C   UNL     1      43.783 -21.666   1.866  1.00  0.00     0.002 A 
HETATM   15  C   UNL     1      44.475 -22.267   2.914  1.00  0.00     0.000 A 
HETATM   16  C   UNL     1      44.851 -21.512   4.025  1.00  0.00     0.002 A 
HETATM   17  C   UNL     1      44.549 -20.148   4.084  1.00  0.00     0.031 A 
ENDBRANCH   9  12
BRANCH  10  18
HETATM   18  O   UNL     1      44.188 -17.379   0.828  1.00  0.00    -0.345 OA
HETATM   19  H   UNL     1      44.238 -18.341   0.684  1.00  0.00     0.219 HD
ENDBRANCH  10  18
ENDBRANCH   4   7
BRANCH   1  20
HETATM   20  C   UNL     1      40.065 -12.185   3.067  1.00  0.00     0.174 C 
HETATM   21  S   UNL     1      38.758 -11.342   3.709  1.00  0.00    -0.041 SA
BRANCH  20  22
HETATM   22  N   UNL     1      40.443 -11.836   1.801  1.00  0.00    -0.333 N 
HETATM   23  H   UNL     1      40.457 -10.831   1.667  1.00  0.00     0.168 HD
BRANCH  22  24
HETATM   24  C   UNL     1      40.543 -12.596   0.615  1.00  0.00     0.034 A 
HETATM   25  C   UNL     1      41.585 -12.267  -0.262  1.00  0.00     0.036 A 
HETATM   26  C   UNL     1      41.749 -12.931  -1.493  1.00  0.00    -0.054 A 
HETATM   27  C   UNL     1      40.829 -13.929  -1.861  1.00  0.00    -0.056 A 
HETATM   28  C   UNL     1      42.876 -12.523  -2.402  1.00  0.00     0.049 C 
HETATM   29  C   UNL     1      40.951 -14.674  -3.163  1.00  0.00     0.049 C 
HETATM   30  C   UNL     1      39.787 -14.252  -0.982  1.00  0.00     0.009 A 
HETATM   31  C   UNL     1      39.639 -13.584   0.239  1.00  0.00     0.030 A 
ENDBRANCH  22  24
ENDBRANCH  20  22
ENDBRANCH   1  20
TORSDOF 6
ENDMDL
MODEL 8
REMARK VINA RESULT:      -8.3      2.735      7.358
REMARK  6 active torsions:
REMARK  status: ('A' for Active; 'I' for Inactive)
REMARK    1  A    between atoms: C_6  and  N_7 
REMARK    2  A    between atoms: N_7  and  C_8 
REMARK    3  A    between atoms: C_8  and  N_9 
REMARK    4  A    between atoms: C_12  and  C_13 
REMARK    5  A    between atoms: N_15  and  C_16 
REMARK    6  A    between atoms: C_22  and  O_23 
ROOT
HETATM    1  N   UNL     1      41.554 -13.160   3.555  1.00  0.00    -0.358 N 
HETATM    2  C   UNL     1      42.815 -13.162   4.304  1.00  0.00     0.126 C 
HETATM    3  C   UNL     1      42.578 -13.469   5.778  1.00  0.00     0.031 C 
HETATM    4  C   UNL     1      41.842 -14.801   5.978  1.00  0.00     0.043 C 
HETATM    5  C   UNL     1      40.574 -14.848   5.111  1.00  0.00     0.031 C 
HETATM    6  C   UNL     1      40.806 -14.419   3.663  1.00  0.00     0.126 C 
ENDROOT
BRANCH   4   7
HETATM    7  C   UNL     1      42.764 -15.980   5.810  1.00  0.00     0.063 C 
HETATM    8  N   UNL     1      42.774 -16.716   4.695  1.00  0.00    -0.169 NA
HETATM    9  N   UNL     1      43.693 -17.697   4.918  1.00  0.00    -0.211 N 
HETATM   10  C   UNL     1      44.403 -17.449   6.095  1.00  0.00     0.165 C 
HETATM   11  C   UNL     1      43.748 -16.417   6.723  1.00  0.00     0.087 C 
BRANCH   9  12
HETATM   12  C   UNL     1      43.816 -18.780   4.001  1.00  0.00     0.061 A 
HETATM   13  C   UNL     1      43.146 -18.711   2.769  1.00  0.00     0.031 A 
HETATM   14  C   UNL     1      43.254 -19.757   1.849  1.00  0.00     0.002 A 
HETATM   15  C   UNL     1      44.014 -20.882   2.156  1.00  0.00     0.000 A 
HETATM   16  C   UNL     1      44.659 -20.972   3.389  1.00  0.00     0.002 A 
HETATM   17  C   UNL     1      44.557 -19.927   4.314  1.00  0.00     0.031 A 
ENDBRANCH   9  12
BRANCH  10  18
HETATM   18  O   UNL     1      45.514 -18.076   6.482  1.00  0.00    -0.345 OA
HETATM   19  H   UNL     1      46.115 -17.420   6.879  1.00  0.00     0.219 HD
ENDBRANCH  10  18
ENDBRANCH   4   7
BRANCH   1  20
HETATM   20  C   UNL     1      41.470 -12.488   2.340  1.00  0.00     0.174 C 
HETATM   21  S   UNL     1      40.628 -11.054   2.085  1.00  0.00    -0.041 SA
BRANCH  20  22
HETATM   22  N   UNL     1      42.168 -12.975   1.270  1.00  0.00    -0.333 N 
HETATM   23  H   UNL     1      43.061 -12.509   1.150  1.00  0.00     0.168 HD
BRANCH  22  24
HETATM   24  C   UNL     1      41.765 -13.781   0.183  1.00  0.00     0.034 A 
HETATM   25  C   UNL     1      41.412 -13.119  -1.000  1.00  0.00     0.036 A 
HETATM   26  C   UNL     1      40.953 -13.823  -2.130  1.00  0.00    -0.054 A 
HETATM   27  C   UNL     1      40.822 -15.221  -2.059  1.00  0.00    -0.056 A 
HETATM   28  C   UNL     1      40.573 -13.056  -3.367  1.00  0.00     0.049 C 
HETATM   29  C   UNL     1      40.337 -16.030  -3.232  1.00  0.00     0.049 C 
HETATM   30  C   UNL     1      41.174 -15.879  -0.872  1.00  0.00     0.009 A 
HETATM   31  C   UNL     1      41.629 -15.164   0.241  1.00  0.00     0.030 A 
ENDBRANCH  22  24
ENDBRANCH  20  22
ENDBRANCH   1  20
TORSDOF 6
ENDMDL
MODEL 9
REMARK VINA RESULT:      -8.2      4.595      8.473
REMARK  6 active torsions:
REMARK  status: ('A' for Active; 'I' for Inactive)
REMARK    1  A    between atoms: C_6  and  N_7 
REMARK    2  A    between atoms: N_7  and  C_8 
REMARK    3  A    between atoms: C_8  and  N_9 
REMARK    4  A    between atoms: C_12  and  C_13 
REMARK    5  A    between atoms: N_15  and  C_16 
REMARK    6  A    between atoms: C_22  and  O_23 
ROOT
HETATM    1  N   UNL     1      41.418 -13.212   5.479  1.00  0.00    -0.358 N 
HETATM    2  C   UNL     1      42.851 -13.493   5.355  1.00  0.00     0.126 C 
HETATM    3  C   UNL     1      43.271 -14.627   6.283  1.00  0.00     0.031 C 
HETATM    4  C   UNL     1      42.459 -15.905   6.035  1.00  0.00     0.043 C 
HETATM    5  C   UNL     1      40.954 -15.596   6.055  1.00  0.00     0.031 C 
HETATM    6  C   UNL     1      40.567 -14.380   5.216  1.00  0.00     0.126 C 
ENDROOT
BRANCH   4   7
HETATM    7  C   UNL     1      42.935 -16.641   4.808  1.00  0.00     0.063 C 
HETATM    8  N   UNL     1      42.949 -17.975   4.746  1.00  0.00    -0.169 NA
HETATM    9  N   UNL     1      43.465 -18.274   3.521  1.00  0.00    -0.211 N 
HETATM   10  C   UNL     1      43.581 -17.122   2.741  1.00  0.00     0.165 C 
HETATM   11  C   UNL     1      43.345 -16.065   3.587  1.00  0.00     0.087 C 
BRANCH   9  12
HETATM   12  C   UNL     1      43.803 -19.620   3.200  1.00  0.00     0.061 A 
HETATM   13  C   UNL     1      44.511 -20.389   4.137  1.00  0.00     0.031 A 
HETATM   14  C   UNL     1      44.851 -21.713   3.849  1.00  0.00     0.002 A 
HETATM   15  C   UNL     1      44.503 -22.273   2.622  1.00  0.00     0.000 A 
HETATM   16  C   UNL     1      43.825 -21.507   1.675  1.00  0.00     0.002 A 
HETATM   17  C   UNL     1      43.479 -20.182   1.957  1.00  0.00     0.031 A 
ENDBRANCH   9  12
BRANCH  10  18
HETATM   18  O   UNL     1      43.830 -17.088   1.432  1.00  0.00    -0.345 OA
HETATM   19  H   UNL     1      44.399 -16.319   1.246  1.00  0.00     0.219 HD
ENDBRANCH  10  18
ENDBRANCH   4   7
BRANCH   1  20
HETATM   20  C   UNL     1      40.917 -11.976   5.087  1.00  0.00     0.174 C 
HETATM   21  S   UNL     1      40.125 -11.671   3.634  1.00  0.00    -0.041 SA
BRANCH  20  22
HETATM   22  N   UNL     1      41.003 -10.925   5.957  1.00  0.00    -0.333 N 
HETATM   23  H   UNL     1      41.445 -10.114   5.537  1.00  0.00     0.168 HD
BRANCH  22  24
HETATM   24  C   UNL     1      40.849 -10.860   7.359  1.00  0.00     0.034 A 
HETATM   25  C   UNL     1      42.009 -10.649   8.115  1.00  0.00     0.036 A 
HETATM   26  C   UNL     1      41.976 -10.613   9.522  1.00  0.00    -0.054 A 
HETATM   27  C   UNL     1      40.752 -10.820  10.184  1.00  0.00    -0.056 A 
HETATM   28  C   UNL     1      43.256 -10.400  10.281  1.00  0.00     0.049 C 
HETATM   29  C   UNL     1      40.651 -10.793  11.685  1.00  0.00     0.049 C 
HETATM   30  C   UNL     1      39.595 -11.033   9.423  1.00  0.00     0.009 A 
HETATM   31  C   UNL     1      39.645 -11.065   8.025  1.00  0.00     0.030 A 
ENDBRANCH  22  24
ENDBRANCH  20  22
ENDBRANCH   1  20
TORSDOF 6
ENDMDL
MODEL 10
REMARK VINA RESULT:      -8.1      2.091      2.982
REMARK  6 active torsions:
REMARK  status: ('A' for Active; 'I' for Inactive)
REMARK    1  A    between atoms: C_6  and  N_7 
REMARK    2  A    between atoms: N_7  and  C_8 
REMARK    3  A    between atoms: C_8  and  N_9 
REMARK    4  A    between atoms: C_12  and  C_13 
REMARK    5  A    between atoms: N_15  and  C_16 
REMARK    6  A    between atoms: C_22  and  O_23 
ROOT
HETATM    1  N   UNL     1      42.184 -14.428   5.535  1.00  0.00    -0.358 N 
HETATM    2  C   UNL     1      40.870 -14.918   5.107  1.00  0.00     0.126 C 
HETATM    3  C   UNL     1      39.855 -13.783   5.041  1.00  0.00     0.031 C 
HETATM    4  C   UNL     1      40.321 -12.646   4.121  1.00  0.00     0.043 C 
HETATM    5  C   UNL     1      41.742 -12.201   4.497  1.00  0.00     0.031 C 
HETATM    6  C   UNL     1      42.720 -13.362   4.679  1.00  0.00     0.126 C 
ENDROOT
BRANCH   4   7
HETATM    7  C   UNL     1      40.132 -12.991   2.666  1.00  0.00     0.063 C 
HETATM    8  N   UNL     1      41.116 -12.851   1.774  1.00  0.00    -0.169 NA
HETATM    9  N   UNL     1      40.576 -13.220   0.579  1.00  0.00    -0.211 N 
HETATM   10  C   UNL     1      39.312 -13.785   0.764  1.00  0.00     0.165 C 
HETATM   11  C   UNL     1      38.978 -13.548   2.075  1.00  0.00     0.087 C 
BRANCH   9  12
HETATM   12  C   UNL     1      41.300 -13.003  -0.628  1.00  0.00     0.061 A 
HETATM   13  C   UNL     1      42.110 -11.862  -0.743  1.00  0.00     0.031 A 
HETATM   14  C   UNL     1      42.836 -11.628  -1.914  1.00  0.00     0.002 A 
HETATM   15  C   UNL     1      42.746 -12.518  -2.981  1.00  0.00     0.000 A 
HETATM   16  C   UNL     1      41.922 -13.639  -2.886  1.00  0.00     0.002 A 
HETATM   17  C   UNL     1      41.194 -13.881  -1.716  1.00  0.00     0.031 A 
ENDBRANCH   9  12
BRANCH  10  18
HETATM   18  O   UNL     1      38.615 -14.452  -0.157  1.00  0.00    -0.345 OA
HETATM   19  H   UNL     1      39.231 -14.763  -0.844  1.00  0.00     0.219 HD
ENDBRANCH  10  18
ENDBRANCH   4   7
BRANCH   1  20
HETATM   20  C   UNL     1      43.109 -15.310   6.082  1.00  0.00     0.174 C 
HETATM   21  S   UNL     1      44.525 -14.859   6.872  1.00  0.00    -0.041 SA
BRANCH  20  22
HETATM   22  N   UNL     1      42.840 -16.650   6.047  1.00  0.00    -0.333 N 
HETATM   23  H   UNL     1      42.327 -16.962   6.865  1.00  0.00     0.168 HD
BRANCH  22  24
HETATM   24  C   UNL     1      43.369 -17.686   5.245  1.00  0.00     0.034 A 
HETATM   25  C   UNL     1      43.299 -17.511   3.857  1.00  0.00     0.036 A 
HETATM   26  C   UNL     1      43.754 -18.501   2.966  1.00  0.00    -0.054 A 
HETATM   27  C   UNL     1      44.268 -19.704   3.482  1.00  0.00    -0.056 A 
HETATM   28  C   UNL     1      43.638 -18.264   1.485  1.00  0.00     0.049 C 
HETATM   29  C   UNL     1      44.771 -20.800   2.582  1.00  0.00     0.049 C 
HETATM   30  C   UNL     1      44.333 -19.875   4.872  1.00  0.00     0.009 A 
HETATM   31  C   UNL     1      43.877 -18.881   5.744  1.00  0.00     0.030 A 
ENDBRANCH  22  24
ENDBRANCH  20  22
ENDBRANCH   1  20
TORSDOF 6
ENDMDL
