MODEL 1
REMARK VINA RESULT:      -8.2      0.000      0.000
REMARK  7 active torsions:
REMARK  status: ('A' for Active; 'I' for Inactive)
REMARK    1  A    between atoms: C_2  and  O_3 
REMARK    2  A    between atoms: O_3  and  C_4 
REMARK    3  A    between atoms: C_4  and  C_5 
REMARK    4  A    between atoms: C_6  and  C_7 
REMARK    5  A    between atoms: C_18  and  S_19 
REMARK    6  A    between atoms: S_19  and  C_20 
REMARK    7  A    between atoms: C_20  and  C_21 
ROOT
HETATM    1  C   UNL     1      42.127 -15.662   5.157  1.00  0.00     0.070 C 
HETATM    2  C   UNL     1      41.392 -16.296   3.972  1.00  0.00     0.203 C 
HETATM    3  N   UNL     1      40.639 -15.287   3.223  1.00  0.00    -0.082 N 
HETATM    4  C   UNL     1      40.841 -13.941   3.345  1.00  0.00     0.726 A 
HETATM    5  N   UNL     1      41.757 -13.495   4.227  1.00  0.00    -0.192 N 
HETATM    6  N   UNL     1      39.616 -15.560   2.396  1.00  0.00    -0.128 NA
HETATM    7  C   UNL     1      39.276 -14.326   2.001  1.00  0.00     0.226 A 
HETATM    8  N   UNL     1      40.016 -13.306   2.552  1.00  0.00    -0.035 NA
HETATM    9  C   UNL     1      42.326 -14.318   5.203  1.00  0.00     0.037 C 
HETATM   10  C   UNL     1      43.147 -13.598   6.245  1.00  0.00     0.070 C 
HETATM   11  H   UNL     1      41.825 -12.491   4.376  1.00  0.00     0.184 HD
ENDROOT
BRANCH   7  12
HETATM   12  S   UNL     1      37.952 -14.086   0.901  1.00  0.00    -0.083 SA
BRANCH  12  13
HETATM   13  C   UNL     1      38.793 -13.211  -0.445  1.00  0.00     0.123 C 
BRANCH  13  14
HETATM   14  C   UNL     1      39.096 -14.143  -1.596  1.00  0.00    -0.027 A 
HETATM   15  C   UNL     1      40.335 -14.787  -1.749  1.00  0.00     0.041 A 
HETATM   16 CL   UNL     1      41.619 -14.595  -0.609  1.00  0.00    -0.084 Cl
HETATM   17  C   UNL     1      40.574 -15.616  -2.852  1.00  0.00     0.024 A 
HETATM   18  C   UNL     1      39.586 -15.806  -3.818  1.00  0.00     0.002 A 
HETATM   19  C   UNL     1      38.357 -15.168  -3.684  1.00  0.00     0.001 A 
HETATM   20  C   UNL     1      38.113 -14.344  -2.585  1.00  0.00     0.009 A 
ENDBRANCH  13  14
ENDBRANCH  12  13
ENDBRANCH   7  12
BRANCH   2  21
HETATM   21  C   UNL     1      42.337 -17.033   3.020  1.00  0.00    -0.026 A 
HETATM   22  C   UNL     1      42.251 -18.430   2.896  1.00  0.00     0.033 A 
HETATM   23  C   UNL     1      43.120 -19.119   2.048  1.00  0.00     0.034 A 
HETATM   24 CL   UNL     1      43.006 -20.831   1.916  1.00  0.00    -0.084 Cl
HETATM   25  C   UNL     1      44.083 -18.434   1.312  1.00  0.00     0.024 A 
HETATM   26  C   UNL     1      44.178 -17.048   1.420  1.00  0.00     0.002 A 
HETATM   27  C   UNL     1      43.313 -16.351   2.267  1.00  0.00     0.010 A 
ENDBRANCH   2  21
BRANCH   1  28
HETATM   28  C   UNL     1      42.496 -16.663   6.193  1.00  0.00     0.293 C 
HETATM   29  O   UNL     1      41.731 -17.009   7.080  1.00  0.00    -0.259 OA
BRANCH  28  30
HETATM   30  O   UNL     1      43.793 -17.038   6.099  1.00  0.00    -0.318 OA
BRANCH  30  31
HETATM   31  C   UNL     1      44.069 -18.419   6.379  1.00  0.00     0.174 C 
HETATM   32  C   UNL     1      44.957 -19.020   5.305  1.00  0.00     0.034 C 
ENDBRANCH  30  31
ENDBRANCH  28  30
ENDBRANCH   1  28
TORSDOF 7
ENDMDL
MODEL 2
REMARK VINA RESULT:      -8.1      3.411      6.808
REMARK  7 active torsions:
REMARK  status: ('A' for Active; 'I' for Inactive)
REMARK    1  A    between atoms: C_2  and  O_3 
REMARK    2  A    between atoms: O_3  and  C_4 
REMARK    3  A    between atoms: C_4  and  C_5 
REMARK    4  A    between atoms: C_6  and  C_7 
REMARK    5  A    between atoms: C_18  and  S_19 
REMARK    6  A    between atoms: S_19  and  C_20 
REMARK    7  A    between atoms: C_20  and  C_21 
ROOT
HETATM    1  C   UNL     1      41.776 -12.586   1.996  1.00  0.00     0.070 C 
HETATM    2  C   UNL     1      42.651 -13.734   2.509  1.00  0.00     0.203 C 
HETATM    3  N   UNL     1      42.841 -13.640   3.959  1.00  0.00    -0.082 N 
HETATM    4  C   UNL     1      42.072 -12.861   4.777  1.00  0.00     0.726 A 
HETATM    5  N   UNL     1      41.102 -12.100   4.233  1.00  0.00    -0.192 N 
HETATM    6  N   UNL     1      43.834 -14.239   4.637  1.00  0.00    -0.128 NA
HETATM    7  C   UNL     1      43.572 -13.824   5.883  1.00  0.00     0.226 A 
HETATM    8  N   UNL     1      42.488 -12.988   6.012  1.00  0.00    -0.035 NA
HETATM    9  C   UNL     1      41.007 -11.870   2.858  1.00  0.00     0.037 C 
HETATM   10  C   UNL     1      40.010 -10.811   2.455  1.00  0.00     0.070 C 
HETATM   11  H   UNL     1      40.605 -11.455   4.842  1.00  0.00     0.184 HD
ENDROOT
BRANCH   7  12
HETATM   12  S   UNL     1      44.594 -14.306   7.205  1.00  0.00    -0.083 SA
BRANCH  12  13
HETATM   13  C   UNL     1      43.720 -15.788   7.777  1.00  0.00     0.123 C 
BRANCH  13  14
HETATM   14  C   UNL     1      43.699 -16.855   6.706  1.00  0.00    -0.027 A 
HETATM   15  C   UNL     1      42.543 -17.183   5.979  1.00  0.00     0.041 A 
HETATM   16 CL   UNL     1      41.040 -16.366   6.223  1.00  0.00    -0.084 Cl
HETATM   17  C   UNL     1      42.571 -18.203   5.020  1.00  0.00     0.024 A 
HETATM   18  C   UNL     1      43.747 -18.913   4.781  1.00  0.00     0.002 A 
HETATM   19  C   UNL     1      44.898 -18.605   5.499  1.00  0.00     0.001 A 
HETATM   20  C   UNL     1      44.876 -17.587   6.453  1.00  0.00     0.009 A 
ENDBRANCH  13  14
ENDBRANCH  12  13
ENDBRANCH   7  12
BRANCH   2  21
HETATM   21  C   UNL     1      42.080 -15.110   2.161  1.00  0.00    -0.026 A 
HETATM   22  C   UNL     1      42.947 -16.152   1.790  1.00  0.00     0.033 A 
HETATM   23  C   UNL     1      42.440 -17.406   1.450  1.00  0.00     0.034 A 
HETATM   24 CL   UNL     1      43.517 -18.667   0.989  1.00  0.00    -0.084 Cl
HETATM   25  C   UNL     1      41.068 -17.646   1.473  1.00  0.00     0.024 A 
HETATM   26  C   UNL     1      40.195 -16.625   1.843  1.00  0.00     0.002 A 
HETATM   27  C   UNL     1      40.695 -15.366   2.185  1.00  0.00     0.010 A 
ENDBRANCH   2  21
BRANCH   1  28
HETATM   28  C   UNL     1      41.943 -12.359   0.536  1.00  0.00     0.293 C 
HETATM   29  O   UNL     1      42.834 -11.664   0.072  1.00  0.00    -0.259 OA
BRANCH  28  30
HETATM   30  O   UNL     1      40.936 -12.907  -0.183  1.00  0.00    -0.318 OA
BRANCH  30  31
HETATM   31  C   UNL     1      41.306 -13.486  -1.444  1.00  0.00     0.174 C 
HETATM   32  C   UNL     1      41.083 -14.987  -1.433  1.00  0.00     0.034 C 
ENDBRANCH  30  31
ENDBRANCH  28  30
ENDBRANCH   1  28
TORSDOF 7
ENDMDL
MODEL 3
REMARK VINA RESULT:      -7.9      3.770      8.204
REMARK  7 active torsions:
REMARK  status: ('A' for Active; 'I' for Inactive)
REMARK    1  A    between atoms: C_2  and  O_3 
REMARK    2  A    between atoms: O_3  and  C_4 
REMARK    3  A    between atoms: C_4  and  C_5 
REMARK    4  A    between atoms: C_6  and  C_7 
REMARK    5  A    between atoms: C_18  and  S_19 
REMARK    6  A    between atoms: S_19  and  C_20 
REMARK    7  A    between atoms: C_20  and  C_21 
ROOT
HETATM    1  C   UNL     1      39.727 -13.920  -1.557  1.00  0.00     0.070 C 
HETATM    2  C   UNL     1      39.238 -14.175  -0.128  1.00  0.00     0.203 C 
HETATM    3  N   UNL     1      40.246 -14.901   0.648  1.00  0.00    -0.082 N 
HETATM    4  C   UNL     1      41.554 -15.021   0.272  1.00  0.00     0.726 A 
HETATM    5  N   UNL     1      41.951 -14.478  -0.895  1.00  0.00    -0.192 N 
HETATM    6  N   UNL     1      39.989 -15.596   1.769  1.00  0.00    -0.128 NA
HETATM    7  C   UNL     1      41.207 -16.070   2.055  1.00  0.00     0.226 A 
HETATM    8  N   UNL     1      42.199 -15.727   1.167  1.00  0.00    -0.035 NA
HETATM    9  C   UNL     1      41.048 -14.023  -1.860  1.00  0.00     0.037 C 
HETATM   10  C   UNL     1      41.662 -13.668  -3.193  1.00  0.00     0.070 C 
HETATM   11  H   UNL     1      42.902 -14.661  -1.207  1.00  0.00     0.184 HD
ENDROOT
BRANCH   7  12
HETATM   12  S   UNL     1      41.453 -17.085   3.446  1.00  0.00    -0.083 SA
BRANCH  12  13
HETATM   13  C   UNL     1      43.257 -17.264   3.412  1.00  0.00     0.123 C 
BRANCH  13  14
HETATM   14  C   UNL     1      43.656 -18.712   3.237  1.00  0.00    -0.027 A 
HETATM   15  C   UNL     1      44.466 -19.396   4.158  1.00  0.00     0.041 A 
HETATM   16 CL   UNL     1      45.052 -18.648   5.601  1.00  0.00    -0.084 Cl
HETATM   17  C   UNL     1      44.833 -20.728   3.930  1.00  0.00     0.024 A 
HETATM   18  C   UNL     1      44.406 -21.390   2.780  1.00  0.00     0.002 A 
HETATM   19  C   UNL     1      43.610 -20.722   1.854  1.00  0.00     0.001 A 
HETATM   20  C   UNL     1      43.239 -19.396   2.078  1.00  0.00     0.009 A 
ENDBRANCH  13  14
ENDBRANCH  12  13
ENDBRANCH   7  12
BRANCH   2  21
HETATM   21  C   UNL     1      38.866 -12.884   0.605  1.00  0.00    -0.026 A 
HETATM   22  C   UNL     1      39.881 -12.036   1.080  1.00  0.00     0.033 A 
HETATM   23  C   UNL     1      39.559 -10.866   1.769  1.00  0.00     0.034 A 
HETATM   24 CL   UNL     1      40.816  -9.844   2.352  1.00  0.00    -0.084 Cl
HETATM   25  C   UNL     1      38.229 -10.520   1.995  1.00  0.00     0.024 A 
HETATM   26  C   UNL     1      37.211 -11.348   1.527  1.00  0.00     0.002 A 
HETATM   27  C   UNL     1      37.525 -12.521   0.836  1.00  0.00     0.010 A 
ENDBRANCH   2  21
BRANCH   1  28
HETATM   28  C   UNL     1      38.608 -13.632  -2.494  1.00  0.00     0.293 C 
HETATM   29  O   UNL     1      38.380 -12.514  -2.929  1.00  0.00    -0.259 OA
BRANCH  28  30
HETATM   30  O   UNL     1      37.825 -14.717  -2.700  1.00  0.00    -0.318 OA
BRANCH  30  31
HETATM   31  C   UNL     1      37.798 -15.226  -4.042  1.00  0.00     0.174 C 
HETATM   32  C   UNL     1      38.923 -16.220  -4.264  1.00  0.00     0.034 C 
ENDBRANCH  30  31
ENDBRANCH  28  30
ENDBRANCH   1  28
TORSDOF 7
ENDMDL
MODEL 4
REMARK VINA RESULT:      -7.6      3.653      7.586
REMARK  7 active torsions:
REMARK  status: ('A' for Active; 'I' for Inactive)
REMARK    1  A    between atoms: C_2  and  O_3 
REMARK    2  A    between atoms: O_3  and  C_4 
REMARK    3  A    between atoms: C_4  and  C_5 
REMARK    4  A    between atoms: C_6  and  C_7 
REMARK    5  A    between atoms: C_18  and  S_19 
REMARK    6  A    between atoms: S_19  and  C_20 
REMARK    7  A    between atoms: C_20  and  C_21 
ROOT
HETATM    1  C   UNL     1      41.742 -12.138   0.136  1.00  0.00     0.070 C 
HETATM    2  C   UNL     1      41.899 -13.642  -0.106  1.00  0.00     0.203 C 
HETATM    3  N   UNL     1      41.607 -14.401   1.112  1.00  0.00    -0.082 N 
HETATM    4  C   UNL     1      40.954 -13.882   2.194  1.00  0.00     0.726 A 
HETATM    5  N   UNL     1      40.582 -12.588   2.173  1.00  0.00    -0.192 N 
HETATM    6  N   UNL     1      42.014 -15.662   1.339  1.00  0.00    -0.128 NA
HETATM    7  C   UNL     1      41.520 -15.868   2.567  1.00  0.00     0.226 A 
HETATM    8  N   UNL     1      40.850 -14.802   3.119  1.00  0.00    -0.035 NA
HETATM    9  C   UNL     1      41.051 -11.684   1.215  1.00  0.00     0.037 C 
HETATM   10  C   UNL     1      40.717 -10.237   1.485  1.00  0.00     0.070 C 
HETATM   11  H   UNL     1      40.186 -12.192   3.022  1.00  0.00     0.184 HD
ENDROOT
BRANCH   7  12
HETATM   12  S   UNL     1      41.778 -17.385   3.377  1.00  0.00    -0.083 SA
BRANCH  12  13
HETATM   13  C   UNL     1      43.512 -17.698   2.951  1.00  0.00     0.123 C 
BRANCH  13  14
HETATM   14  C   UNL     1      43.818 -19.178   2.971  1.00  0.00    -0.027 A 
HETATM   15  C   UNL     1      44.481 -19.805   4.039  1.00  0.00     0.041 A 
HETATM   16 CL   UNL     1      44.975 -18.940   5.450  1.00  0.00    -0.084 Cl
HETATM   17  C   UNL     1      44.769 -21.175   3.991  1.00  0.00     0.024 A 
HETATM   18  C   UNL     1      44.409 -21.932   2.877  1.00  0.00     0.002 A 
HETATM   19  C   UNL     1      43.760 -21.323   1.808  1.00  0.00     0.001 A 
HETATM   20  C   UNL     1      43.468 -19.959   1.852  1.00  0.00     0.009 A 
ENDBRANCH  13  14
ENDBRANCH  12  13
ENDBRANCH   7  12
BRANCH   2  21
HETATM   21  C   UNL     1      41.012 -14.150  -1.245  1.00  0.00    -0.026 A 
HETATM   22  C   UNL     1      39.771 -13.536  -1.489  1.00  0.00     0.033 A 
HETATM   23  C   UNL     1      38.941 -14.001  -2.510  1.00  0.00     0.034 A 
HETATM   24 CL   UNL     1      37.422 -13.243  -2.788  1.00  0.00    -0.084 Cl
HETATM   25  C   UNL     1      39.329 -15.078  -3.303  1.00  0.00     0.024 A 
HETATM   26  C   UNL     1      40.558 -15.695  -3.077  1.00  0.00     0.002 A 
HETATM   27  C   UNL     1      41.395 -15.235  -2.057  1.00  0.00     0.010 A 
ENDBRANCH   2  21
BRANCH   1  28
HETATM   28  C   UNL     1      42.464 -11.324  -0.877  1.00  0.00     0.293 C 
HETATM   29  O   UNL     1      43.657 -11.073  -0.797  1.00  0.00    -0.259 OA
BRANCH  28  30
HETATM   30  O   UNL     1      41.627 -10.811  -1.809  1.00  0.00    -0.318 OA
BRANCH  30  31
HETATM   31  C   UNL     1      42.188 -10.611  -3.116  1.00  0.00     0.174 C 
HETATM   32  C   UNL     1      42.110 -11.886  -3.936  1.00  0.00     0.034 C 
ENDBRANCH  30  31
ENDBRANCH  28  30
ENDBRANCH   1  28
TORSDOF 7
ENDMDL
MODEL 5
REMARK VINA RESULT:      -7.5      3.809      8.322
REMARK  7 active torsions:
REMARK  status: ('A' for Active; 'I' for Inactive)
REMARK    1  A    between atoms: C_2  and  O_3 
REMARK    2  A    between atoms: O_3  and  C_4 
REMARK    3  A    between atoms: C_4  and  C_5 
REMARK    4  A    between atoms: C_6  and  C_7 
REMARK    5  A    between atoms: C_18  and  S_19 
REMARK    6  A    between atoms: S_19  and  C_20 
REMARK    7  A    between atoms: C_20  and  C_21 
ROOT
HETATM    1  C   UNL     1      39.630 -13.812  -1.592  1.00  0.00     0.070 C 
HETATM    2  C   UNL     1      39.089 -14.062  -0.181  1.00  0.00     0.203 C 
HETATM    3  N   UNL     1      40.102 -14.702   0.662  1.00  0.00    -0.082 N 
HETATM    4  C   UNL     1      41.431 -14.748   0.352  1.00  0.00     0.726 A 
HETATM    5  N   UNL     1      41.850 -14.210  -0.811  1.00  0.00    -0.192 N 
HETATM    6  N   UNL     1      39.834 -15.383   1.789  1.00  0.00    -0.128 NA
HETATM    7  C   UNL     1      41.065 -15.771   2.146  1.00  0.00     0.226 A 
HETATM    8  N   UNL     1      42.075 -15.387   1.295  1.00  0.00    -0.035 NA
HETATM    9  C   UNL     1      40.968 -13.839  -1.830  1.00  0.00     0.037 C 
HETATM   10  C   UNL     1      41.623 -13.478  -3.141  1.00  0.00     0.070 C 
HETATM   11  H   UNL     1      42.824 -14.339  -1.072  1.00  0.00     0.184 HD
ENDROOT
BRANCH   7  12
HETATM   12  S   UNL     1      41.306 -16.732   3.575  1.00  0.00    -0.083 SA
BRANCH  12  13
HETATM   13  C   UNL     1      43.111 -16.654   3.727  1.00  0.00     0.123 C 
BRANCH  13  14
HETATM   14  C   UNL     1      43.713 -18.039   3.782  1.00  0.00    -0.027 A 
HETATM   15  C   UNL     1      44.001 -18.792   2.632  1.00  0.00     0.041 A 
HETATM   16 CL   UNL     1      43.723 -18.181   1.040  1.00  0.00    -0.084 Cl
HETATM   17  C   UNL     1      44.528 -20.084   2.741  1.00  0.00     0.024 A 
HETATM   18  C   UNL     1      44.766 -20.645   3.995  1.00  0.00     0.002 A 
HETATM   19  C   UNL     1      44.477 -19.915   5.144  1.00  0.00     0.001 A 
HETATM   20  C   UNL     1      43.955 -18.625   5.040  1.00  0.00     0.009 A 
ENDBRANCH  13  14
ENDBRANCH  12  13
ENDBRANCH   7  12
BRANCH   2  21
HETATM   21  C   UNL     1      38.602 -12.779   0.497  1.00  0.00    -0.026 A 
HETATM   22  C   UNL     1      37.234 -12.456   0.477  1.00  0.00     0.033 A 
HETATM   23  C   UNL     1      36.777 -11.280   1.072  1.00  0.00     0.034 A 
HETATM   24 CL   UNL     1      35.100 -10.895   1.029  1.00  0.00    -0.084 Cl
HETATM   25  C   UNL     1      37.667 -10.410   1.697  1.00  0.00     0.024 A 
HETATM   26  C   UNL     1      39.026 -10.718   1.730  1.00  0.00     0.002 A 
HETATM   27  C   UNL     1      39.491 -11.893   1.136  1.00  0.00     0.010 A 
ENDBRANCH   2  21
BRANCH   1  28
HETATM   28  C   UNL     1      38.542 -13.621  -2.588  1.00  0.00     0.293 C 
HETATM   29  O   UNL     1      38.310 -12.544  -3.115  1.00  0.00    -0.259 OA
BRANCH  28  30
HETATM   30  O   UNL     1      37.788 -14.735  -2.738  1.00  0.00    -0.318 OA
BRANCH  30  31
HETATM   31  C   UNL     1      37.764 -15.304  -4.056  1.00  0.00     0.174 C 
HETATM   32  C   UNL     1      38.970 -16.198  -4.278  1.00  0.00     0.034 C 
ENDBRANCH  30  31
ENDBRANCH  28  30
ENDBRANCH   1  28
TORSDOF 7
ENDMDL
MODEL 6
REMARK VINA RESULT:      -7.4      1.840      2.246
REMARK  7 active torsions:
REMARK  status: ('A' for Active; 'I' for Inactive)
REMARK    1  A    between atoms: C_2  and  O_3 
REMARK    2  A    between atoms: O_3  and  C_4 
REMARK    3  A    between atoms: C_4  and  C_5 
REMARK    4  A    between atoms: C_6  and  C_7 
REMARK    5  A    between atoms: C_18  and  S_19 
REMARK    6  A    between atoms: S_19  and  C_20 
REMARK    7  A    between atoms: C_20  and  C_21 
ROOT
HETATM    1  C   UNL     1      42.570 -15.885   5.609  1.00  0.00     0.070 C 
HETATM    2  C   UNL     1      42.010 -16.162   4.211  1.00  0.00     0.203 C 
HETATM    3  N   UNL     1      42.255 -15.028   3.316  1.00  0.00    -0.082 N 
HETATM    4  C   UNL     1      43.150 -14.029   3.580  1.00  0.00     0.726 A 
HETATM    5  N   UNL     1      43.830 -14.052   4.743  1.00  0.00    -0.192 N 
HETATM    6  N   UNL     1      41.577 -14.795   2.179  1.00  0.00    -0.128 NA
HETATM    7  C   UNL     1      42.156 -13.659   1.770  1.00  0.00     0.226 A 
HETATM    8  N   UNL     1      43.137 -13.165   2.597  1.00  0.00    -0.035 NA
HETATM    9  C   UNL     1      43.484 -14.897   5.801  1.00  0.00     0.037 C 
HETATM   10  C   UNL     1      44.202 -14.621   7.100  1.00  0.00     0.070 C 
HETATM   11  H   UNL     1      44.417 -13.253   4.967  1.00  0.00     0.184 HD
ENDROOT
BRANCH   7  12
HETATM   12  S   UNL     1      41.631 -12.881   0.306  1.00  0.00    -0.083 SA
BRANCH  12  13
HETATM   13  C   UNL     1      39.999 -13.640   0.093  1.00  0.00     0.123 C 
BRANCH  13  14
HETATM   14  C   UNL     1      39.853 -14.242  -1.286  1.00  0.00    -0.027 A 
HETATM   15  C   UNL     1      38.795 -13.919  -2.151  1.00  0.00     0.041 A 
HETATM   16 CL   UNL     1      37.576 -12.771  -1.725  1.00  0.00    -0.084 Cl
HETATM   17  C   UNL     1      38.691 -14.531  -3.406  1.00  0.00     0.024 A 
HETATM   18  C   UNL     1      39.633 -15.477  -3.809  1.00  0.00     0.002 A 
HETATM   19  C   UNL     1      40.682 -15.813  -2.960  1.00  0.00     0.001 A 
HETATM   20  C   UNL     1      40.792 -15.203  -1.710  1.00  0.00     0.009 A 
ENDBRANCH  13  14
ENDBRANCH  12  13
ENDBRANCH   7  12
BRANCH   2  21
HETATM   21  C   UNL     1      42.589 -17.434   3.587  1.00  0.00    -0.026 A 
HETATM   22  C   UNL     1      43.568 -18.167   4.280  1.00  0.00     0.033 A 
HETATM   23  C   UNL     1      44.121 -19.317   3.716  1.00  0.00     0.034 A 
HETATM   24 CL   UNL     1      45.325 -20.196   4.575  1.00  0.00    -0.084 Cl
HETATM   25  C   UNL     1      43.711 -19.757   2.460  1.00  0.00     0.024 A 
HETATM   26  C   UNL     1      42.737 -19.045   1.762  1.00  0.00     0.002 A 
HETATM   27  C   UNL     1      42.179 -17.892   2.320  1.00  0.00     0.010 A 
ENDBRANCH   2  21
BRANCH   1  28
HETATM   28  C   UNL     1      41.952 -16.753   6.646  1.00  0.00     0.293 C 
HETATM   29  O   UNL     1      40.760 -17.020   6.661  1.00  0.00    -0.259 OA
BRANCH  28  30
HETATM   30  O   UNL     1      42.834 -17.099   7.613  1.00  0.00    -0.318 OA
BRANCH  30  31
HETATM   31  C   UNL     1      43.384 -18.422   7.517  1.00  0.00     0.174 C 
HETATM   32  C   UNL     1      44.353 -18.686   8.655  1.00  0.00     0.034 C 
ENDBRANCH  30  31
ENDBRANCH  28  30
ENDBRANCH   1  28
TORSDOF 7
ENDMDL
MODEL 7
REMARK VINA RESULT:      -7.4      5.002      8.966
REMARK  7 active torsions:
REMARK  status: ('A' for Active; 'I' for Inactive)
REMARK    1  A    between atoms: C_2  and  O_3 
REMARK    2  A    between atoms: O_3  and  C_4 
REMARK    3  A    between atoms: C_4  and  C_5 
REMARK    4  A    between atoms: C_6  and  C_7 
REMARK    5  A    between atoms: C_18  and  S_19 
REMARK    6  A    between atoms: S_19  and  C_20 
REMARK    7  A    between atoms: C_20  and  C_21 
ROOT
HETATM    1  C   UNL     1      40.908 -13.087   3.487  1.00  0.00     0.070 C 
HETATM    2  C   UNL     1      41.593 -13.046   4.856  1.00  0.00     0.203 C 
HETATM    3  N   UNL     1      40.890 -12.137   5.765  1.00  0.00    -0.082 N 
HETATM    4  C   UNL     1      39.623 -11.672   5.548  1.00  0.00     0.726 A 
HETATM    5  N   UNL     1      38.982 -12.030   4.418  1.00  0.00    -0.192 N 
HETATM    6  N   UNL     1      41.431 -11.594   6.869  1.00  0.00    -0.128 NA
HETATM    7  C   UNL     1      40.410 -10.848   7.309  1.00  0.00     0.226 A 
HETATM    8  N   UNL     1      39.277 -10.882   6.531  1.00  0.00    -0.035 NA
HETATM    9  C   UNL     1      39.633 -12.640   3.342  1.00  0.00     0.037 C 
HETATM   10  C   UNL     1      38.813 -12.753   2.080  1.00  0.00     0.070 C 
HETATM   11  H   UNL     1      38.081 -11.598   4.225  1.00  0.00     0.184 HD
ENDROOT
BRANCH   7  12
HETATM   12  S   UNL     1      40.578  -9.887   8.749  1.00  0.00    -0.083 SA
BRANCH  12  13
HETATM   13  C   UNL     1      42.163 -10.503   9.376  1.00  0.00     0.123 C 
BRANCH  13  14
HETATM   14  C   UNL     1      42.471  -9.923  10.738  1.00  0.00    -0.027 A 
HETATM   15  C   UNL     1      43.319 -10.556  11.662  1.00  0.00     0.041 A 
HETATM   16 CL   UNL     1      44.117 -12.047  11.307  1.00  0.00    -0.084 Cl
HETATM   17  C   UNL     1      43.545  -9.991  12.923  1.00  0.00     0.024 A 
HETATM   18  C   UNL     1      42.923  -8.795  13.281  1.00  0.00     0.002 A 
HETATM   19  C   UNL     1      42.074  -8.161  12.379  1.00  0.00     0.001 A 
HETATM   20  C   UNL     1      41.849  -8.719  11.120  1.00  0.00     0.009 A 
ENDBRANCH  13  14
ENDBRANCH  12  13
ENDBRANCH   7  12
BRANCH   2  21
HETATM   21  C   UNL     1      41.698 -14.429   5.503  1.00  0.00    -0.026 A 
HETATM   22  C   UNL     1      42.962 -14.963   5.803  1.00  0.00     0.033 A 
HETATM   23  C   UNL     1      43.076 -16.232   6.374  1.00  0.00     0.034 A 
HETATM   24 CL   UNL     1      44.633 -16.874   6.725  1.00  0.00    -0.084 Cl
HETATM   25  C   UNL     1      41.940 -16.986   6.656  1.00  0.00     0.024 A 
HETATM   26  C   UNL     1      40.678 -16.468   6.369  1.00  0.00     0.002 A 
HETATM   27  C   UNL     1      40.556 -15.199   5.797  1.00  0.00     0.010 A 
ENDBRANCH   2  21
BRANCH   1  28
HETATM   28  C   UNL     1      41.813 -13.590   2.419  1.00  0.00     0.293 C 
HETATM   29  O   UNL     1      42.690 -12.904   1.918  1.00  0.00    -0.259 OA
BRANCH  28  30
HETATM   30  O   UNL     1      41.468 -14.831   2.003  1.00  0.00    -0.318 OA
BRANCH  30  31
HETATM   31  C   UNL     1      42.440 -15.863   2.231  1.00  0.00     0.174 C 
HETATM   32  C   UNL     1      41.783 -17.102   2.812  1.00  0.00     0.034 C 
ENDBRANCH  30  31
ENDBRANCH  28  30
ENDBRANCH   1  28
TORSDOF 7
ENDMDL
MODEL 8
REMARK VINA RESULT:      -7.2      2.451      4.738
REMARK  7 active torsions:
REMARK  status: ('A' for Active; 'I' for Inactive)
REMARK    1  A    between atoms: C_2  and  O_3 
REMARK    2  A    between atoms: O_3  and  C_4 
REMARK    3  A    between atoms: C_4  and  C_5 
REMARK    4  A    between atoms: C_6  and  C_7 
REMARK    5  A    between atoms: C_18  and  S_19 
REMARK    6  A    between atoms: S_19  and  C_20 
REMARK    7  A    between atoms: C_20  and  C_21 
ROOT
HETATM    1  C   UNL     1      42.144 -14.722   3.911  1.00  0.00     0.070 C 
HETATM    2  C   UNL     1      41.309 -13.499   3.520  1.00  0.00     0.203 C 
HETATM    3  N   UNL     1      40.174 -13.888   2.679  1.00  0.00    -0.082 N 
HETATM    4  C   UNL     1      39.723 -15.172   2.556  1.00  0.00     0.726 A 
HETATM    5  N   UNL     1      40.371 -16.157   3.208  1.00  0.00    -0.192 N 
HETATM    6  N   UNL     1      39.498 -13.049   1.876  1.00  0.00    -0.128 NA
HETATM    7  C   UNL     1      38.606 -13.885   1.332  1.00  0.00     0.226 A 
HETATM    8  N   UNL     1      38.703 -15.196   1.736  1.00  0.00    -0.035 NA
HETATM    9  C   UNL     1      41.626 -15.974   3.796  1.00  0.00     0.037 C 
HETATM   10  C   UNL     1      42.299 -17.238   4.272  1.00  0.00     0.070 C 
HETATM   11  H   UNL     1      40.084 -17.116   3.028  1.00  0.00     0.184 HD
ENDROOT
BRANCH   7  12
HETATM   12  S   UNL     1      37.454 -13.307   0.165  1.00  0.00    -0.083 SA
BRANCH  12  13
HETATM   13  C   UNL     1      38.563 -12.829  -1.187  1.00  0.00     0.123 C 
BRANCH  13  14
HETATM   14  C   UNL     1      38.861 -14.006  -2.088  1.00  0.00    -0.027 A 
HETATM   15  C   UNL     1      40.103 -14.662  -2.100  1.00  0.00     0.041 A 
HETATM   16 CL   UNL     1      41.397 -14.199  -1.053  1.00  0.00    -0.084 Cl
HETATM   17  C   UNL     1      40.337 -15.726  -2.979  1.00  0.00     0.024 A 
HETATM   18  C   UNL     1      39.340 -16.144  -3.860  1.00  0.00     0.002 A 
HETATM   19  C   UNL     1      38.107 -15.499  -3.866  1.00  0.00     0.001 A 
HETATM   20  C   UNL     1      37.869 -14.439  -2.990  1.00  0.00     0.009 A 
ENDBRANCH  13  14
ENDBRANCH  12  13
ENDBRANCH   7  12
BRANCH   2  21
HETATM   21  C   UNL     1      40.798 -12.723   4.735  1.00  0.00    -0.026 A 
HETATM   22  C   UNL     1      41.315 -11.447   5.015  1.00  0.00     0.033 A 
HETATM   23  C   UNL     1      40.875 -10.735   6.132  1.00  0.00     0.034 A 
HETATM   24 CL   UNL     1      41.527  -9.178   6.465  1.00  0.00    -0.084 Cl
HETATM   25  C   UNL     1      39.915 -11.277   6.984  1.00  0.00     0.024 A 
HETATM   26  C   UNL     1      39.388 -12.539   6.718  1.00  0.00     0.002 A 
HETATM   27  C   UNL     1      39.825 -13.258   5.602  1.00  0.00     0.010 A 
ENDBRANCH   2  21
BRANCH   1  28
HETATM   28  C   UNL     1      43.520 -14.353   4.337  1.00  0.00     0.293 C 
HETATM   29  O   UNL     1      44.286 -13.721   3.626  1.00  0.00    -0.259 OA
BRANCH  28  30
HETATM   30  O   UNL     1      43.847 -14.899   5.532  1.00  0.00    -0.318 OA
BRANCH  30  31
HETATM   31  C   UNL     1      43.765 -14.022   6.666  1.00  0.00     0.174 C 
HETATM   32  C   UNL     1      45.149 -13.707   7.204  1.00  0.00     0.034 C 
ENDBRANCH  30  31
ENDBRANCH  28  30
ENDBRANCH   1  28
TORSDOF 7
ENDMDL
MODEL 9
REMARK VINA RESULT:      -7.1      3.508      7.529
REMARK  7 active torsions:
REMARK  status: ('A' for Active; 'I' for Inactive)
REMARK    1  A    between atoms: C_2  and  O_3 
REMARK    2  A    between atoms: O_3  and  C_4 
REMARK    3  A    between atoms: C_4  and  C_5 
REMARK    4  A    between atoms: C_6  and  C_7 
REMARK    5  A    between atoms: C_18  and  S_19 
REMARK    6  A    between atoms: S_19  and  C_20 
REMARK    7  A    between atoms: C_20  and  C_21 
ROOT
HETATM    1  C   UNL     1      40.700 -15.637   1.906  1.00  0.00     0.070 C 
HETATM    2  C   UNL     1      41.044 -16.812   2.826  1.00  0.00     0.203 C 
HETATM    3  N   UNL     1      42.053 -17.679   2.213  1.00  0.00    -0.082 N 
HETATM    4  C   UNL     1      42.827 -17.311   1.148  1.00  0.00     0.726 A 
HETATM    5  N   UNL     1      42.639 -16.097   0.593  1.00  0.00    -0.192 N 
HETATM    6  N   UNL     1      42.280 -18.954   2.569  1.00  0.00    -0.128 NA
HETATM    7  C   UNL     1      43.252 -19.286   1.711  1.00  0.00     0.226 A 
HETATM    8  N   UNL     1      43.625 -18.298   0.831  1.00  0.00    -0.035 NA
HETATM    9  C   UNL     1      41.528 -15.300   0.882  1.00  0.00     0.037 C 
HETATM   10  C   UNL     1      41.364 -14.088  -0.003  1.00  0.00     0.070 C 
HETATM   11  H   UNL     1      43.153 -15.878  -0.257  1.00  0.00     0.184 HD
ENDROOT
BRANCH   7  12
HETATM   12  S   UNL     1      43.928 -20.888   1.723  1.00  0.00    -0.083 SA
BRANCH  12  13
HETATM   13  C   UNL     1      45.266 -20.675   2.928  1.00  0.00     0.123 C 
BRANCH  13  14
HETATM   14  C   UNL     1      44.763 -20.870   4.340  1.00  0.00    -0.027 A 
HETATM   15  C   UNL     1      44.447 -19.799   5.192  1.00  0.00     0.041 A 
HETATM   16 CL   UNL     1      44.575 -18.152   4.686  1.00  0.00    -0.084 Cl
HETATM   17  C   UNL     1      44.016 -20.037   6.503  1.00  0.00     0.024 A 
HETATM   18  C   UNL     1      43.902 -21.341   6.982  1.00  0.00     0.002 A 
HETATM   19  C   UNL     1      44.219 -22.412   6.152  1.00  0.00     0.001 A 
HETATM   20  C   UNL     1      44.646 -22.180   4.844  1.00  0.00     0.009 A 
ENDBRANCH  13  14
ENDBRANCH  12  13
ENDBRANCH   7  12
BRANCH   2  21
HETATM   21  C   UNL     1      41.536 -16.356   4.202  1.00  0.00    -0.026 A 
HETATM   22  C   UNL     1      42.539 -15.377   4.294  1.00  0.00     0.033 A 
HETATM   23  C   UNL     1      43.014 -14.966   5.540  1.00  0.00     0.034 A 
HETATM   24 CL   UNL     1      44.250 -13.772   5.633  1.00  0.00    -0.084 Cl
HETATM   25  C   UNL     1      42.499 -15.517   6.711  1.00  0.00     0.024 A 
HETATM   26  C   UNL     1      41.500 -16.486   6.637  1.00  0.00     0.002 A 
HETATM   27  C   UNL     1      41.020 -16.903   5.393  1.00  0.00     0.010 A 
ENDBRANCH   2  21
BRANCH   1  28
HETATM   28  C   UNL     1      39.389 -15.022   2.243  1.00  0.00     0.293 C 
HETATM   29  O   UNL     1      38.401 -15.139   1.534  1.00  0.00    -0.259 OA
BRANCH  28  30
HETATM   30  O   UNL     1      39.463 -14.236   3.342  1.00  0.00    -0.318 OA
BRANCH  30  31
HETATM   31  C   UNL     1      39.911 -12.889   3.123  1.00  0.00     0.174 C 
HETATM   32  C   UNL     1      38.770 -12.015   2.635  1.00  0.00     0.034 C 
ENDBRANCH  30  31
ENDBRANCH  28  30
ENDBRANCH   1  28
TORSDOF 7
ENDMDL
MODEL 10
REMARK VINA RESULT:      -7.0      2.299      3.296
REMARK  7 active torsions:
REMARK  status: ('A' for Active; 'I' for Inactive)
REMARK    1  A    between atoms: C_2  and  O_3 
REMARK    2  A    between atoms: O_3  and  C_4 
REMARK    3  A    between atoms: C_4  and  C_5 
REMARK    4  A    between atoms: C_6  and  C_7 
REMARK    5  A    between atoms: C_18  and  S_19 
REMARK    6  A    between atoms: S_19  and  C_20 
REMARK    7  A    between atoms: C_20  and  C_21 
ROOT
HETATM    1  C   UNL     1      42.285 -15.697   5.222  1.00  0.00     0.070 C 
HETATM    2  C   UNL     1      41.520 -16.318   4.049  1.00  0.00     0.203 C 
HETATM    3  N   UNL     1      40.767 -15.297   3.317  1.00  0.00    -0.082 N 
HETATM    4  C   UNL     1      40.988 -13.954   3.438  1.00  0.00     0.726 A 
HETATM    5  N   UNL     1      41.925 -13.523   4.305  1.00  0.00    -0.192 N 
HETATM    6  N   UNL     1      39.725 -15.554   2.508  1.00  0.00    -0.128 NA
HETATM    7  C   UNL     1      39.394 -14.315   2.123  1.00  0.00     0.226 A 
HETATM    8  N   UNL     1      40.157 -13.306   2.662  1.00  0.00    -0.035 NA
HETATM    9  C   UNL     1      42.502 -14.356   5.268  1.00  0.00     0.037 C 
HETATM   10  C   UNL     1      43.351 -13.649   6.297  1.00  0.00     0.070 C 
HETATM   11  H   UNL     1      42.010 -12.520   4.455  1.00  0.00     0.184 HD
ENDROOT
BRANCH   7  12
HETATM   12  S   UNL     1      38.053 -14.056   1.047  1.00  0.00    -0.083 SA
BRANCH  12  13
HETATM   13  C   UNL     1      38.363 -12.344   0.536  1.00  0.00     0.123 C 
BRANCH  13  14
HETATM   14  C   UNL     1      37.214 -11.443   0.927  1.00  0.00    -0.027 A 
HETATM   15  C   UNL     1      37.341 -10.411   1.871  1.00  0.00     0.041 A 
HETATM   16 CL   UNL     1      38.842 -10.057   2.651  1.00  0.00    -0.084 Cl
HETATM   17  C   UNL     1      36.236  -9.626   2.220  1.00  0.00     0.024 A 
HETATM   18  C   UNL     1      34.991  -9.865   1.639  1.00  0.00     0.002 A 
HETATM   19  C   UNL     1      34.847 -10.889   0.708  1.00  0.00     0.001 A 
HETATM   20  C   UNL     1      35.947 -11.671   0.355  1.00  0.00     0.009 A 
ENDBRANCH  13  14
ENDBRANCH  12  13
ENDBRANCH   7  12
BRANCH   2  21
HETATM   21  C   UNL     1      42.438 -17.064   3.079  1.00  0.00    -0.026 A 
HETATM   22  C   UNL     1      42.320 -18.458   2.939  1.00  0.00     0.033 A 
HETATM   23  C   UNL     1      43.164 -19.156   2.075  1.00  0.00     0.034 A 
HETATM   24 CL   UNL     1      43.011 -20.863   1.925  1.00  0.00    -0.084 Cl
HETATM   25  C   UNL     1      44.133 -18.483   1.335  1.00  0.00     0.024 A 
HETATM   26  C   UNL     1      44.260 -17.101   1.457  1.00  0.00     0.002 A 
HETATM   27  C   UNL     1      43.420 -16.395   2.322  1.00  0.00     0.010 A 
ENDBRANCH   2  21
BRANCH   1  28
HETATM   28  C   UNL     1      42.660 -16.705   6.249  1.00  0.00     0.293 C 
HETATM   29  O   UNL     1      41.886 -17.089   7.112  1.00  0.00    -0.259 OA
BRANCH  28  30
HETATM   30  O   UNL     1      43.969 -17.040   6.178  1.00  0.00    -0.318 OA
BRANCH  30  31
HETATM   31  C   UNL     1      44.288 -18.399   6.515  1.00  0.00     0.174 C 
HETATM   32  C   UNL     1      44.962 -19.099   5.349  1.00  0.00     0.034 C 
ENDBRANCH  30  31
ENDBRANCH  28  30
ENDBRANCH   1  28
TORSDOF 7
ENDMDL
