MODEL 1
REMARK VINA RESULT:      -8.6      0.000      0.000
REMARK  8 active torsions:
REMARK  status: ('A' for Active; 'I' for Inactive)
REMARK    1  A    between atoms: C_4  and  N_5 
REMARK       I    between atoms: N_5  and  C_6 
REMARK    2  A    between atoms: C_6  and  C_7 
REMARK    3  A    between atoms: C_10  and  N_11 
REMARK       I    between atoms: N_11  and  C_12 
REMARK       I    between atoms: C_12  and  N_21 
REMARK    4  A    between atoms: N_21  and  CA_22 
REMARK    5  A    between atoms: CA_22  and  C_23 
REMARK    6  A    between atoms: CA_22  and  CB_25 
REMARK    7  A    between atoms: C_23  and  O_24 
REMARK    8  A    between atoms: CB_25  and  CG_26 
ROOT
HETATM    1  N   UNK A   0      41.961 -12.212   4.087  1.00  0.00    -0.309 N 
HETATM    2  C   UNK A   0      41.348 -11.434   3.159  1.00  0.00     0.321 C 
HETATM    3  O   UNK A   0      41.006 -10.297   3.484  1.00  0.00    -0.247 OA
HETATM    4  H   UNK A   0      42.108 -11.669   4.930  1.00  0.00     0.170 HD
ATOM      5  N   TRP A   1      41.168 -11.924   1.905  1.00  0.00    -0.336 N 
ATOM      6  H   TRP A   1      41.960 -12.457   1.574  1.00  0.00     0.164 HD
ENDROOT
BRANCH   1   7
HETATM    7  C   UNK A   0      42.323 -13.568   4.165  1.00  0.00     0.036 A 
HETATM    8  C   UNK A   0      43.233 -14.217   3.332  1.00  0.00     0.030 A 
HETATM    9  C   UNK A   0      43.489 -15.594   3.471  1.00  0.00     0.019 A 
HETATM   10  C   UNK A   0      42.814 -16.350   4.435  1.00  0.00     0.032 A 
HETATM   11  C   UNK A   0      41.910 -15.695   5.282  1.00  0.00     0.019 A 
HETATM   12  C   UNK A   0      41.669 -14.325   5.146  1.00  0.00     0.030 A 
BRANCH  10  13
HETATM   13  C   UNK A   0      42.976 -17.830   4.616  1.00  0.00     0.256 C 
HETATM   14  N   UNK A   0      44.010 -18.430   3.915  1.00  0.00    -0.323 N 
HETATM   15  H   UNK A   0      44.627 -17.841   3.378  1.00  0.00     0.169 HD
HETATM   16  O   UNK A   0      42.177 -18.407   5.346  1.00  0.00    -0.267 OA
BRANCH  14  17
HETATM   17  C   UNK A   0      44.279 -19.815   3.815  1.00  0.00     0.035 A 
HETATM   18  C   UNK A   0      44.708 -20.610   4.879  1.00  0.00     0.029 A 
HETATM   19  C   UNK A   0      44.912 -21.983   4.705  1.00  0.00     0.002 A 
HETATM   20  C   UNK A   0      44.696 -22.574   3.464  1.00  0.00     0.000 A 
HETATM   21  C   UNK A   0      44.276 -21.791   2.392  1.00  0.00     0.002 A 
HETATM   22  C   UNK A   0      44.062 -20.421   2.568  1.00  0.00     0.029 A 
ENDBRANCH  14  17
ENDBRANCH  10  13
ENDBRANCH   1   7
BRANCH   5  23
ATOM     23  CA  TRP A   1      40.575 -11.068   0.864  1.00  0.00     0.114 C 
BRANCH  23  24
ATOM     24  C   TRP A   1      41.658 -10.137   0.287  1.00  0.00     0.189 C 
BRANCH  24  25
ATOM     25  O   TRP A   1      42.924 -10.800   0.287  1.00  0.00    -0.399 OA
ATOM     26  H   TRP A   1      42.768 -11.691   0.647  1.00  0.00     0.209 HD
ENDBRANCH  24  25
ENDBRANCH  23  24
BRANCH  23  27
ATOM     27  CB  TRP A   1      39.921 -11.910  -0.253  1.00  0.00     0.068 C 
BRANCH  27  28
ATOM     28  CG  TRP A   1      40.617 -13.224  -0.466  1.00  0.00    -0.028 A 
ATOM     29  CD2 TRP A   1      40.520 -14.404   0.339  1.00  0.00    -0.002 A 
ATOM     30  CE2 TRP A   1      41.303 -15.390  -0.264  1.00  0.00     0.042 A 
ATOM     31  CE3 TRP A   1      39.833 -14.732   1.525  1.00  0.00     0.014 A 
ATOM     32  CZ2 TRP A   1      41.415 -16.689   0.246  1.00  0.00     0.030 A 
ATOM     33  NE1 TRP A   1      41.879 -14.824  -1.375  1.00  0.00    -0.365 N 
ATOM     34  CH2 TRP A   1      40.704 -16.992   1.411  1.00  0.00     0.002 A 
ATOM     35  CZ3 TRP A   1      39.926 -16.028   2.046  1.00  0.00     0.001 A 
ATOM     36  HE1 TRP A   1      42.502 -15.309  -2.006  1.00  0.00     0.165 HD
ATOM     37  CD1 TRP A   1      41.482 -13.522  -1.504  1.00  0.00     0.096 A 
ENDBRANCH  27  28
ENDBRANCH  23  27
ENDBRANCH   5  23
TORSDOF 8
ENDMDL
MODEL 2
REMARK VINA RESULT:      -8.5      3.969      8.207
REMARK  8 active torsions:
REMARK  status: ('A' for Active; 'I' for Inactive)
REMARK    1  A    between atoms: C_4  and  N_5 
REMARK       I    between atoms: N_5  and  C_6 
REMARK    2  A    between atoms: C_6  and  C_7 
REMARK    3  A    between atoms: C_10  and  N_11 
REMARK       I    between atoms: N_11  and  C_12 
REMARK       I    between atoms: C_12  and  N_21 
REMARK    4  A    between atoms: N_21  and  CA_22 
REMARK    5  A    between atoms: CA_22  and  C_23 
REMARK    6  A    between atoms: CA_22  and  CB_25 
REMARK    7  A    between atoms: C_23  and  O_24 
REMARK    8  A    between atoms: CB_25  and  CG_26 
ROOT
HETATM    1  N   UNK A   0      39.729 -14.061   3.315  1.00  0.00    -0.309 N 
HETATM    2  C   UNK A   0      40.172 -15.239   2.808  1.00  0.00     0.321 C 
HETATM    3  O   UNK A   0      39.382 -15.934   2.169  1.00  0.00    -0.247 OA
HETATM    4  H   UNK A   0      38.776 -13.905   3.006  1.00  0.00     0.170 HD
ATOM      5  N   TRP A   1      41.472 -15.587   2.993  1.00  0.00    -0.336 N 
ATOM      6  H   TRP A   1      42.105 -14.804   2.900  1.00  0.00     0.164 HD
ENDROOT
BRANCH   1   7
HETATM    7  C   UNK A   0      40.240 -13.110   4.215  1.00  0.00     0.036 A 
HETATM    8  C   UNK A   0      41.023 -12.008   3.877  1.00  0.00     0.030 A 
HETATM    9  C   UNK A   0      41.521 -11.142   4.868  1.00  0.00     0.019 A 
HETATM   10  C   UNK A   0      41.263 -11.383   6.222  1.00  0.00     0.032 A 
HETATM   11  C   UNK A   0      40.464 -12.483   6.560  1.00  0.00     0.019 A 
HETATM   12  C   UNK A   0      39.963 -13.333   5.570  1.00  0.00     0.030 A 
BRANCH  10  13
HETATM   13  C   UNK A   0      41.801 -10.551   7.348  1.00  0.00     0.256 C 
HETATM   14  N   UNK A   0      42.040 -11.208   8.544  1.00  0.00    -0.323 N 
HETATM   15  H   UNK A   0      41.899 -12.205   8.577  1.00  0.00     0.169 HD
HETATM   16  O   UNK A   0      41.971  -9.354   7.142  1.00  0.00    -0.267 OA
BRANCH  14  17
HETATM   17  C   UNK A   0      42.413 -10.622   9.776  1.00  0.00     0.035 A 
HETATM   18  C   UNK A   0      41.567  -9.831  10.556  1.00  0.00     0.029 A 
HETATM   19  C   UNK A   0      42.001  -9.322  11.785  1.00  0.00     0.002 A 
HETATM   20  C   UNK A   0      43.288  -9.592  12.242  1.00  0.00     0.000 A 
HETATM   21  C   UNK A   0      44.144 -10.373  11.471  1.00  0.00     0.002 A 
HETATM   22  C   UNK A   0      43.706 -10.890  10.247  1.00  0.00     0.029 A 
ENDBRANCH  14  17
ENDBRANCH  10  13
ENDBRANCH   1   7
BRANCH   5  23
ATOM     23  CA  TRP A   1      41.991 -16.823   2.384  1.00  0.00     0.114 C 
BRANCH  23  24
ATOM     24  C   TRP A   1      41.619 -16.855   0.890  1.00  0.00     0.189 C 
BRANCH  24  25
ATOM     25  O   TRP A   1      40.614 -17.844   0.657  1.00  0.00    -0.399 OA
ATOM     26  H   TRP A   1      40.698 -18.496   1.376  1.00  0.00     0.209 HD
ENDBRANCH  24  25
ENDBRANCH  23  24
BRANCH  23  27
ATOM     27  CB  TRP A   1      43.519 -16.945   2.573  1.00  0.00     0.068 C 
BRANCH  27  28
ATOM     28  CG  TRP A   1      43.903 -18.123   3.423  1.00  0.00    -0.028 A 
ATOM     29  CD2 TRP A   1      43.992 -19.495   3.024  1.00  0.00    -0.002 A 
ATOM     30  CE2 TRP A   1      44.427 -20.226   4.130  1.00  0.00     0.042 A 
ATOM     31  CE3 TRP A   1      43.749 -20.188   1.821  1.00  0.00     0.014 A 
ATOM     32  CZ2 TRP A   1      44.652 -21.607   4.087  1.00  0.00     0.030 A 
ATOM     33  NE1 TRP A   1      44.567 -19.340   5.171  1.00  0.00    -0.365 N 
ATOM     34  CH2 TRP A   1      44.425 -22.264   2.875  1.00  0.00     0.002 A 
ATOM     35  CZ3 TRP A   1      43.976 -21.567   1.756  1.00  0.00     0.001 A 
ATOM     36  HE1 TRP A   1      44.869 -19.594   6.102  1.00  0.00     0.165 HD
ATOM     37  CD1 TRP A   1      44.249 -18.075   4.762  1.00  0.00     0.096 A 
ENDBRANCH  27  28
ENDBRANCH  23  27
ENDBRANCH   5  23
TORSDOF 8
ENDMDL
MODEL 3
REMARK VINA RESULT:      -8.4      5.526      8.363
REMARK  8 active torsions:
REMARK  status: ('A' for Active; 'I' for Inactive)
REMARK    1  A    between atoms: C_4  and  N_5 
REMARK       I    between atoms: N_5  and  C_6 
REMARK    2  A    between atoms: C_6  and  C_7 
REMARK    3  A    between atoms: C_10  and  N_11 
REMARK       I    between atoms: N_11  and  C_12 
REMARK       I    between atoms: C_12  and  N_21 
REMARK    4  A    between atoms: N_21  and  CA_22 
REMARK    5  A    between atoms: CA_22  and  C_23 
REMARK    6  A    between atoms: CA_22  and  CB_25 
REMARK    7  A    between atoms: C_23  and  O_24 
REMARK    8  A    between atoms: CB_25  and  CG_26 
ROOT
HETATM    1  N   UNK A   0      41.577 -11.833   5.341  1.00  0.00    -0.309 N 
HETATM    2  C   UNK A   0      41.324 -10.986   6.371  1.00  0.00     0.321 C 
HETATM    3  O   UNK A   0      41.287  -9.778   6.138  1.00  0.00    -0.247 OA
HETATM    4  H   UNK A   0      41.631 -11.301   4.480  1.00  0.00     0.170 HD
ATOM      5  N   TRP A   1      41.087 -11.503   7.605  1.00  0.00    -0.336 N 
ATOM      6  H   TRP A   1      40.521 -12.340   7.577  1.00  0.00     0.164 HD
ENDROOT
BRANCH   1   7
HETATM    7  C   UNK A   0      41.871 -13.203   5.229  1.00  0.00     0.036 A 
HETATM    8  C   UNK A   0      43.143 -13.770   5.296  1.00  0.00     0.030 A 
HETATM    9  C   UNK A   0      43.329 -15.155   5.125  1.00  0.00     0.019 A 
HETATM   10  C   UNK A   0      42.240 -15.992   4.858  1.00  0.00     0.032 A 
HETATM   11  C   UNK A   0      40.961 -15.424   4.804  1.00  0.00     0.019 A 
HETATM   12  C   UNK A   0      40.782 -14.049   4.987  1.00  0.00     0.030 A 
BRANCH  10  13
HETATM   13  C   UNK A   0      42.349 -17.466   4.602  1.00  0.00     0.256 C 
HETATM   14  N   UNK A   0      43.473 -17.894   3.912  1.00  0.00    -0.323 N 
HETATM   15  H   UNK A   0      44.175 -17.211   3.676  1.00  0.00     0.169 HD
HETATM   16  O   UNK A   0      41.436 -18.183   4.997  1.00  0.00    -0.267 OA
BRANCH  14  17
HETATM   17  C   UNK A   0      43.732 -19.200   3.436  1.00  0.00     0.035 A 
HETATM   18  C   UNK A   0      43.308 -19.681   2.196  1.00  0.00     0.029 A 
HETATM   19  C   UNK A   0      43.643 -20.975   1.783  1.00  0.00     0.002 A 
HETATM   20  C   UNK A   0      44.397 -21.803   2.608  1.00  0.00     0.000 A 
HETATM   21  C   UNK A   0      44.820 -21.339   3.850  1.00  0.00     0.002 A 
HETATM   22  C   UNK A   0      44.494 -20.042   4.259  1.00  0.00     0.029 A 
ENDBRANCH  14  17
ENDBRANCH  10  13
ENDBRANCH   1   7
BRANCH   5  23
ATOM     23  CA  TRP A   1      40.733 -10.606   8.717  1.00  0.00     0.114 C 
BRANCH  23  24
ATOM     24  C   TRP A   1      39.274 -10.861   9.139  1.00  0.00     0.189 C 
BRANCH  24  25
ATOM     25  O   TRP A   1      38.991 -12.262   9.101  1.00  0.00    -0.399 OA
ATOM     26  H   TRP A   1      39.432 -12.610   8.306  1.00  0.00     0.209 HD
ENDBRANCH  24  25
ENDBRANCH  23  24
BRANCH  23  27
ATOM     27  CB  TRP A   1      41.691 -10.789   9.914  1.00  0.00     0.068 C 
BRANCH  27  28
ATOM     28  CG  TRP A   1      41.676  -9.613  10.850  1.00  0.00    -0.028 A 
ATOM     29  CD2 TRP A   1      41.914  -9.617  12.261  1.00  0.00    -0.002 A 
ATOM     30  CE2 TRP A   1      41.841  -8.296  12.704  1.00  0.00     0.042 A 
ATOM     31  CE3 TRP A   1      42.192 -10.623  13.209  1.00  0.00     0.014 A 
ATOM     32  CZ2 TRP A   1      42.054  -7.928  14.038  1.00  0.00     0.030 A 
ATOM     33  NE1 TRP A   1      41.539  -7.519  11.611  1.00  0.00    -0.365 N 
ATOM     34  CH2 TRP A   1      42.350  -8.943  14.951  1.00  0.00     0.002 A 
ATOM     35  CZ3 TRP A   1      42.415 -10.274  14.546  1.00  0.00     0.001 A 
ATOM     36  HE1 TRP A   1      41.422  -6.516  11.636  1.00  0.00     0.165 HD
ATOM     37  CD1 TRP A   1      41.430  -8.299  10.492  1.00  0.00     0.096 A 
ENDBRANCH  27  28
ENDBRANCH  23  27
ENDBRANCH   5  23
TORSDOF 8
ENDMDL
MODEL 4
REMARK VINA RESULT:      -8.3      1.698      2.105
REMARK  8 active torsions:
REMARK  status: ('A' for Active; 'I' for Inactive)
REMARK    1  A    between atoms: C_4  and  N_5 
REMARK       I    between atoms: N_5  and  C_6 
REMARK    2  A    between atoms: C_6  and  C_7 
REMARK    3  A    between atoms: C_10  and  N_11 
REMARK       I    between atoms: N_11  and  C_12 
REMARK       I    between atoms: C_12  and  N_21 
REMARK    4  A    between atoms: N_21  and  CA_22 
REMARK    5  A    between atoms: CA_22  and  C_23 
REMARK    6  A    between atoms: CA_22  and  CB_25 
REMARK    7  A    between atoms: C_23  and  O_24 
REMARK    8  A    between atoms: CB_25  and  CG_26 
ROOT
HETATM    1  N   UNK A   0      40.305 -12.948   5.670  1.00  0.00    -0.309 N 
HETATM    2  C   UNK A   0      39.450 -12.239   4.890  1.00  0.00     0.321 C 
HETATM    3  O   UNK A   0      38.816 -11.318   5.405  1.00  0.00    -0.247 OA
HETATM    4  H   UNK A   0      40.334 -12.530   6.594  1.00  0.00     0.170 HD
ATOM      5  N   TRP A   1      39.353 -12.549   3.571  1.00  0.00    -0.336 N 
ATOM      6  H   TRP A   1      40.247 -12.769   3.153  1.00  0.00     0.164 HD
ENDROOT
BRANCH   1   7
HETATM    7  C   UNK A   0      41.041 -14.135   5.516  1.00  0.00     0.036 A 
HETATM    8  C   UNK A   0      42.340 -14.229   5.018  1.00  0.00     0.030 A 
HETATM    9  C   UNK A   0      42.968 -15.479   4.863  1.00  0.00     0.019 A 
HETATM   10  C   UNK A   0      42.291 -16.661   5.181  1.00  0.00     0.032 A 
HETATM   11  C   UNK A   0      40.991 -16.566   5.694  1.00  0.00     0.019 A 
HETATM   12  C   UNK A   0      40.377 -15.320   5.857  1.00  0.00     0.030 A 
BRANCH  10  13
HETATM   13  C   UNK A   0      42.857 -18.037   4.992  1.00  0.00     0.256 C 
HETATM   14  N   UNK A   0      43.200 -18.393   3.697  1.00  0.00    -0.323 N 
HETATM   15  H   UNK A   0      43.110 -17.699   2.972  1.00  0.00     0.169 HD
HETATM   16  O   UNK A   0      42.956 -18.755   5.982  1.00  0.00    -0.267 OA
BRANCH  14  17
HETATM   17  C   UNK A   0      43.619 -19.667   3.248  1.00  0.00     0.035 A 
HETATM   18  C   UNK A   0      43.242 -20.231   2.028  1.00  0.00     0.029 A 
HETATM   19  C   UNK A   0      43.735 -21.482   1.640  1.00  0.00     0.002 A 
HETATM   20  C   UNK A   0      44.603 -22.184   2.471  1.00  0.00     0.000 A 
HETATM   21  C   UNK A   0      44.980 -21.636   3.694  1.00  0.00     0.002 A 
HETATM   22  C   UNK A   0      44.496 -20.382   4.078  1.00  0.00     0.029 A 
ENDBRANCH  14  17
ENDBRANCH  10  13
ENDBRANCH   1   7
BRANCH   5  23
ATOM     23  CA  TRP A   1      38.490 -11.743   2.692  1.00  0.00     0.114 C 
BRANCH  23  24
ATOM     24  C   TRP A   1      39.246 -10.475   2.253  1.00  0.00     0.189 C 
BRANCH  24  25
ATOM     25  O   TRP A   1      38.814  -9.353   3.026  1.00  0.00    -0.399 OA
ATOM     26  H   TRP A   1      39.617  -8.962   3.414  1.00  0.00     0.209 HD
ENDBRANCH  24  25
ENDBRANCH  23  24
BRANCH  23  27
ATOM     27  CB  TRP A   1      38.018 -12.554   1.467  1.00  0.00     0.068 C 
BRANCH  27  28
ATOM     28  CG  TRP A   1      39.150 -13.249   0.765  1.00  0.00    -0.028 A 
ATOM     29  CD2 TRP A   1      39.715 -14.528   1.074  1.00  0.00    -0.002 A 
ATOM     30  CE2 TRP A   1      40.712 -14.785   0.131  1.00  0.00     0.042 A 
ATOM     31  CE3 TRP A   1      39.470 -15.498   2.066  1.00  0.00     0.014 A 
ATOM     32  CZ2 TRP A   1      41.457 -15.970   0.118  1.00  0.00     0.030 A 
ATOM     33  NE1 TRP A   1      40.774 -13.693  -0.700  1.00  0.00    -0.365 N 
ATOM     34  CH2 TRP A   1      41.176 -16.924   1.100  1.00  0.00     0.002 A 
ATOM     35  CZ3 TRP A   1      40.199 -16.693   2.064  1.00  0.00     0.001 A 
ATOM     36  HE1 TRP A   1      41.411 -13.602  -1.479  1.00  0.00     0.165 HD
ATOM     37  CD1 TRP A   1      39.846 -12.760  -0.327  1.00  0.00     0.096 A 
ENDBRANCH  27  28
ENDBRANCH  23  27
ENDBRANCH   5  23
TORSDOF 8
ENDMDL
MODEL 5
REMARK VINA RESULT:      -8.1      3.877      7.519
REMARK  8 active torsions:
REMARK  status: ('A' for Active; 'I' for Inactive)
REMARK    1  A    between atoms: C_4  and  N_5 
REMARK       I    between atoms: N_5  and  C_6 
REMARK    2  A    between atoms: C_6  and  C_7 
REMARK    3  A    between atoms: C_10  and  N_11 
REMARK       I    between atoms: N_11  and  C_12 
REMARK       I    between atoms: C_12  and  N_21 
REMARK    4  A    between atoms: N_21  and  CA_22 
REMARK    5  A    between atoms: CA_22  and  C_23 
REMARK    6  A    between atoms: CA_22  and  CB_25 
REMARK    7  A    between atoms: C_23  and  O_24 
REMARK    8  A    between atoms: CB_25  and  CG_26 
ROOT
HETATM    1  N   UNK A   0      39.131 -13.674   3.124  1.00  0.00    -0.309 N 
HETATM    2  C   UNK A   0      39.545 -14.644   2.269  1.00  0.00     0.321 C 
HETATM    3  O   UNK A   0      38.693 -15.345   1.724  1.00  0.00    -0.247 OA
HETATM    4  H   UNK A   0      38.118 -13.640   3.121  1.00  0.00     0.170 HD
ATOM      5  N   TRP A   1      40.874 -14.779   2.022  1.00  0.00    -0.336 N 
ATOM      6  H   TRP A   1      41.350 -13.891   1.940  1.00  0.00     0.164 HD
ENDROOT
BRANCH   1   7
HETATM    7  C   UNK A   0      39.765 -12.823   4.044  1.00  0.00     0.036 A 
HETATM    8  C   UNK A   0      40.388 -11.613   3.739  1.00  0.00     0.030 A 
HETATM    9  C   UNK A   0      41.034 -10.859   4.737  1.00  0.00     0.019 A 
HETATM   10  C   UNK A   0      41.090 -11.321   6.056  1.00  0.00     0.032 A 
HETATM   11  C   UNK A   0      40.453 -12.530   6.365  1.00  0.00     0.019 A 
HETATM   12  C   UNK A   0      39.802 -13.268   5.372  1.00  0.00     0.030 A 
BRANCH  10  13
HETATM   13  C   UNK A   0      41.807 -10.617   7.169  1.00  0.00     0.256 C 
HETATM   14  N   UNK A   0      42.199 -11.398   8.245  1.00  0.00    -0.323 N 
HETATM   15  H   UNK A   0      42.038 -12.391   8.197  1.00  0.00     0.169 HD
HETATM   16  O   UNK A   0      41.977  -9.407   7.063  1.00  0.00    -0.267 OA
BRANCH  14  17
HETATM   17  C   UNK A   0      42.761 -10.948   9.462  1.00  0.00     0.035 A 
HETATM   18  C   UNK A   0      42.036 -10.318  10.476  1.00  0.00     0.029 A 
HETATM   19  C   UNK A   0      42.661  -9.940  11.669  1.00  0.00     0.002 A 
HETATM   20  C   UNK A   0      44.019 -10.179  11.857  1.00  0.00     0.000 A 
HETATM   21  C   UNK A   0      44.756 -10.799  10.851  1.00  0.00     0.002 A 
HETATM   22  C   UNK A   0      44.129 -11.187   9.663  1.00  0.00     0.029 A 
ENDBRANCH  14  17
ENDBRANCH  10  13
ENDBRANCH   1   7
BRANCH   5  23
ATOM     23  CA  TRP A   1      41.337 -15.772   1.039  1.00  0.00     0.114 C 
BRANCH  23  24
ATOM     24  C   TRP A   1      41.403 -15.122  -0.356  1.00  0.00     0.189 C 
BRANCH  24  25
ATOM     25  O   TRP A   1      40.134 -15.224  -1.006  1.00  0.00    -0.399 OA
ATOM     26  H   TRP A   1      40.017 -14.400  -1.511  1.00  0.00     0.209 HD
ENDBRANCH  24  25
ENDBRANCH  23  24
BRANCH  23  27
ATOM     27  CB  TRP A   1      42.707 -16.362   1.436  1.00  0.00     0.068 C 
BRANCH  27  28
ATOM     28  CG  TRP A   1      42.800 -16.665   2.905  1.00  0.00    -0.028 A 
ATOM     29  CD2 TRP A   1      43.153 -15.766   3.961  1.00  0.00    -0.002 A 
ATOM     30  CE2 TRP A   1      43.064 -16.472   5.161  1.00  0.00     0.042 A 
ATOM     31  CE3 TRP A   1      43.535 -14.410   4.013  1.00  0.00     0.014 A 
ATOM     32  CZ2 TRP A   1      43.316 -15.887   6.408  1.00  0.00     0.030 A 
ATOM     33  NE1 TRP A   1      42.702 -17.760   4.847  1.00  0.00    -0.365 N 
ATOM     34  CH2 TRP A   1      43.671 -14.536   6.430  1.00  0.00     0.002 A 
ATOM     35  CZ3 TRP A   1      43.783 -13.805   5.251  1.00  0.00     0.001 A 
ATOM     36  HE1 TRP A   1      42.565 -18.498   5.524  1.00  0.00     0.165 HD
ATOM     37  CD1 TRP A   1      42.547 -17.891   3.494  1.00  0.00     0.096 A 
ENDBRANCH  27  28
ENDBRANCH  23  27
ENDBRANCH   5  23
TORSDOF 8
ENDMDL
MODEL 6
REMARK VINA RESULT:      -8.1      4.707      8.307
REMARK  8 active torsions:
REMARK  status: ('A' for Active; 'I' for Inactive)
REMARK    1  A    between atoms: C_4  and  N_5 
REMARK       I    between atoms: N_5  and  C_6 
REMARK    2  A    between atoms: C_6  and  C_7 
REMARK    3  A    between atoms: C_10  and  N_11 
REMARK       I    between atoms: N_11  and  C_12 
REMARK       I    between atoms: C_12  and  N_21 
REMARK    4  A    between atoms: N_21  and  CA_22 
REMARK    5  A    between atoms: CA_22  and  C_23 
REMARK    6  A    between atoms: CA_22  and  CB_25 
REMARK    7  A    between atoms: C_23  and  O_24 
REMARK    8  A    between atoms: CB_25  and  CG_26 
ROOT
HETATM    1  N   UNK A   0      39.637 -12.591   4.172  1.00  0.00    -0.309 N 
HETATM    2  C   UNK A   0      40.114 -13.685   3.525  1.00  0.00     0.321 C 
HETATM    3  O   UNK A   0      39.425 -14.185   2.636  1.00  0.00    -0.247 OA
HETATM    4  H   UNK A   0      38.764 -12.307   3.742  1.00  0.00     0.170 HD
ATOM      5  N   TRP A   1      41.342 -14.161   3.857  1.00  0.00    -0.336 N 
ATOM      6  H   TRP A   1      42.014 -13.427   4.030  1.00  0.00     0.164 HD
ENDROOT
BRANCH   1   7
HETATM    7  C   UNK A   0      40.015 -11.868   5.316  1.00  0.00     0.036 A 
HETATM    8  C   UNK A   0      40.954 -10.839   5.355  1.00  0.00     0.030 A 
HETATM    9  C   UNK A   0      41.292 -10.211   6.568  1.00  0.00     0.019 A 
HETATM   10  C   UNK A   0      40.710 -10.625   7.771  1.00  0.00     0.032 A 
HETATM   11  C   UNK A   0      39.756 -11.650   7.730  1.00  0.00     0.019 A 
HETATM   12  C   UNK A   0      39.417 -12.262   6.520  1.00  0.00     0.030 A 
BRANCH  10  13
HETATM   13  C   UNK A   0      41.052 -10.057   9.116  1.00  0.00     0.256 C 
HETATM   14  N   UNK A   0      41.741 -10.890   9.983  1.00  0.00    -0.323 N 
HETATM   15  H   UNK A   0      42.024 -11.797   9.649  1.00  0.00     0.169 HD
HETATM   16  O   UNK A   0      40.685  -8.913   9.363  1.00  0.00    -0.267 OA
BRANCH  14  17
HETATM   17  C   UNK A   0      42.053 -10.635  11.339  1.00  0.00     0.035 A 
HETATM   18  C   UNK A   0      43.234 -10.029  11.771  1.00  0.00     0.029 A 
HETATM   19  C   UNK A   0      43.448  -9.775  13.130  1.00  0.00     0.002 A 
HETATM   20  C   UNK A   0      42.488 -10.133  14.071  1.00  0.00     0.000 A 
HETATM   21  C   UNK A   0      41.309 -10.745  13.655  1.00  0.00     0.002 A 
HETATM   22  C   UNK A   0      41.090 -10.989  12.296  1.00  0.00     0.029 A 
ENDBRANCH  14  17
ENDBRANCH  10  13
ENDBRANCH   1   7
BRANCH   5  23
ATOM     23  CA  TRP A   1      41.910 -15.298   3.114  1.00  0.00     0.114 C 
BRANCH  23  24
ATOM     24  C   TRP A   1      43.420 -15.075   2.911  1.00  0.00     0.189 C 
BRANCH  24  25
ATOM     25  O   TRP A   1      43.769 -13.734   3.260  1.00  0.00    -0.399 OA
ATOM     26  H   TRP A   1      44.417 -13.798   3.984  1.00  0.00     0.209 HD
ENDBRANCH  24  25
ENDBRANCH  23  24
BRANCH  23  27
ATOM     27  CB  TRP A   1      41.644 -16.635   3.840  1.00  0.00     0.068 C 
BRANCH  27  28
ATOM     28  CG  TRP A   1      42.377 -17.787   3.213  1.00  0.00    -0.028 A 
ATOM     29  CD2 TRP A   1      43.298 -18.683   3.843  1.00  0.00    -0.002 A 
ATOM     30  CE2 TRP A   1      43.693 -19.620   2.887  1.00  0.00     0.042 A 
ATOM     31  CE3 TRP A   1      43.832 -18.791   5.143  1.00  0.00     0.014 A 
ATOM     32  CZ2 TRP A   1      44.575 -20.670   3.172  1.00  0.00     0.030 A 
ATOM     33  NE1 TRP A   1      43.062 -19.290   1.713  1.00  0.00    -0.365 N 
ATOM     34  CH2 TRP A   1      45.071 -20.766   4.475  1.00  0.00     0.002 A 
ATOM     35  CZ3 TRP A   1      44.709 -19.839   5.448  1.00  0.00     0.001 A 
ATOM     36  HE1 TRP A   1      43.165 -19.799   0.845  1.00  0.00     0.165 HD
ATOM     37  CD1 TRP A   1      42.274 -18.187   1.892  1.00  0.00     0.096 A 
ENDBRANCH  27  28
ENDBRANCH  23  27
ENDBRANCH   5  23
TORSDOF 8
ENDMDL
MODEL 7
REMARK VINA RESULT:      -8.0      2.163      3.160
REMARK  8 active torsions:
REMARK  status: ('A' for Active; 'I' for Inactive)
REMARK    1  A    between atoms: C_4  and  N_5 
REMARK       I    between atoms: N_5  and  C_6 
REMARK    2  A    between atoms: C_6  and  C_7 
REMARK    3  A    between atoms: C_10  and  N_11 
REMARK       I    between atoms: N_11  and  C_12 
REMARK       I    between atoms: C_12  and  N_21 
REMARK    4  A    between atoms: N_21  and  CA_22 
REMARK    5  A    between atoms: CA_22  and  C_23 
REMARK    6  A    between atoms: CA_22  and  CB_25 
REMARK    7  A    between atoms: C_23  and  O_24 
REMARK    8  A    between atoms: CB_25  and  CG_26 
ROOT
HETATM    1  N   UNK A   0      40.499 -12.445   1.259  1.00  0.00    -0.309 N 
HETATM    2  C   UNK A   0      40.593 -11.423   0.371  1.00  0.00     0.321 C 
HETATM    3  O   UNK A   0      39.653 -10.631   0.289  1.00  0.00    -0.247 OA
HETATM    4  H   UNK A   0      39.642 -12.342   1.793  1.00  0.00     0.170 HD
ATOM      5  N   TRP A   1      41.728 -11.292  -0.363  1.00  0.00    -0.336 N 
ATOM      6  H   TRP A   1      42.565 -11.487   0.170  1.00  0.00     0.164 HD
ENDROOT
BRANCH   1   7
HETATM    7  C   UNK A   0      41.238 -13.611   1.515  1.00  0.00     0.036 A 
HETATM    8  C   UNK A   0      42.048 -13.834   2.628  1.00  0.00     0.030 A 
HETATM    9  C   UNK A   0      42.783 -15.027   2.762  1.00  0.00     0.019 A 
HETATM   10  C   UNK A   0      42.739 -16.008   1.765  1.00  0.00     0.032 A 
HETATM   11  C   UNK A   0      41.915 -15.789   0.653  1.00  0.00     0.019 A 
HETATM   12  C   UNK A   0      41.178 -14.608   0.532  1.00  0.00     0.030 A 
BRANCH  10  13
HETATM   13  C   UNK A   0      43.534 -17.279   1.793  1.00  0.00     0.256 C 
HETATM   14  N   UNK A   0      42.958 -18.356   2.449  1.00  0.00    -0.323 N 
HETATM   15  H   UNK A   0      42.025 -18.248   2.814  1.00  0.00     0.169 HD
HETATM   16  O   UNK A   0      44.637 -17.274   1.258  1.00  0.00    -0.267 OA
BRANCH  14  17
HETATM   17  C   UNK A   0      43.561 -19.605   2.725  1.00  0.00     0.035 A 
HETATM   18  C   UNK A   0      44.291 -19.883   3.883  1.00  0.00     0.029 A 
HETATM   19  C   UNK A   0      44.821 -21.160   4.099  1.00  0.00     0.002 A 
HETATM   20  C   UNK A   0      44.635 -22.167   3.157  1.00  0.00     0.000 A 
HETATM   21  C   UNK A   0      43.916 -21.900   1.995  1.00  0.00     0.002 A 
HETATM   22  C   UNK A   0      43.377 -20.628   1.784  1.00  0.00     0.029 A 
ENDBRANCH  14  17
ENDBRANCH  10  13
ENDBRANCH   1   7
BRANCH   5  23
ATOM     23  CA  TRP A   1      41.881 -10.146  -1.274  1.00  0.00     0.114 C 
BRANCH  23  24
ATOM     24  C   TRP A   1      43.256  -9.490  -1.048  1.00  0.00     0.189 C 
BRANCH  24  25
ATOM     25  O   TRP A   1      43.363  -9.029   0.301  1.00  0.00    -0.399 OA
ATOM     26  H   TRP A   1      42.668  -9.490   0.804  1.00  0.00     0.209 HD
ENDBRANCH  24  25
ENDBRANCH  23  24
BRANCH  23  27
ATOM     27  CB  TRP A   1      41.711 -10.572  -2.748  1.00  0.00     0.068 C 
BRANCH  27  28
ATOM     28  CG  TRP A   1      41.719 -12.065  -2.922  1.00  0.00    -0.028 A 
ATOM     29  CD2 TRP A   1      40.592 -12.929  -3.094  1.00  0.00    -0.002 A 
ATOM     30  CE2 TRP A   1      41.079 -14.226  -3.261  1.00  0.00     0.042 A 
ATOM     31  CE3 TRP A   1      39.197 -12.732  -3.131  1.00  0.00     0.014 A 
ATOM     32  CZ2 TRP A   1      40.245 -15.329  -3.484  1.00  0.00     0.030 A 
ATOM     33  NE1 TRP A   1      42.447 -14.160  -3.162  1.00  0.00    -0.365 N 
ATOM     34  CH2 TRP A   1      38.867 -15.099  -3.538  1.00  0.00     0.002 A 
ATOM     35  CZ3 TRP A   1      38.347 -13.820  -3.360  1.00  0.00     0.001 A 
ATOM     36  HE1 TRP A   1      43.066 -14.955  -3.242  1.00  0.00     0.165 HD
ATOM     37  CD1 TRP A   1      42.845 -12.868  -2.952  1.00  0.00     0.096 A 
ENDBRANCH  27  28
ENDBRANCH  23  27
ENDBRANCH   5  23
TORSDOF 8
ENDMDL
MODEL 8
REMARK VINA RESULT:      -8.0      5.304      8.035
REMARK  8 active torsions:
REMARK  status: ('A' for Active; 'I' for Inactive)
REMARK    1  A    between atoms: C_4  and  N_5 
REMARK       I    between atoms: N_5  and  C_6 
REMARK    2  A    between atoms: C_6  and  C_7 
REMARK    3  A    between atoms: C_10  and  N_11 
REMARK       I    between atoms: N_11  and  C_12 
REMARK       I    between atoms: C_12  and  N_21 
REMARK    4  A    between atoms: N_21  and  CA_22 
REMARK    5  A    between atoms: CA_22  and  C_23 
REMARK    6  A    between atoms: CA_22  and  CB_25 
REMARK    7  A    between atoms: C_23  and  O_24 
REMARK    8  A    between atoms: CB_25  and  CG_26 
ROOT
HETATM    1  N   UNK A   0      44.433 -13.000   7.815  1.00  0.00    -0.309 N 
HETATM    2  C   UNK A   0      43.779 -11.868   8.179  1.00  0.00     0.321 C 
HETATM    3  O   UNK A   0      44.358 -11.070   8.916  1.00  0.00    -0.247 OA
HETATM    4  H   UNK A   0      45.379 -12.968   8.180  1.00  0.00     0.170 HD
ATOM      5  N   TRP A   1      42.533 -11.643   7.689  1.00  0.00    -0.336 N 
ATOM      6  H   TRP A   1      42.438 -11.911   6.719  1.00  0.00     0.164 HD
ENDROOT
BRANCH   1   7
HETATM    7  C   UNK A   0      44.071 -14.193   7.167  1.00  0.00     0.036 A 
HETATM    8  C   UNK A   0      43.956 -15.445   7.771  1.00  0.00     0.030 A 
HETATM    9  C   UNK A   0      43.630 -16.586   7.015  1.00  0.00     0.019 A 
HETATM   10  C   UNK A   0      43.439 -16.495   5.632  1.00  0.00     0.032 A 
HETATM   11  C   UNK A   0      43.542 -15.235   5.028  1.00  0.00     0.019 A 
HETATM   12  C   UNK A   0      43.855 -14.103   5.786  1.00  0.00     0.030 A 
BRANCH  10  13
HETATM   13  C   UNK A   0      43.150 -17.665   4.739  1.00  0.00     0.256 C 
HETATM   14  N   UNK A   0      44.131 -18.639   4.657  1.00  0.00    -0.323 N 
HETATM   15  H   UNK A   0      44.949 -18.543   5.238  1.00  0.00     0.169 HD
HETATM   16  O   UNK A   0      42.084 -17.669   4.132  1.00  0.00    -0.267 OA
BRANCH  14  17
HETATM   17  C   UNK A   0      44.151 -19.755   3.788  1.00  0.00     0.035 A 
HETATM   18  C   UNK A   0      43.776 -19.709   2.444  1.00  0.00     0.029 A 
HETATM   19  C   UNK A   0      43.864 -20.851   1.641  1.00  0.00     0.002 A 
HETATM   20  C   UNK A   0      44.319 -22.053   2.175  1.00  0.00     0.000 A 
HETATM   21  C   UNK A   0      44.689 -22.114   3.516  1.00  0.00     0.002 A 
HETATM   22  C   UNK A   0      44.611 -20.970   4.316  1.00  0.00     0.029 A 
ENDBRANCH  14  17
ENDBRANCH  10  13
ENDBRANCH   1   7
BRANCH   5  23
ATOM     23  CA  TRP A   1      41.838 -10.384   8.008  1.00  0.00     0.114 C 
BRANCH  23  24
ATOM     24  C   TRP A   1      41.104  -9.871   6.756  1.00  0.00     0.189 C 
BRANCH  24  25
ATOM     25  O   TRP A   1      41.485 -10.642   5.614  1.00  0.00    -0.399 OA
ATOM     26  H   TRP A   1      40.773 -11.290   5.470  1.00  0.00     0.209 HD
ENDBRANCH  24  25
ENDBRANCH  23  24
BRANCH  23  27
ATOM     27  CB  TRP A   1      40.856 -10.566   9.186  1.00  0.00     0.068 C 
BRANCH  27  28
ATOM     28  CG  TRP A   1      41.026  -9.515  10.246  1.00  0.00    -0.028 A 
ATOM     29  CD2 TRP A   1      41.813  -9.598  11.439  1.00  0.00    -0.002 A 
ATOM     30  CE2 TRP A   1      41.707  -8.372  12.098  1.00  0.00     0.042 A 
ATOM     31  CE3 TRP A   1      42.613 -10.601  12.022  1.00  0.00     0.014 A 
ATOM     32  CZ2 TRP A   1      42.377  -8.092  13.295  1.00  0.00     0.030 A 
ATOM     33  NE1 TRP A   1      40.864  -7.584  11.352  1.00  0.00    -0.365 N 
ATOM     34  CH2 TRP A   1      43.182  -9.097  13.838  1.00  0.00     0.002 A 
ATOM     35  CZ3 TRP A   1      43.298 -10.337  13.215  1.00  0.00     0.001 A 
ATOM     36  HE1 TRP A   1      40.603  -6.638  11.593  1.00  0.00     0.165 HD
ATOM     37  CD1 TRP A   1      40.443  -8.261  10.241  1.00  0.00     0.096 A 
ENDBRANCH  27  28
ENDBRANCH  23  27
ENDBRANCH   5  23
TORSDOF 8
ENDMDL
MODEL 9
REMARK VINA RESULT:      -7.8      4.658      8.030
REMARK  8 active torsions:
REMARK  status: ('A' for Active; 'I' for Inactive)
REMARK    1  A    between atoms: C_4  and  N_5 
REMARK       I    between atoms: N_5  and  C_6 
REMARK    2  A    between atoms: C_6  and  C_7 
REMARK    3  A    between atoms: C_10  and  N_11 
REMARK       I    between atoms: N_11  and  C_12 
REMARK       I    between atoms: C_12  and  N_21 
REMARK    4  A    between atoms: N_21  and  CA_22 
REMARK    5  A    between atoms: CA_22  and  C_23 
REMARK    6  A    between atoms: CA_22  and  CB_25 
REMARK    7  A    between atoms: C_23  and  O_24 
REMARK    8  A    between atoms: CB_25  and  CG_26 
ROOT
HETATM    1  N   UNK A   0      39.009 -12.453   4.145  1.00  0.00    -0.309 N 
HETATM    2  C   UNK A   0      39.726 -13.170   3.242  1.00  0.00     0.321 C 
HETATM    3  O   UNK A   0      39.114 -13.823   2.396  1.00  0.00    -0.247 OA
HETATM    4  H   UNK A   0      38.024 -12.525   3.917  1.00  0.00     0.170 HD
ATOM      5  N   TRP A   1      41.082 -13.110   3.282  1.00  0.00    -0.336 N 
ATOM      6  H   TRP A   1      41.428 -12.180   3.477  1.00  0.00     0.164 HD
ENDROOT
BRANCH   1   7
HETATM    7  C   UNK A   0      39.312 -11.757   5.327  1.00  0.00     0.036 A 
HETATM    8  C   UNK A   0      39.675 -10.413   5.410  1.00  0.00     0.030 A 
HETATM    9  C   UNK A   0      40.002  -9.826   6.646  1.00  0.00     0.019 A 
HETATM   10  C   UNK A   0      39.996 -10.587   7.820  1.00  0.00     0.032 A 
HETATM   11  C   UNK A   0      39.618 -11.933   7.739  1.00  0.00     0.019 A 
HETATM   12  C   UNK A   0      39.283 -12.508   6.509  1.00  0.00     0.030 A 
BRANCH  10  13
HETATM   13  C   UNK A   0      40.388 -10.063   9.170  1.00  0.00     0.256 C 
HETATM   14  N   UNK A   0      41.250 -10.852   9.915  1.00  0.00    -0.323 N 
HETATM   15  H   UNK A   0      41.610 -11.693   9.493  1.00  0.00     0.169 HD
HETATM   16  O   UNK A   0      39.907  -8.993   9.529  1.00  0.00    -0.267 OA
BRANCH  14  17
HETATM   17  C   UNK A   0      41.651 -10.642  11.254  1.00  0.00     0.035 A 
HETATM   18  C   UNK A   0      40.863 -10.948  12.366  1.00  0.00     0.029 A 
HETATM   19  C   UNK A   0      41.352 -10.747  13.661  1.00  0.00     0.002 A 
HETATM   20  C   UNK A   0      42.630 -10.233  13.859  1.00  0.00     0.000 A 
HETATM   21  C   UNK A   0      43.423  -9.917  12.759  1.00  0.00     0.002 A 
HETATM   22  C   UNK A   0      42.938 -10.126  11.464  1.00  0.00     0.029 A 
ENDBRANCH  14  17
ENDBRANCH  10  13
ENDBRANCH   1   7
BRANCH   5  23
ATOM     23  CA  TRP A   1      41.876 -13.817   2.263  1.00  0.00     0.114 C 
BRANCH  23  24
ATOM     24  C   TRP A   1      41.981 -12.944   0.998  1.00  0.00     0.189 C 
BRANCH  24  25
ATOM     25  O   TRP A   1      42.390 -11.621   1.348  1.00  0.00    -0.399 OA
ATOM     26  H   TRP A   1      41.574 -11.104   1.470  1.00  0.00     0.209 HD
ENDBRANCH  24  25
ENDBRANCH  23  24
BRANCH  23  27
ATOM     27  CB  TRP A   1      43.277 -14.184   2.796  1.00  0.00     0.068 C 
BRANCH  27  28
ATOM     28  CG  TRP A   1      43.288 -15.490   3.539  1.00  0.00    -0.028 A 
ATOM     29  CD2 TRP A   1      43.451 -16.803   2.994  1.00  0.00    -0.002 A 
ATOM     30  CE2 TRP A   1      43.439 -17.704   4.060  1.00  0.00     0.042 A 
ATOM     31  CE3 TRP A   1      43.615 -17.314   1.691  1.00  0.00     0.014 A 
ATOM     32  CZ2 TRP A   1      43.605 -19.084   3.890  1.00  0.00     0.030 A 
ATOM     33  NE1 TRP A   1      43.245 -16.973   5.206  1.00  0.00    -0.365 N 
ATOM     34  CH2 TRP A   1      43.788 -19.560   2.589  1.00  0.00     0.002 A 
ATOM     35  CZ3 TRP A   1      43.790 -18.690   1.501  1.00  0.00     0.001 A 
ATOM     36  HE1 TRP A   1      43.190 -17.368   6.135  1.00  0.00     0.165 HD
ATOM     37  CD1 TRP A   1      43.145 -15.642   4.907  1.00  0.00     0.096 A 
ENDBRANCH  27  28
ENDBRANCH  23  27
ENDBRANCH   5  23
TORSDOF 8
ENDMDL
MODEL 10
REMARK VINA RESULT:      -7.8      4.156      8.081
REMARK  8 active torsions:
REMARK  status: ('A' for Active; 'I' for Inactive)
REMARK    1  A    between atoms: C_4  and  N_5 
REMARK       I    between atoms: N_5  and  C_6 
REMARK    2  A    between atoms: C_6  and  C_7 
REMARK    3  A    between atoms: C_10  and  N_11 
REMARK       I    between atoms: N_11  and  C_12 
REMARK       I    between atoms: C_12  and  N_21 
REMARK    4  A    between atoms: N_21  and  CA_22 
REMARK    5  A    between atoms: CA_22  and  C_23 
REMARK    6  A    between atoms: CA_22  and  CB_25 
REMARK    7  A    between atoms: C_23  and  O_24 
REMARK    8  A    between atoms: CB_25  and  CG_26 
ROOT
HETATM    1  N   UNK A   0      39.386 -13.177   3.182  1.00  0.00    -0.309 N 
HETATM    2  C   UNK A   0      39.654 -14.402   2.661  1.00  0.00     0.321 C 
HETATM    3  O   UNK A   0      38.817 -14.917   1.920  1.00  0.00    -0.247 OA
HETATM    4  H   UNK A   0      38.513 -12.837   2.795  1.00  0.00     0.170 HD
ATOM      5  N   TRP A   1      40.843 -14.992   2.947  1.00  0.00    -0.336 N 
ATOM      6  H   TRP A   1      41.615 -14.339   2.949  1.00  0.00     0.164 HD
ENDROOT
BRANCH   1   7
HETATM    7  C   UNK A   0      39.971 -12.367   4.169  1.00  0.00     0.036 A 
HETATM    8  C   UNK A   0      40.796 -11.268   3.937  1.00  0.00     0.030 A 
HETATM    9  C   UNK A   0      41.367 -10.551   5.005  1.00  0.00     0.019 A 
HETATM   10  C   UNK A   0      41.140 -10.944   6.329  1.00  0.00     0.032 A 
HETATM   11  C   UNK A   0      40.300 -12.040   6.563  1.00  0.00     0.019 A 
HETATM   12  C   UNK A   0      39.727 -12.741   5.497  1.00  0.00     0.030 A 
BRANCH  10  13
HETATM   13  C   UNK A   0      41.754 -10.280   7.525  1.00  0.00     0.256 C 
HETATM   14  N   UNK A   0      42.042 -11.096   8.607  1.00  0.00    -0.323 N 
HETATM   15  H   UNK A   0      41.883 -12.086   8.513  1.00  0.00     0.169 HD
HETATM   16  O   UNK A   0      41.938  -9.068   7.474  1.00  0.00    -0.267 OA
BRANCH  14  17
HETATM   17  C   UNK A   0      42.492 -10.688   9.885  1.00  0.00     0.035 A 
HETATM   18  C   UNK A   0      41.654 -10.216  10.897  1.00  0.00     0.029 A 
HETATM   19  C   UNK A   0      42.174  -9.870  12.148  1.00  0.00     0.002 A 
HETATM   20  C   UNK A   0      43.539  -9.985  12.398  1.00  0.00     0.000 A 
HETATM   21  C   UNK A   0      44.386 -10.447  11.395  1.00  0.00     0.002 A 
HETATM   22  C   UNK A   0      43.865 -10.802  10.147  1.00  0.00     0.029 A 
ENDBRANCH  14  17
ENDBRANCH  10  13
ENDBRANCH   1   7
BRANCH   5  23
ATOM     23  CA  TRP A   1      41.185 -16.284   2.329  1.00  0.00     0.114 C 
BRANCH  23  24
ATOM     24  C   TRP A   1      42.640 -16.242   1.824  1.00  0.00     0.189 C 
BRANCH  24  25
ATOM     25  O   TRP A   1      43.389 -15.277   2.566  1.00  0.00    -0.399 OA
ATOM     26  H   TRP A   1      44.283 -15.646   2.673  1.00  0.00     0.209 HD
ENDBRANCH  24  25
ENDBRANCH  23  24
BRANCH  23  27
ATOM     27  CB  TRP A   1      40.979 -17.453   3.316  1.00  0.00     0.068 C 
BRANCH  27  28
ATOM     28  CG  TRP A   1      41.559 -17.171   4.673  1.00  0.00    -0.028 A 
ATOM     29  CD2 TRP A   1      42.803 -17.638   5.204  1.00  0.00    -0.002 A 
ATOM     30  CE2 TRP A   1      42.947 -17.089   6.480  1.00  0.00     0.042 A 
ATOM     31  CE3 TRP A   1      43.829 -18.473   4.719  1.00  0.00     0.014 A 
ATOM     32  CZ2 TRP A   1      44.073 -17.316   7.282  1.00  0.00     0.030 A 
ATOM     33  NE1 TRP A   1      41.821 -16.343   6.729  1.00  0.00    -0.365 N 
ATOM     34  CH2 TRP A   1      45.084 -18.130   6.765  1.00  0.00     0.002 A 
ATOM     35  CZ3 TRP A   1      44.965 -18.706   5.502  1.00  0.00     0.001 A 
ATOM     36  HE1 TRP A   1      41.651 -15.830   7.583  1.00  0.00     0.165 HD
ATOM     37  CD1 TRP A   1      40.976 -16.389   5.654  1.00  0.00     0.096 A 
ENDBRANCH  27  28
ENDBRANCH  23  27
ENDBRANCH   5  23
TORSDOF 8
ENDMDL
