MODEL 1
REMARK VINA RESULT:      -8.2      0.000      0.000
REMARK  7 active torsions:
REMARK  status: ('A' for Active; 'I' for Inactive)
REMARK    1  A    between atoms: O_2  and  C_3 
REMARK    2  A    between atoms: C_4  and  N_5 
REMARK       I    between atoms: N_5  and  C_6 
REMARK       I    between atoms: C_6  and  N_7 
REMARK    3  A    between atoms: N_7  and  C_8 
REMARK    4  A    between atoms: C_8  and  C_9 
REMARK    5  A    between atoms: C_9  and  C_10 
REMARK    6  A    between atoms: C_10  and  N_11 
REMARK    7  A    between atoms: C_12  and  C_13 
ROOT
HETATM    1  N   UNL     1      42.753 -11.354   9.615  1.00  0.00    -0.306 N 
HETATM    2  C   UNL     1      43.961 -11.557   8.985  1.00  0.00     0.320 C 
HETATM    3  N   UNL     1      43.926 -12.720   8.244  1.00  0.00    -0.343 N 
HETATM    4  O   UNL     1      44.984 -10.891   9.083  1.00  0.00    -0.247 OA
HETATM    5  H   UNL     1      42.306 -12.219   9.886  1.00  0.00     0.171 HD
HETATM    6  H   UNL     1      43.018 -13.085   7.989  1.00  0.00     0.164 HD
ENDROOT
BRANCH   3   7
HETATM    7  C   UNL     1      45.117 -13.349   7.725  1.00  0.00     0.126 C 
BRANCH   7   8
HETATM    8  C   UNL     1      44.893 -14.178   6.465  1.00  0.00     0.040 C 
BRANCH   8   9
HETATM    9  C   UNL     1      44.137 -15.483   6.715  1.00  0.00     0.131 C 
BRANCH   9  10
HETATM   10  N   UNL     1      42.991 -15.596   5.792  1.00  0.00    -0.341 N 
HETATM   11  C   UNL     1      42.722 -16.582   4.889  1.00  0.00     0.117 A 
HETATM   12  N   UNL     1      41.566 -16.188   4.307  1.00  0.00    -0.350 N 
HETATM   13  H   UNL     1      41.090 -16.723   3.592  1.00  0.00     0.166 HD
HETATM   14  C   UNL     1      41.107 -14.997   4.794  1.00  0.00     0.107 A 
HETATM   15  C   UNL     1      42.004 -14.611   5.733  1.00  0.00     0.109 A 
BRANCH  11  16
HETATM   16  C   UNL     1      43.438 -17.879   4.525  1.00  0.00     0.008 A 
HETATM   17  C   UNL     1      44.127 -18.663   5.454  1.00  0.00     0.015 A 
HETATM   18  C   UNL     1      44.764 -19.847   5.061  1.00  0.00     0.001 A 
HETATM   19  C   UNL     1      44.718 -20.266   3.736  1.00  0.00     0.000 A 
HETATM   20  C   UNL     1      44.035 -19.501   2.799  1.00  0.00     0.001 A 
HETATM   21  C   UNL     1      43.401 -18.316   3.188  1.00  0.00     0.015 A 
ENDBRANCH  11  16
ENDBRANCH   9  10
ENDBRANCH   8   9
ENDBRANCH   7   8
ENDBRANCH   3   7
BRANCH   1  22
HETATM   22  C   UNL     1      42.436 -10.229  10.414  1.00  0.00     0.071 A 
HETATM   23  C   UNL     1      41.601  -9.171   9.997  1.00  0.00     0.095 A 
HETATM   24  C   UNL     1      41.385  -8.094  10.868  1.00  0.00     0.041 A 
HETATM   25  C   UNL     1      41.956  -8.079  12.144  1.00  0.00     0.026 A 
HETATM   26  C   UNL     1      42.733  -9.150  12.565  1.00  0.00     0.036 A 
HETATM   27  C   UNL     1      42.965 -10.227  11.715  1.00  0.00     0.056 A 
HETATM   28 CL   UNL     1      43.419  -9.145  14.143  1.00  0.00    -0.084 Cl
BRANCH  23  29
HETATM   29  O   UNL     1      40.975  -9.308   8.784  1.00  0.00    -0.354 OA
HETATM   30  C   UNL     1      39.578  -9.580   8.796  1.00  0.00     0.210 C 
ENDBRANCH  23  29
ENDBRANCH   1  22
TORSDOF 7
ENDMDL
MODEL 2
REMARK VINA RESULT:      -8.2      6.814      9.323
REMARK  7 active torsions:
REMARK  status: ('A' for Active; 'I' for Inactive)
REMARK    1  A    between atoms: O_2  and  C_3 
REMARK    2  A    between atoms: C_4  and  N_5 
REMARK       I    between atoms: N_5  and  C_6 
REMARK       I    between atoms: C_6  and  N_7 
REMARK    3  A    between atoms: N_7  and  C_8 
REMARK    4  A    between atoms: C_8  and  C_9 
REMARK    5  A    between atoms: C_9  and  C_10 
REMARK    6  A    between atoms: C_10  and  N_11 
REMARK    7  A    between atoms: C_12  and  C_13 
ROOT
HETATM    1  N   UNL     1      40.621 -14.544  -0.043  1.00  0.00    -0.306 N 
HETATM    2  C   UNL     1      41.110 -15.717   0.491  1.00  0.00     0.320 C 
HETATM    3  N   UNL     1      40.266 -16.181   1.478  1.00  0.00    -0.343 N 
HETATM    4  O   UNL     1      42.166 -16.279   0.236  1.00  0.00    -0.247 OA
HETATM    5  H   UNL     1      40.135 -13.979   0.639  1.00  0.00     0.171 HD
HETATM    6  H   UNL     1      39.312 -15.845   1.476  1.00  0.00     0.164 HD
ENDROOT
BRANCH   3   7
HETATM    7  C   UNL     1      40.655 -17.207   2.416  1.00  0.00     0.126 C 
BRANCH   7   8
HETATM    8  C   UNL     1      41.347 -16.684   3.670  1.00  0.00     0.040 C 
BRANCH   8   9
HETATM    9  C   UNL     1      41.484 -17.728   4.778  1.00  0.00     0.131 C 
BRANCH   9  10
HETATM   10  N   UNL     1      42.858 -17.725   5.318  1.00  0.00    -0.341 N 
HETATM   11  C   UNL     1      43.892 -18.558   5.012  1.00  0.00     0.117 A 
HETATM   12  N   UNL     1      44.907 -18.124   5.794  1.00  0.00    -0.350 N 
HETATM   13  H   UNL     1      45.832 -18.534   5.789  1.00  0.00     0.166 HD
HETATM   14  C   UNL     1      44.551 -17.067   6.584  1.00  0.00     0.107 A 
HETATM   15  C   UNL     1      43.253 -16.808   6.294  1.00  0.00     0.109 A 
BRANCH  11  16
HETATM   16  C   UNL     1      44.033 -19.723   4.036  1.00  0.00     0.008 A 
HETATM   17  C   UNL     1      44.573 -20.961   4.391  1.00  0.00     0.015 A 
HETATM   18  C   UNL     1      44.675 -21.996   3.453  1.00  0.00     0.001 A 
HETATM   19  C   UNL     1      44.235 -21.808   2.147  1.00  0.00     0.000 A 
HETATM   20  C   UNL     1      43.692 -20.584   1.776  1.00  0.00     0.001 A 
HETATM   21  C   UNL     1      43.592 -19.548   2.711  1.00  0.00     0.015 A 
ENDBRANCH  11  16
ENDBRANCH   9  10
ENDBRANCH   8   9
ENDBRANCH   7   8
ENDBRANCH   3   7
BRANCH   1  22
HETATM   22  C   UNL     1      41.220 -13.831  -1.109  1.00  0.00     0.071 A 
HETATM   23  C   UNL     1      41.075 -14.171  -2.470  1.00  0.00     0.095 A 
HETATM   24  C   UNL     1      41.742 -13.405  -3.437  1.00  0.00     0.041 A 
HETATM   25  C   UNL     1      42.512 -12.298  -3.066  1.00  0.00     0.026 A 
HETATM   26  C   UNL     1      42.607 -11.940  -1.728  1.00  0.00     0.036 A 
HETATM   27  C   UNL     1      41.957 -12.690  -0.752  1.00  0.00     0.056 A 
HETATM   28 CL   UNL     1      43.536 -10.566  -1.271  1.00  0.00    -0.084 Cl
BRANCH  23  29
HETATM   29  O   UNL     1      40.207 -15.190  -2.773  1.00  0.00    -0.354 OA
HETATM   30  C   UNL     1      38.962 -14.835  -3.363  1.00  0.00     0.210 C 
ENDBRANCH  23  29
ENDBRANCH   1  22
TORSDOF 7
ENDMDL
MODEL 3
REMARK VINA RESULT:      -8.1      1.150      1.924
REMARK  7 active torsions:
REMARK  status: ('A' for Active; 'I' for Inactive)
REMARK    1  A    between atoms: O_2  and  C_3 
REMARK    2  A    between atoms: C_4  and  N_5 
REMARK       I    between atoms: N_5  and  C_6 
REMARK       I    between atoms: C_6  and  N_7 
REMARK    3  A    between atoms: N_7  and  C_8 
REMARK    4  A    between atoms: C_8  and  C_9 
REMARK    5  A    between atoms: C_9  and  C_10 
REMARK    6  A    between atoms: C_10  and  N_11 
REMARK    7  A    between atoms: C_12  and  C_13 
ROOT
HETATM    1  N   UNL     1      42.762 -11.478   9.620  1.00  0.00    -0.306 N 
HETATM    2  C   UNL     1      43.934 -11.650   8.917  1.00  0.00     0.320 C 
HETATM    3  N   UNL     1      43.905 -12.841   8.221  1.00  0.00    -0.343 N 
HETATM    4  O   UNL     1      44.929 -10.936   8.922  1.00  0.00    -0.247 OA
HETATM    5  H   UNL     1      42.376 -12.350   9.951  1.00  0.00     0.171 HD
HETATM    6  H   UNL     1      43.001 -13.255   8.041  1.00  0.00     0.164 HD
ENDROOT
BRANCH   3   7
HETATM    7  C   UNL     1      45.088 -13.434   7.644  1.00  0.00     0.126 C 
BRANCH   7   8
HETATM    8  C   UNL     1      44.848 -14.155   6.322  1.00  0.00     0.040 C 
BRANCH   8   9
HETATM    9  C   UNL     1      43.455 -14.773   6.203  1.00  0.00     0.131 C 
BRANCH   9  10
HETATM   10  N   UNL     1      43.497 -16.206   6.556  1.00  0.00    -0.341 N 
HETATM   11  C   UNL     1      43.548 -17.285   5.725  1.00  0.00     0.117 A 
HETATM   12  N   UNL     1      43.558 -18.346   6.564  1.00  0.00    -0.350 N 
HETATM   13  H   UNL     1      43.608 -19.307   6.249  1.00  0.00     0.166 HD
HETATM   14  C   UNL     1      43.504 -17.981   7.879  1.00  0.00     0.107 A 
HETATM   15  C   UNL     1      43.461 -16.627   7.887  1.00  0.00     0.109 A 
BRANCH  11  16
HETATM   16  C   UNL     1      43.604 -17.423   4.206  1.00  0.00     0.008 A 
HETATM   17  C   UNL     1      43.447 -16.346   3.331  1.00  0.00     0.015 A 
HETATM   18  C   UNL     1      43.512 -16.533   1.944  1.00  0.00     0.001 A 
HETATM   19  C   UNL     1      43.738 -17.798   1.414  1.00  0.00     0.000 A 
HETATM   20  C   UNL     1      43.901 -18.881   2.269  1.00  0.00     0.001 A 
HETATM   21  C   UNL     1      43.833 -18.697   3.655  1.00  0.00     0.015 A 
ENDBRANCH  11  16
ENDBRANCH   9  10
ENDBRANCH   8   9
ENDBRANCH   7   8
ENDBRANCH   3   7
BRANCH   1  22
HETATM   22  C   UNL     1      42.447 -10.339  10.400  1.00  0.00     0.071 A 
HETATM   23  C   UNL     1      41.634  -9.275   9.955  1.00  0.00     0.095 A 
HETATM   24  C   UNL     1      41.417  -8.184  10.809  1.00  0.00     0.041 A 
HETATM   25  C   UNL     1      41.966  -8.160  12.094  1.00  0.00     0.026 A 
HETATM   26  C   UNL     1      42.722  -9.236  12.542  1.00  0.00     0.036 A 
HETATM   27  C   UNL     1      42.953 -10.327  11.710  1.00  0.00     0.056 A 
HETATM   28 CL   UNL     1      43.379  -9.220  14.132  1.00  0.00    -0.084 Cl
BRANCH  23  29
HETATM   29  O   UNL     1      41.027  -9.419   8.733  1.00  0.00    -0.354 OA
HETATM   30  C   UNL     1      39.645  -9.755   8.725  1.00  0.00     0.210 C 
ENDBRANCH  23  29
ENDBRANCH   1  22
TORSDOF 7
ENDMDL
MODEL 4
REMARK VINA RESULT:      -7.9      6.816      9.719
REMARK  7 active torsions:
REMARK  status: ('A' for Active; 'I' for Inactive)
REMARK    1  A    between atoms: O_2  and  C_3 
REMARK    2  A    between atoms: C_4  and  N_5 
REMARK       I    between atoms: N_5  and  C_6 
REMARK       I    between atoms: C_6  and  N_7 
REMARK    3  A    between atoms: N_7  and  C_8 
REMARK    4  A    between atoms: C_8  and  C_9 
REMARK    5  A    between atoms: C_9  and  C_10 
REMARK    6  A    between atoms: C_10  and  N_11 
REMARK    7  A    between atoms: C_12  and  C_13 
ROOT
HETATM    1  N   UNL     1      41.849 -14.808  -1.701  1.00  0.00    -0.306 N 
HETATM    2  C   UNL     1      41.254 -15.183  -0.516  1.00  0.00     0.320 C 
HETATM    3  N   UNL     1      41.734 -16.410  -0.107  1.00  0.00    -0.343 N 
HETATM    4  O   UNL     1      40.367 -14.606   0.098  1.00  0.00    -0.247 OA
HETATM    5  H   UNL     1      42.055 -15.595  -2.299  1.00  0.00     0.171 HD
HETATM    6  H   UNL     1      42.619 -16.717  -0.487  1.00  0.00     0.164 HD
ENDROOT
BRANCH   3   7
HETATM    7  C   UNL     1      41.091 -17.195   0.920  1.00  0.00     0.126 C 
BRANCH   7   8
HETATM    8  C   UNL     1      41.483 -16.810   2.343  1.00  0.00     0.040 C 
BRANCH   8   9
HETATM    9  C   UNL     1      42.988 -16.630   2.538  1.00  0.00     0.131 C 
BRANCH   9  10
HETATM   10  N   UNL     1      43.369 -16.958   3.927  1.00  0.00    -0.341 N 
HETATM   11  C   UNL     1      43.778 -18.154   4.434  1.00  0.00     0.117 A 
HETATM   12  N   UNL     1      43.985 -17.901   5.747  1.00  0.00    -0.350 N 
HETATM   13  H   UNL     1      44.314 -18.596   6.406  1.00  0.00     0.166 HD
HETATM   14  C   UNL     1      43.712 -16.606   6.085  1.00  0.00     0.107 A 
HETATM   15  C   UNL     1      43.317 -16.000   4.940  1.00  0.00     0.109 A 
BRANCH  11  16
HETATM   16  C   UNL     1      44.014 -19.524   3.803  1.00  0.00     0.008 A 
HETATM   17  C   UNL     1      44.641 -20.579   4.470  1.00  0.00     0.015 A 
HETATM   18  C   UNL     1      44.828 -21.816   3.841  1.00  0.00     0.001 A 
HETATM   19  C   UNL     1      44.387 -22.017   2.538  1.00  0.00     0.000 A 
HETATM   20  C   UNL     1      43.757 -20.981   1.860  1.00  0.00     0.001 A 
HETATM   21  C   UNL     1      43.573 -19.743   2.486  1.00  0.00     0.015 A 
ENDBRANCH  11  16
ENDBRANCH   9  10
ENDBRANCH   8   9
ENDBRANCH   7   8
ENDBRANCH   3   7
BRANCH   1  22
HETATM   22  C   UNL     1      41.617 -13.582  -2.369  1.00  0.00     0.071 A 
HETATM   23  C   UNL     1      40.595 -13.379  -3.320  1.00  0.00     0.095 A 
HETATM   24  C   UNL     1      40.482 -12.126  -3.938  1.00  0.00     0.041 A 
HETATM   25  C   UNL     1      41.344 -11.079  -3.598  1.00  0.00     0.026 A 
HETATM   26  C   UNL     1      42.314 -11.273  -2.623  1.00  0.00     0.036 A 
HETATM   27  C   UNL     1      42.446 -12.510  -2.000  1.00  0.00     0.056 A 
HETATM   28 CL   UNL     1      43.361  -9.980  -2.186  1.00  0.00    -0.084 Cl
BRANCH  23  29
HETATM   29  O   UNL     1      39.708 -14.407  -3.516  1.00  0.00    -0.354 OA
HETATM   30  C   UNL     1      38.392 -14.244  -2.998  1.00  0.00     0.210 C 
ENDBRANCH  23  29
ENDBRANCH   1  22
TORSDOF 7
ENDMDL
MODEL 5
REMARK VINA RESULT:      -7.9      3.340      8.493
REMARK  7 active torsions:
REMARK  status: ('A' for Active; 'I' for Inactive)
REMARK    1  A    between atoms: O_2  and  C_3 
REMARK    2  A    between atoms: C_4  and  N_5 
REMARK       I    between atoms: N_5  and  C_6 
REMARK       I    between atoms: C_6  and  N_7 
REMARK    3  A    between atoms: N_7  and  C_8 
REMARK    4  A    between atoms: C_8  and  C_9 
REMARK    5  A    between atoms: C_9  and  C_10 
REMARK    6  A    between atoms: C_10  and  N_11 
REMARK    7  A    between atoms: C_12  and  C_13 
ROOT
HETATM    1  N   UNL     1      43.671 -14.758   7.354  1.00  0.00    -0.306 N 
HETATM    2  C   UNL     1      44.726 -13.885   7.500  1.00  0.00     0.320 C 
HETATM    3  N   UNL     1      44.610 -13.187   8.684  1.00  0.00    -0.343 N 
HETATM    4  O   UNL     1      45.626 -13.650   6.705  1.00  0.00    -0.247 OA
HETATM    5  H   UNL     1      42.814 -14.402   7.753  1.00  0.00     0.171 HD
HETATM    6  H   UNL     1      44.021 -13.582   9.405  1.00  0.00     0.164 HD
ENDROOT
BRANCH   3   7
HETATM    7  C   UNL     1      45.386 -12.003   8.970  1.00  0.00     0.126 C 
BRANCH   7   8
HETATM    8  C   UNL     1      45.326 -11.547  10.423  1.00  0.00     0.040 C 
BRANCH   8   9
HETATM    9  C   UNL     1      44.014 -11.901  11.124  1.00  0.00     0.131 C 
BRANCH   9  10
HETATM   10  N   UNL     1      43.248 -10.675  11.427  1.00  0.00    -0.341 N 
HETATM   11  C   UNL     1      42.210 -10.130  10.733  1.00  0.00     0.117 A 
HETATM   12  N   UNL     1      41.892  -9.019  11.436  1.00  0.00    -0.350 N 
HETATM   13  H   UNL     1      41.138  -8.393  11.182  1.00  0.00     0.166 HD
HETATM   14  C   UNL     1      42.690  -8.838  12.530  1.00  0.00     0.107 A 
HETATM   15  C   UNL     1      43.556  -9.880  12.532  1.00  0.00     0.109 A 
BRANCH  11  16
HETATM   16  C   UNL     1      41.466 -10.558   9.471  1.00  0.00     0.008 A 
HETATM   17  C   UNL     1      42.070 -10.639   8.214  1.00  0.00     0.015 A 
HETATM   18  C   UNL     1      41.337 -11.042   7.090  1.00  0.00     0.001 A 
HETATM   19  C   UNL     1      39.992 -11.372   7.208  1.00  0.00     0.000 A 
HETATM   20  C   UNL     1      39.375 -11.300   8.451  1.00  0.00     0.001 A 
HETATM   21  C   UNL     1      40.104 -10.895   9.574  1.00  0.00     0.015 A 
ENDBRANCH  11  16
ENDBRANCH   9  10
ENDBRANCH   8   9
ENDBRANCH   7   8
ENDBRANCH   3   7
BRANCH   1  22
HETATM   22  C   UNL     1      43.510 -15.659   6.274  1.00  0.00     0.071 A 
HETATM   23  C   UNL     1      42.745 -15.384   5.121  1.00  0.00     0.095 A 
HETATM   24  C   UNL     1      42.635 -16.369   4.129  1.00  0.00     0.041 A 
HETATM   25  C   UNL     1      43.297 -17.593   4.258  1.00  0.00     0.026 A 
HETATM   26  C   UNL     1      44.090 -17.835   5.373  1.00  0.00     0.036 A 
HETATM   27  C   UNL     1      44.209 -16.873   6.372  1.00  0.00     0.056 A 
HETATM   28 CL   UNL     1      44.924 -19.331   5.525  1.00  0.00    -0.084 Cl
BRANCH  23  29
HETATM   29  O   UNL     1      42.225 -14.120   5.001  1.00  0.00    -0.354 OA
HETATM   30  C   UNL     1      42.873 -13.229   4.101  1.00  0.00     0.210 C 
ENDBRANCH  23  29
ENDBRANCH   1  22
TORSDOF 7
ENDMDL
MODEL 6
REMARK VINA RESULT:      -7.9      3.687      4.873
REMARK  7 active torsions:
REMARK  status: ('A' for Active; 'I' for Inactive)
REMARK    1  A    between atoms: O_2  and  C_3 
REMARK    2  A    between atoms: C_4  and  N_5 
REMARK       I    between atoms: N_5  and  C_6 
REMARK       I    between atoms: C_6  and  N_7 
REMARK    3  A    between atoms: N_7  and  C_8 
REMARK    4  A    between atoms: C_8  and  C_9 
REMARK    5  A    between atoms: C_9  and  C_10 
REMARK    6  A    between atoms: C_10  and  N_11 
REMARK    7  A    between atoms: C_12  and  C_13 
ROOT
HETATM    1  N   UNL     1      39.276 -13.527   6.190  1.00  0.00    -0.306 N 
HETATM    2  C   UNL     1      40.352 -14.347   5.926  1.00  0.00     0.320 C 
HETATM    3  N   UNL     1      39.959 -15.669   5.934  1.00  0.00    -0.343 N 
HETATM    4  O   UNL     1      41.524 -14.028   5.776  1.00  0.00    -0.247 OA
HETATM    5  H   UNL     1      38.615 -13.947   6.827  1.00  0.00     0.171 HD
HETATM    6  H   UNL     1      38.976 -15.866   5.805  1.00  0.00     0.164 HD
ENDROOT
BRANCH   3   7
HETATM    7  C   UNL     1      40.902 -16.761   5.990  1.00  0.00     0.126 C 
BRANCH   7   8
HETATM    8  C   UNL     1      41.338 -17.286   4.627  1.00  0.00     0.040 C 
BRANCH   8   9
HETATM    9  C   UNL     1      42.742 -16.842   4.217  1.00  0.00     0.131 C 
BRANCH   9  10
HETATM   10  N   UNL     1      43.756 -17.506   5.060  1.00  0.00    -0.341 N 
HETATM   11  C   UNL     1      44.334 -18.729   4.890  1.00  0.00     0.117 A 
HETATM   12  N   UNL     1      45.175 -18.844   5.944  1.00  0.00    -0.350 N 
HETATM   13  H   UNL     1      45.770 -19.648   6.097  1.00  0.00     0.166 HD
HETATM   14  C   UNL     1      45.140 -17.758   6.770  1.00  0.00     0.107 A 
HETATM   15  C   UNL     1      44.241 -16.904   6.223  1.00  0.00     0.109 A 
BRANCH  11  16
HETATM   16  C   UNL     1      44.188 -19.805   3.819  1.00  0.00     0.008 A 
HETATM   17  C   UNL     1      43.603 -19.573   2.571  1.00  0.00     0.015 A 
HETATM   18  C   UNL     1      43.499 -20.601   1.625  1.00  0.00     0.001 A 
HETATM   19  C   UNL     1      43.981 -21.873   1.911  1.00  0.00     0.000 A 
HETATM   20  C   UNL     1      44.570 -22.122   3.144  1.00  0.00     0.001 A 
HETATM   21  C   UNL     1      44.671 -21.098   4.093  1.00  0.00     0.015 A 
ENDBRANCH  11  16
ENDBRANCH   9  10
ENDBRANCH   8   9
ENDBRANCH   7   8
ENDBRANCH   3   7
BRANCH   1  22
HETATM   22  C   UNL     1      39.323 -12.112   6.208  1.00  0.00     0.071 A 
HETATM   23  C   UNL     1      39.109 -11.298   5.076  1.00  0.00     0.095 A 
HETATM   24  C   UNL     1      39.211  -9.906   5.212  1.00  0.00     0.041 A 
HETATM   25  C   UNL     1      39.487  -9.326   6.453  1.00  0.00     0.026 A 
HETATM   26  C   UNL     1      39.645 -10.133   7.573  1.00  0.00     0.036 A 
HETATM   27  C   UNL     1      39.552 -11.517   7.459  1.00  0.00     0.056 A 
HETATM   28 CL   UNL     1      39.961  -9.421   9.106  1.00  0.00    -0.084 Cl
BRANCH  23  29
HETATM   29  O   UNL     1      38.721 -11.924   3.918  1.00  0.00    -0.354 OA
HETATM   30  C   UNL     1      39.577 -11.798   2.788  1.00  0.00     0.210 C 
ENDBRANCH  23  29
ENDBRANCH   1  22
TORSDOF 7
ENDMDL
MODEL 7
REMARK VINA RESULT:      -7.8      4.564      5.455
REMARK  7 active torsions:
REMARK  status: ('A' for Active; 'I' for Inactive)
REMARK    1  A    between atoms: O_2  and  C_3 
REMARK    2  A    between atoms: C_4  and  N_5 
REMARK       I    between atoms: N_5  and  C_6 
REMARK       I    between atoms: C_6  and  N_7 
REMARK    3  A    between atoms: N_7  and  C_8 
REMARK    4  A    between atoms: C_8  and  C_9 
REMARK    5  A    between atoms: C_9  and  C_10 
REMARK    6  A    between atoms: C_10  and  N_11 
REMARK    7  A    between atoms: C_12  and  C_13 
ROOT
HETATM    1  N   UNL     1      39.431 -13.960   5.462  1.00  0.00    -0.306 N 
HETATM    2  C   UNL     1      40.566 -14.674   5.777  1.00  0.00     0.320 C 
HETATM    3  N   UNL     1      40.241 -15.978   6.088  1.00  0.00    -0.343 N 
HETATM    4  O   UNL     1      41.715 -14.262   5.867  1.00  0.00    -0.247 OA
HETATM    5  H   UNL     1      38.623 -14.263   5.988  1.00  0.00     0.171 HD
HETATM    6  H   UNL     1      39.352 -16.330   5.759  1.00  0.00     0.164 HD
ENDROOT
BRANCH   3   7
HETATM    7  C   UNL     1      41.164 -16.875   6.742  1.00  0.00     0.126 C 
BRANCH   7   8
HETATM    8  C   UNL     1      42.063 -17.657   5.789  1.00  0.00     0.040 C 
BRANCH   8   9
HETATM    9  C   UNL     1      41.489 -17.796   4.379  1.00  0.00     0.131 C 
BRANCH   9  10
HETATM   10  N   UNL     1      42.484 -17.366   3.376  1.00  0.00    -0.341 N 
HETATM   11  C   UNL     1      43.456 -18.107   2.772  1.00  0.00     0.117 A 
HETATM   12  N   UNL     1      44.081 -17.226   1.958  1.00  0.00    -0.350 N 
HETATM   13  H   UNL     1      44.853 -17.476   1.352  1.00  0.00     0.166 HD
HETATM   14  C   UNL     1      43.555 -15.968   2.034  1.00  0.00     0.107 A 
HETATM   15  C   UNL     1      42.544 -16.044   2.933  1.00  0.00     0.109 A 
BRANCH  11  16
HETATM   16  C   UNL     1      43.851 -19.578   2.870  1.00  0.00     0.008 A 
HETATM   17  C   UNL     1      44.503 -20.126   3.977  1.00  0.00     0.015 A 
HETATM   18  C   UNL     1      44.840 -21.485   4.011  1.00  0.00     0.001 A 
HETATM   19  C   UNL     1      44.525 -22.316   2.942  1.00  0.00     0.000 A 
HETATM   20  C   UNL     1      43.873 -21.789   1.833  1.00  0.00     0.001 A 
HETATM   21  C   UNL     1      43.539 -20.431   1.795  1.00  0.00     0.015 A 
ENDBRANCH  11  16
ENDBRANCH   9  10
ENDBRANCH   8   9
ENDBRANCH   7   8
ENDBRANCH   3   7
BRANCH   1  22
HETATM   22  C   UNL     1      39.415 -12.606   5.051  1.00  0.00     0.071 A 
HETATM   23  C   UNL     1      39.365 -12.188   3.704  1.00  0.00     0.095 A 
HETATM   24  C   UNL     1      39.385 -10.815   3.418  1.00  0.00     0.041 A 
HETATM   25  C   UNL     1      39.418  -9.870   4.447  1.00  0.00     0.026 A 
HETATM   26  C   UNL     1      39.414 -10.290   5.771  1.00  0.00     0.036 A 
HETATM   27  C   UNL     1      39.400 -11.647   6.077  1.00  0.00     0.056 A 
HETATM   28 CL   UNL     1      39.432  -9.129   7.040  1.00  0.00    -0.084 Cl
BRANCH  23  29
HETATM   29  O   UNL     1      39.209 -13.162   2.751  1.00  0.00    -0.354 OA
HETATM   30  C   UNL     1      40.212 -13.262   1.747  1.00  0.00     0.210 C 
ENDBRANCH  23  29
ENDBRANCH   1  22
TORSDOF 7
ENDMDL
MODEL 8
REMARK VINA RESULT:      -7.8      6.986     10.173
REMARK  7 active torsions:
REMARK  status: ('A' for Active; 'I' for Inactive)
REMARK    1  A    between atoms: O_2  and  C_3 
REMARK    2  A    between atoms: C_4  and  N_5 
REMARK       I    between atoms: N_5  and  C_6 
REMARK       I    between atoms: C_6  and  N_7 
REMARK    3  A    between atoms: N_7  and  C_8 
REMARK    4  A    between atoms: C_8  and  C_9 
REMARK    5  A    between atoms: C_9  and  C_10 
REMARK    6  A    between atoms: C_10  and  N_11 
REMARK    7  A    between atoms: C_12  and  C_13 
ROOT
HETATM    1  N   UNL     1      43.530 -17.568   3.598  1.00  0.00    -0.306 N 
HETATM    2  C   UNL     1      42.236 -17.114   3.734  1.00  0.00     0.320 C 
HETATM    3  N   UNL     1      42.166 -15.769   3.438  1.00  0.00    -0.343 N 
HETATM    4  O   UNL     1      41.258 -17.733   4.132  1.00  0.00    -0.247 OA
HETATM    5  H   UNL     1      44.215 -16.868   3.845  1.00  0.00     0.171 HD
HETATM    6  H   UNL     1      42.913 -15.373   2.883  1.00  0.00     0.164 HD
ENDROOT
BRANCH   3   7
HETATM    7  C   UNL     1      41.023 -14.955   3.777  1.00  0.00     0.126 C 
BRANCH   7   8
HETATM    8  C   UNL     1      40.183 -14.521   2.582  1.00  0.00     0.040 C 
BRANCH   8   9
HETATM    9  C   UNL     1      40.735 -14.996   1.238  1.00  0.00     0.131 C 
BRANCH   9  10
HETATM   10  N   UNL     1      41.122 -13.840   0.404  1.00  0.00    -0.341 N 
HETATM   11  C   UNL     1      40.823 -13.597  -0.903  1.00  0.00     0.117 A 
HETATM   12  N   UNL     1      41.429 -12.417  -1.165  1.00  0.00    -0.350 N 
HETATM   13  H   UNL     1      41.381 -11.951  -2.063  1.00  0.00     0.166 HD
HETATM   14  C   UNL     1      42.104 -11.917  -0.087  1.00  0.00     0.107 A 
HETATM   15  C   UNL     1      41.920 -12.813   0.912  1.00  0.00     0.109 A 
BRANCH  11  16
HETATM   16  C   UNL     1      40.002 -14.360  -1.939  1.00  0.00     0.008 A 
HETATM   17  C   UNL     1      38.687 -14.027  -2.273  1.00  0.00     0.015 A 
HETATM   18  C   UNL     1      37.983 -14.763  -3.234  1.00  0.00     0.001 A 
HETATM   19  C   UNL     1      38.584 -15.838  -3.878  1.00  0.00     0.000 A 
HETATM   20  C   UNL     1      39.893 -16.182  -3.562  1.00  0.00     0.001 A 
HETATM   21  C   UNL     1      40.597 -15.451  -2.598  1.00  0.00     0.015 A 
ENDBRANCH  11  16
ENDBRANCH   9  10
ENDBRANCH   8   9
ENDBRANCH   7   8
ENDBRANCH   3   7
BRANCH   1  22
HETATM   22  C   UNL     1      43.940 -18.910   3.780  1.00  0.00     0.071 A 
HETATM   23  C   UNL     1      44.340 -19.455   5.019  1.00  0.00     0.095 A 
HETATM   24  C   UNL     1      44.754 -20.793   5.070  1.00  0.00     0.041 A 
HETATM   25  C   UNL     1      44.741 -21.591   3.922  1.00  0.00     0.026 A 
HETATM   26  C   UNL     1      44.296 -21.061   2.717  1.00  0.00     0.036 A 
HETATM   27  C   UNL     1      43.885 -19.733   2.644  1.00  0.00     0.056 A 
HETATM   28 CL   UNL     1      44.257 -22.046   1.308  1.00  0.00    -0.084 Cl
BRANCH  23  29
HETATM   29  O   UNL     1      44.211 -18.655   6.126  1.00  0.00    -0.354 OA
HETATM   30  C   UNL     1      45.382 -17.998   6.598  1.00  0.00     0.210 C 
ENDBRANCH  23  29
ENDBRANCH   1  22
TORSDOF 7
ENDMDL
MODEL 9
REMARK VINA RESULT:      -7.8      3.389      9.428
REMARK  7 active torsions:
REMARK  status: ('A' for Active; 'I' for Inactive)
REMARK    1  A    between atoms: O_2  and  C_3 
REMARK    2  A    between atoms: C_4  and  N_5 
REMARK       I    between atoms: N_5  and  C_6 
REMARK       I    between atoms: C_6  and  N_7 
REMARK    3  A    between atoms: N_7  and  C_8 
REMARK    4  A    between atoms: C_8  and  C_9 
REMARK    5  A    between atoms: C_9  and  C_10 
REMARK    6  A    between atoms: C_10  and  N_11 
REMARK    7  A    between atoms: C_12  and  C_13 
ROOT
HETATM    1  N   UNL     1      43.730 -15.057   7.264  1.00  0.00    -0.306 N 
HETATM    2  C   UNL     1      44.698 -14.080   7.179  1.00  0.00     0.320 C 
HETATM    3  N   UNL     1      44.793 -13.395   8.372  1.00  0.00    -0.343 N 
HETATM    4  O   UNL     1      45.358 -13.756   6.200  1.00  0.00    -0.247 OA
HETATM    5  H   UNL     1      42.960 -14.790   7.860  1.00  0.00     0.171 HD
HETATM    6  H   UNL     1      44.433 -13.846   9.201  1.00  0.00     0.164 HD
ENDROOT
BRANCH   3   7
HETATM    7  C   UNL     1      45.492 -12.137   8.494  1.00  0.00     0.126 C 
BRANCH   7   8
HETATM    8  C   UNL     1      45.137 -11.340   9.744  1.00  0.00     0.040 C 
BRANCH   8   9
HETATM    9  C   UNL     1      43.817 -11.762  10.389  1.00  0.00     0.131 C 
BRANCH   9  10
HETATM   10  N   UNL     1      42.758 -10.782  10.078  1.00  0.00    -0.341 N 
HETATM   11  C   UNL     1      42.038 -10.007  10.938  1.00  0.00     0.117 A 
HETATM   12  N   UNL     1      41.205  -9.309  10.132  1.00  0.00    -0.350 N 
HETATM   13  H   UNL     1      40.542  -8.624  10.474  1.00  0.00     0.166 HD
HETATM   14  C   UNL     1      41.361  -9.620   8.812  1.00  0.00     0.107 A 
HETATM   15  C   UNL     1      42.340 -10.556   8.765  1.00  0.00     0.109 A 
BRANCH  11  16
HETATM   16  C   UNL     1      42.065  -9.841  12.454  1.00  0.00     0.008 A 
HETATM   17  C   UNL     1      41.012 -10.227  13.287  1.00  0.00     0.015 A 
HETATM   18  C   UNL     1      41.093 -10.052  14.675  1.00  0.00     0.001 A 
HETATM   19  C   UNL     1      42.229  -9.492  15.249  1.00  0.00     0.000 A 
HETATM   20  C   UNL     1      43.288  -9.105  14.437  1.00  0.00     0.001 A 
HETATM   21  C   UNL     1      43.207  -9.276  13.050  1.00  0.00     0.015 A 
ENDBRANCH  11  16
ENDBRANCH   9  10
ENDBRANCH   8   9
ENDBRANCH   7   8
ENDBRANCH   3   7
BRANCH   1  22
HETATM   22  C   UNL     1      43.412 -15.973   6.233  1.00  0.00     0.071 A 
HETATM   23  C   UNL     1      42.383 -15.773   5.287  1.00  0.00     0.095 A 
HETATM   24  C   UNL     1      42.142 -16.768   4.328  1.00  0.00     0.041 A 
HETATM   25  C   UNL     1      42.926 -17.924   4.282  1.00  0.00     0.026 A 
HETATM   26  C   UNL     1      43.969 -18.087   5.184  1.00  0.00     0.036 A 
HETATM   27  C   UNL     1      44.224 -17.115   6.147  1.00  0.00     0.056 A 
HETATM   28 CL   UNL     1      44.950 -19.498   5.116  1.00  0.00    -0.084 Cl
BRANCH  23  29
HETATM   29  O   UNL     1      41.736 -14.565   5.311  1.00  0.00    -0.354 OA
HETATM   30  C   UNL     1      40.386 -14.554   5.763  1.00  0.00     0.210 C 
ENDBRANCH  23  29
ENDBRANCH   1  22
TORSDOF 7
ENDMDL
MODEL 10
REMARK VINA RESULT:      -7.8      6.777      9.967
REMARK  7 active torsions:
REMARK  status: ('A' for Active; 'I' for Inactive)
REMARK    1  A    between atoms: O_2  and  C_3 
REMARK    2  A    between atoms: C_4  and  N_5 
REMARK       I    between atoms: N_5  and  C_6 
REMARK       I    between atoms: C_6  and  N_7 
REMARK    3  A    between atoms: N_7  and  C_8 
REMARK    4  A    between atoms: C_8  and  C_9 
REMARK    5  A    between atoms: C_9  and  C_10 
REMARK    6  A    between atoms: C_10  and  N_11 
REMARK    7  A    between atoms: C_12  and  C_13 
ROOT
HETATM    1  N   UNL     1      40.689 -17.115   3.341  1.00  0.00    -0.306 N 
HETATM    2  C   UNL     1      40.557 -15.787   3.001  1.00  0.00     0.320 C 
HETATM    3  N   UNL     1      39.302 -15.549   2.479  1.00  0.00    -0.343 N 
HETATM    4  O   UNL     1      41.406 -14.907   3.052  1.00  0.00    -0.247 OA
HETATM    5  H   UNL     1      40.177 -17.728   2.722  1.00  0.00     0.171 HD
HETATM    6  H   UNL     1      38.573 -16.216   2.690  1.00  0.00     0.164 HD
ENDROOT
BRANCH   3   7
HETATM    7  C   UNL     1      38.973 -14.339   1.763  1.00  0.00     0.126 C 
BRANCH   7   8
HETATM    8  C   UNL     1      39.290 -14.384   0.273  1.00  0.00     0.040 C 
BRANCH   8   9
HETATM    9  C   UNL     1      40.426 -13.450  -0.143  1.00  0.00     0.131 C 
BRANCH   9  10
HETATM   10  N   UNL     1      41.021 -13.901  -1.417  1.00  0.00    -0.341 N 
HETATM   11  C   UNL     1      41.799 -13.197  -2.287  1.00  0.00     0.117 A 
HETATM   12  N   UNL     1      42.056 -14.075  -3.283  1.00  0.00    -0.350 N 
HETATM   13  H   UNL     1      42.632 -13.856  -4.087  1.00  0.00     0.166 HD
HETATM   14  C   UNL     1      41.465 -15.291  -3.083  1.00  0.00     0.107 A 
HETATM   15  C   UNL     1      40.803 -15.190  -1.905  1.00  0.00     0.109 A 
BRANCH  11  16
HETATM   16  C   UNL     1      42.346 -11.772  -2.271  1.00  0.00     0.008 A 
HETATM   17  C   UNL     1      43.160 -11.274  -1.251  1.00  0.00     0.015 A 
HETATM   18  C   UNL     1      43.636  -9.957  -1.291  1.00  0.00     0.001 A 
HETATM   19  C   UNL     1      43.308  -9.122  -2.352  1.00  0.00     0.000 A 
HETATM   20  C   UNL     1      42.503  -9.601  -3.378  1.00  0.00     0.001 A 
HETATM   21  C   UNL     1      42.023 -10.915  -3.338  1.00  0.00     0.015 A 
ENDBRANCH  11  16
ENDBRANCH   9  10
ENDBRANCH   8   9
ENDBRANCH   7   8
ENDBRANCH   3   7
BRANCH   1  22
HETATM   22  C   UNL     1      41.835 -17.684   3.947  1.00  0.00     0.071 A 
HETATM   23  C   UNL     1      42.860 -18.345   3.238  1.00  0.00     0.095 A 
HETATM   24  C   UNL     1      43.934 -18.896   3.953  1.00  0.00     0.041 A 
HETATM   25  C   UNL     1      44.010 -18.766   5.343  1.00  0.00     0.026 A 
HETATM   26  C   UNL     1      43.021 -18.069   6.027  1.00  0.00     0.036 A 
HETATM   27  C   UNL     1      41.945 -17.519   5.337  1.00  0.00     0.056 A 
HETATM   28 CL   UNL     1      43.124 -17.888   7.734  1.00  0.00    -0.084 Cl
BRANCH  23  29
HETATM   29  O   UNL     1      42.787 -18.328   1.869  1.00  0.00    -0.354 OA
HETATM   30  C   UNL     1      43.723 -17.513   1.173  1.00  0.00     0.210 C 
ENDBRANCH  23  29
ENDBRANCH   1  22
TORSDOF 7
ENDMDL
