MODEL 1
REMARK VINA RESULT:      -8.0      0.000      0.000
REMARK  8 active torsions:
REMARK  status: ('A' for Active; 'I' for Inactive)
REMARK    1  A    between atoms: C_7  and  N_8 
REMARK    2  A    between atoms: N_8  and  C_9 
REMARK    3  A    between atoms: C_9  and  C_10 
REMARK    4  A    between atoms: C_10  and  C_11 
REMARK    5  A    between atoms: C_11  and  O_12 
REMARK    6  A    between atoms: C_14  and  N_15 
REMARK    7  A    between atoms: N_15  and  C_16 
REMARK    8  A    between atoms: C_16  and  C_17 
ROOT
HETATM    1  C   UNL     1      40.692 -16.781   3.144  1.00  0.00     0.001 A 
HETATM    2  C   UNL     1      41.525 -17.482   4.019  1.00  0.00     0.017 A 
HETATM    3  C   UNL     1      42.280 -16.806   5.005  1.00  0.00     0.032 A 
HETATM    4  C   UNL     1      42.128 -15.411   5.111  1.00  0.00     0.062 A 
HETATM    5  N   UNL     1      42.789 -14.751   6.069  1.00  0.00    -0.189 N 
HETATM    6  H   UNL     1      42.712 -13.747   6.151  1.00  0.00     0.184 HD
HETATM    7  C   UNL     1      43.596 -15.376   6.925  1.00  0.00     0.702 A 
HETATM    8  N   UNL     1      43.806 -16.703   6.870  1.00  0.00    -0.052 NA
HETATM    9  C   UNL     1      43.164 -17.406   5.921  1.00  0.00     0.135 A 
HETATM   10  C   UNL     1      41.291 -14.712   4.227  1.00  0.00     0.031 A 
HETATM   11  C   UNL     1      40.582 -15.398   3.242  1.00  0.00     0.002 A 
ENDROOT
BRANCH   9  12
HETATM   12  N   UNL     1      43.445 -18.774   5.929  1.00  0.00    -0.272 NA
HETATM   13  H   UNL     1      43.456 -19.040   6.916  1.00  0.00     0.129 HD
BRANCH  12  14
HETATM   14  C   UNL     1      44.752 -19.113   5.355  1.00  0.00     0.132 C 
BRANCH  14  15
HETATM   15  C   UNL     1      44.546 -20.007   4.154  1.00  0.00    -0.045 A 
HETATM   16  C   UNL     1      44.093 -19.474   2.936  1.00  0.00     0.011 A 
HETATM   17  C   UNL     1      43.881 -20.309   1.837  1.00  0.00     0.043 A 
HETATM   18  C   UNL     1      44.110 -21.674   1.958  1.00  0.00     0.116 A 
HETATM   19  F   UNL     1      43.904 -22.475   0.905  1.00  0.00    -0.206 F 
HETATM   20  C   UNL     1      44.546 -22.223   3.158  1.00  0.00     0.043 A 
HETATM   21  C   UNL     1      44.761 -21.393   4.258  1.00  0.00     0.011 A 
ENDBRANCH  14  15
ENDBRANCH  12  14
ENDBRANCH   9  12
BRANCH   7  22
HETATM   22  N   UNL     1      44.251 -14.595   7.849  1.00  0.00    -0.224 N 
HETATM   23  H   UNL     1      44.611 -15.017   8.696  1.00  0.00     0.177 HD
BRANCH  22  24
HETATM   24  C   UNL     1      44.977 -13.402   7.414  1.00  0.00     0.140 C 
BRANCH  24  25
HETATM   25  C   UNL     1      45.549 -12.622   8.594  1.00  0.00     0.046 C 
BRANCH  25  26
HETATM   26  C   UNL     1      44.484 -12.089   9.541  1.00  0.00     0.165 C 
BRANCH  26  27
HETATM   27  O   UNL     1      44.109 -13.113  10.450  1.00  0.00    -0.401 OA
HETATM   28  H   UNL     1      43.153 -13.274  10.349  1.00  0.00     0.209 HD
ENDBRANCH  26  27
ENDBRANCH  25  26
ENDBRANCH  24  25
ENDBRANCH  22  24
ENDBRANCH   7  22
TORSDOF 8
ENDMDL
MODEL 2
REMARK VINA RESULT:      -7.8      2.046      2.975
REMARK  8 active torsions:
REMARK  status: ('A' for Active; 'I' for Inactive)
REMARK    1  A    between atoms: C_7  and  N_8 
REMARK    2  A    between atoms: N_8  and  C_9 
REMARK    3  A    between atoms: C_9  and  C_10 
REMARK    4  A    between atoms: C_10  and  C_11 
REMARK    5  A    between atoms: C_11  and  O_12 
REMARK    6  A    between atoms: C_14  and  N_15 
REMARK    7  A    between atoms: N_15  and  C_16 
REMARK    8  A    between atoms: C_16  and  C_17 
ROOT
HETATM    1  C   UNL     1      39.292 -14.651   1.449  1.00  0.00     0.001 A 
HETATM    2  C   UNL     1      40.151 -15.713   1.740  1.00  0.00     0.017 A 
HETATM    3  C   UNL     1      40.829 -15.784   2.978  1.00  0.00     0.032 A 
HETATM    4  C   UNL     1      40.575 -14.777   3.928  1.00  0.00     0.062 A 
HETATM    5  N   UNL     1      41.162 -14.845   5.129  1.00  0.00    -0.189 N 
HETATM    6  H   UNL     1      41.011 -14.123   5.819  1.00  0.00     0.184 HD
HETATM    7  C   UNL     1      41.989 -15.839   5.451  1.00  0.00     0.702 A 
HETATM    8  N   UNL     1      42.296 -16.823   4.587  1.00  0.00    -0.052 NA
HETATM    9  C   UNL     1      41.730 -16.792   3.368  1.00  0.00     0.135 A 
HETATM   10  C   UNL     1      39.713 -13.710   3.629  1.00  0.00     0.031 A 
HETATM   11  C   UNL     1      39.081 -13.646   2.388  1.00  0.00     0.002 A 
ENDROOT
BRANCH   9  12
HETATM   12  N   UNL     1      42.108 -17.845   2.532  1.00  0.00    -0.272 NA
HETATM   13  H   UNL     1      41.735 -18.687   2.975  1.00  0.00     0.129 HD
BRANCH  12  14
HETATM   14  C   UNL     1      43.561 -18.008   2.405  1.00  0.00     0.132 C 
BRANCH  14  15
HETATM   15  C   UNL     1      43.926 -19.440   2.717  1.00  0.00    -0.045 A 
HETATM   16  C   UNL     1      43.657 -20.463   1.793  1.00  0.00     0.011 A 
HETATM   17  C   UNL     1      43.975 -21.789   2.097  1.00  0.00     0.043 A 
HETATM   18  C   UNL     1      44.548 -22.093   3.326  1.00  0.00     0.116 A 
HETATM   19  F   UNL     1      44.849 -23.365   3.618  1.00  0.00    -0.206 F 
HETATM   20  C   UNL     1      44.809 -21.098   4.259  1.00  0.00     0.043 A 
HETATM   21  C   UNL     1      44.496 -19.771   3.960  1.00  0.00     0.011 A 
ENDBRANCH  14  15
ENDBRANCH  12  14
ENDBRANCH   9  12
BRANCH   7  22
HETATM   22  N   UNL     1      42.563 -15.791   6.701  1.00  0.00    -0.224 N 
HETATM   23  H   UNL     1      42.057 -16.158   7.497  1.00  0.00     0.177 HD
BRANCH  22  24
HETATM   24  C   UNL     1      44.018 -15.831   6.839  1.00  0.00     0.140 C 
BRANCH  24  25
HETATM   25  C   UNL     1      44.538 -17.259   6.972  1.00  0.00     0.046 C 
BRANCH  25  26
HETATM   26  C   UNL     1      43.758 -18.097   7.974  1.00  0.00     0.165 C 
BRANCH  26  27
HETATM   27  O   UNL     1      43.558 -17.345   9.160  1.00  0.00    -0.401 OA
HETATM   28  H   UNL     1      43.199 -17.942   9.842  1.00  0.00     0.209 HD
ENDBRANCH  26  27
ENDBRANCH  25  26
ENDBRANCH  24  25
ENDBRANCH  22  24
ENDBRANCH   7  22
TORSDOF 8
ENDMDL
MODEL 3
REMARK VINA RESULT:      -7.7      4.435      6.150
REMARK  8 active torsions:
REMARK  status: ('A' for Active; 'I' for Inactive)
REMARK    1  A    between atoms: C_7  and  N_8 
REMARK    2  A    between atoms: N_8  and  C_9 
REMARK    3  A    between atoms: C_9  and  C_10 
REMARK    4  A    between atoms: C_10  and  C_11 
REMARK    5  A    between atoms: C_11  and  O_12 
REMARK    6  A    between atoms: C_14  and  N_15 
REMARK    7  A    between atoms: N_15  and  C_16 
REMARK    8  A    between atoms: C_16  and  C_17 
ROOT
HETATM    1  C   UNL     1      41.012 -16.898   5.724  1.00  0.00     0.001 A 
HETATM    2  C   UNL     1      41.419 -17.484   4.523  1.00  0.00     0.017 A 
HETATM    3  C   UNL     1      41.389 -16.757   3.311  1.00  0.00     0.032 A 
HETATM    4  C   UNL     1      40.986 -15.410   3.359  1.00  0.00     0.062 A 
HETATM    5  N   UNL     1      40.998 -14.682   2.237  1.00  0.00    -0.189 N 
HETATM    6  H   UNL     1      40.693 -13.719   2.242  1.00  0.00     0.184 HD
HETATM    7  C   UNL     1      41.377 -15.198   1.068  1.00  0.00     0.702 A 
HETATM    8  N   UNL     1      41.755 -16.483   0.942  1.00  0.00    -0.052 NA
HETATM    9  C   UNL     1      41.754 -17.252   2.045  1.00  0.00     0.135 A 
HETATM   10  C   UNL     1      40.575 -14.828   4.568  1.00  0.00     0.031 A 
HETATM   11  C   UNL     1      40.582 -15.575   5.745  1.00  0.00     0.002 A 
ENDROOT
BRANCH   9  12
HETATM   12  N   UNL     1      42.152 -18.572   1.825  1.00  0.00    -0.272 NA
HETATM   13  H   UNL     1      41.813 -19.093   2.636  1.00  0.00     0.129 HD
BRANCH  12  14
HETATM   14  C   UNL     1      43.607 -18.748   1.750  1.00  0.00     0.132 C 
BRANCH  14  15
HETATM   15  C   UNL     1      44.019 -19.856   2.690  1.00  0.00    -0.045 A 
HETATM   16  C   UNL     1      44.380 -19.570   4.017  1.00  0.00     0.011 A 
HETATM   17  C   UNL     1      44.783 -20.596   4.874  1.00  0.00     0.043 A 
HETATM   18  C   UNL     1      44.837 -21.903   4.404  1.00  0.00     0.116 A 
HETATM   19  F   UNL     1      45.227 -22.885   5.226  1.00  0.00    -0.206 F 
HETATM   20  C   UNL     1      44.497 -22.205   3.091  1.00  0.00     0.043 A 
HETATM   21  C   UNL     1      44.091 -21.183   2.231  1.00  0.00     0.011 A 
ENDBRANCH  14  15
ENDBRANCH  12  14
ENDBRANCH   9  12
BRANCH   7  22
HETATM   22  N   UNL     1      41.319 -14.368  -0.028  1.00  0.00    -0.224 N 
HETATM   23  H   UNL     1      42.163 -14.174  -0.553  1.00  0.00     0.177 HD
BRANCH  22  24
HETATM   24  C   UNL     1      40.087 -14.273  -0.809  1.00  0.00     0.140 C 
BRANCH  24  25
HETATM   25  C   UNL     1      40.363 -14.266  -2.310  1.00  0.00     0.046 C 
BRANCH  25  26
HETATM   26  C   UNL     1      41.022 -15.542  -2.810  1.00  0.00     0.165 C 
BRANCH  26  27
HETATM   27  O   UNL     1      42.151 -15.208  -3.602  1.00  0.00    -0.401 OA
HETATM   28  H   UNL     1      42.892 -14.997  -3.004  1.00  0.00     0.209 HD
ENDBRANCH  26  27
ENDBRANCH  25  26
ENDBRANCH  24  25
ENDBRANCH  22  24
ENDBRANCH   7  22
TORSDOF 8
ENDMDL
MODEL 4
REMARK VINA RESULT:      -7.7      1.504      2.361
REMARK  8 active torsions:
REMARK  status: ('A' for Active; 'I' for Inactive)
REMARK    1  A    between atoms: C_7  and  N_8 
REMARK    2  A    between atoms: N_8  and  C_9 
REMARK    3  A    between atoms: C_9  and  C_10 
REMARK    4  A    between atoms: C_10  and  C_11 
REMARK    5  A    between atoms: C_11  and  O_12 
REMARK    6  A    between atoms: C_14  and  N_15 
REMARK    7  A    between atoms: N_15  and  C_16 
REMARK    8  A    between atoms: C_16  and  C_17 
ROOT
HETATM    1  C   UNL     1      39.203 -14.655   1.714  1.00  0.00     0.001 A 
HETATM    2  C   UNL     1      40.022 -15.718   2.103  1.00  0.00     0.017 A 
HETATM    3  C   UNL     1      40.791 -15.651   3.287  1.00  0.00     0.032 A 
HETATM    4  C   UNL     1      40.668 -14.500   4.089  1.00  0.00     0.062 A 
HETATM    5  N   UNL     1      41.343 -14.430   5.242  1.00  0.00    -0.189 N 
HETATM    6  H   UNL     1      41.288 -13.606   5.823  1.00  0.00     0.184 HD
HETATM    7  C   UNL     1      42.137 -15.419   5.653  1.00  0.00     0.702 A 
HETATM    8  N   UNL     1      42.319 -16.537   4.929  1.00  0.00    -0.052 NA
HETATM    9  C   UNL     1      41.662 -16.649   3.762  1.00  0.00     0.135 A 
HETATM   10  C   UNL     1      39.846 -13.434   3.691  1.00  0.00     0.031 A 
HETATM   11  C   UNL     1      39.123 -13.511   2.502  1.00  0.00     0.002 A 
ENDROOT
BRANCH   9  12
HETATM   12  N   UNL     1      41.913 -17.836   3.071  1.00  0.00    -0.272 NA
HETATM   13  H   UNL     1      41.703 -18.583   3.736  1.00  0.00     0.129 HD
BRANCH  12  14
HETATM   14  C   UNL     1      43.310 -17.989   2.647  1.00  0.00     0.132 C 
BRANCH  14  15
HETATM   15  C   UNL     1      43.740 -19.420   2.874  1.00  0.00    -0.045 A 
HETATM   16  C   UNL     1      44.375 -19.794   4.070  1.00  0.00     0.011 A 
HETATM   17  C   UNL     1      44.791 -21.112   4.264  1.00  0.00     0.043 A 
HETATM   18  C   UNL     1      44.586 -22.052   3.261  1.00  0.00     0.116 A 
HETATM   19  F   UNL     1      44.989 -23.315   3.447  1.00  0.00    -0.206 F 
HETATM   20  C   UNL     1      43.973 -21.700   2.065  1.00  0.00     0.043 A 
HETATM   21  C   UNL     1      43.552 -20.384   1.867  1.00  0.00     0.011 A 
ENDBRANCH  14  15
ENDBRANCH  12  14
ENDBRANCH   9  12
BRANCH   7  22
HETATM   22  N   UNL     1      42.810 -15.226   6.838  1.00  0.00    -0.224 N 
HETATM   23  H   UNL     1      42.350 -15.441   7.714  1.00  0.00     0.177 HD
BRANCH  22  24
HETATM   24  C   UNL     1      44.267 -15.336   6.878  1.00  0.00     0.140 C 
BRANCH  24  25
HETATM   25  C   UNL     1      44.946 -13.990   6.638  1.00  0.00     0.046 C 
BRANCH  25  26
HETATM   26  C   UNL     1      45.230 -13.219   7.919  1.00  0.00     0.165 C 
BRANCH  26  27
HETATM   27  O   UNL     1      44.307 -13.616   8.920  1.00  0.00    -0.401 OA
HETATM   28  H   UNL     1      44.811 -13.941   9.688  1.00  0.00     0.209 HD
ENDBRANCH  26  27
ENDBRANCH  25  26
ENDBRANCH  24  25
ENDBRANCH  22  24
ENDBRANCH   7  22
TORSDOF 8
ENDMDL
MODEL 5
REMARK VINA RESULT:      -7.6      4.857      7.396
REMARK  8 active torsions:
REMARK  status: ('A' for Active; 'I' for Inactive)
REMARK    1  A    between atoms: C_7  and  N_8 
REMARK    2  A    between atoms: N_8  and  C_9 
REMARK    3  A    between atoms: C_9  and  C_10 
REMARK    4  A    between atoms: C_10  and  C_11 
REMARK    5  A    between atoms: C_11  and  O_12 
REMARK    6  A    between atoms: C_14  and  N_15 
REMARK    7  A    between atoms: N_15  and  C_16 
REMARK    8  A    between atoms: C_16  and  C_17 
ROOT
HETATM    1  C   UNL     1      43.370 -18.876   3.201  1.00  0.00     0.001 A 
HETATM    2  C   UNL     1      42.326 -17.967   3.391  1.00  0.00     0.017 A 
HETATM    3  C   UNL     1      41.972 -17.042   2.381  1.00  0.00     0.032 A 
HETATM    4  C   UNL     1      42.671 -17.099   1.160  1.00  0.00     0.062 A 
HETATM    5  N   UNL     1      42.323 -16.272   0.168  1.00  0.00    -0.189 N 
HETATM    6  H   UNL     1      42.824 -16.280  -0.710  1.00  0.00     0.184 HD
HETATM    7  C   UNL     1      41.335 -15.388   0.302  1.00  0.00     0.702 A 
HETATM    8  N   UNL     1      40.639 -15.263   1.446  1.00  0.00    -0.052 NA
HETATM    9  C   UNL     1      40.957 -16.073   2.472  1.00  0.00     0.135 A 
HETATM   10  C   UNL     1      43.721 -18.013   0.977  1.00  0.00     0.031 A 
HETATM   11  C   UNL     1      44.072 -18.892   2.000  1.00  0.00     0.002 A 
ENDROOT
BRANCH   9  12
HETATM   12  N   UNL     1      40.192 -15.872   3.622  1.00  0.00    -0.272 NA
HETATM   13  H   UNL     1      39.273 -15.575   3.285  1.00  0.00     0.129 HD
BRANCH  12  14
HETATM   14  C   UNL     1      40.712 -14.818   4.502  1.00  0.00     0.132 C 
BRANCH  14  15
HETATM   15  C   UNL     1      41.589 -15.448   5.559  1.00  0.00    -0.045 A 
HETATM   16  C   UNL     1      42.881 -14.952   5.802  1.00  0.00     0.011 A 
HETATM   17  C   UNL     1      43.696 -15.553   6.764  1.00  0.00     0.043 A 
HETATM   18  C   UNL     1      43.227 -16.654   7.471  1.00  0.00     0.116 A 
HETATM   19  F   UNL     1      44.011 -17.232   8.390  1.00  0.00    -0.206 F 
HETATM   20  C   UNL     1      41.958 -17.168   7.235  1.00  0.00     0.043 A 
HETATM   21  C   UNL     1      41.138 -16.569   6.277  1.00  0.00     0.011 A 
ENDBRANCH  14  15
ENDBRANCH  12  14
ENDBRANCH   9  12
BRANCH   7  22
HETATM   22  N   UNL     1      41.085 -14.565  -0.771  1.00  0.00    -0.224 N 
HETATM   23  H   UNL     1      40.171 -14.576  -1.207  1.00  0.00     0.177 HD
BRANCH  22  24
HETATM   24  C   UNL     1      41.802 -13.297  -0.903  1.00  0.00     0.140 C 
BRANCH  24  25
HETATM   25  C   UNL     1      42.358 -13.102  -2.311  1.00  0.00     0.046 C 
BRANCH  25  26
HETATM   26  C   UNL     1      41.566 -13.839  -3.382  1.00  0.00     0.165 C 
BRANCH  26  27
HETATM   27  O   UNL     1      42.146 -15.115  -3.600  1.00  0.00    -0.401 OA
HETATM   28  H   UNL     1      41.877 -15.425  -4.484  1.00  0.00     0.209 HD
ENDBRANCH  26  27
ENDBRANCH  25  26
ENDBRANCH  24  25
ENDBRANCH  22  24
ENDBRANCH   7  22
TORSDOF 8
ENDMDL
MODEL 6
REMARK VINA RESULT:      -7.6      5.432      8.267
REMARK  8 active torsions:
REMARK  status: ('A' for Active; 'I' for Inactive)
REMARK    1  A    between atoms: C_7  and  N_8 
REMARK    2  A    between atoms: N_8  and  C_9 
REMARK    3  A    between atoms: C_9  and  C_10 
REMARK    4  A    between atoms: C_10  and  C_11 
REMARK    5  A    between atoms: C_11  and  O_12 
REMARK    6  A    between atoms: C_14  and  N_15 
REMARK    7  A    between atoms: N_15  and  C_16 
REMARK    8  A    between atoms: C_16  and  C_17 
ROOT
HETATM    1  C   UNL     1      43.398 -18.440   3.243  1.00  0.00     0.001 A 
HETATM    2  C   UNL     1      42.270 -17.622   3.342  1.00  0.00     0.017 A 
HETATM    3  C   UNL     1      41.793 -16.900   2.224  1.00  0.00     0.032 A 
HETATM    4  C   UNL     1      42.459 -17.070   0.996  1.00  0.00     0.062 A 
HETATM    5  N   UNL     1      41.999 -16.440  -0.092  1.00  0.00    -0.189 N 
HETATM    6  H   UNL     1      42.473 -16.530  -0.979  1.00  0.00     0.184 HD
HETATM    7  C   UNL     1      40.928 -15.649  -0.046  1.00  0.00     0.702 A 
HETATM    8  N   UNL     1      40.254 -15.424   1.096  1.00  0.00    -0.052 NA
HETATM    9  C   UNL     1      40.684 -16.034   2.215  1.00  0.00     0.135 A 
HETATM   10  C   UNL     1      43.594 -17.891   0.903  1.00  0.00     0.031 A 
HETATM   11  C   UNL     1      44.064 -18.567   2.028  1.00  0.00     0.002 A 
ENDROOT
BRANCH   9  12
HETATM   12  N   UNL     1      39.934 -15.739   3.355  1.00  0.00    -0.272 NA
HETATM   13  H   UNL     1      38.962 -15.718   3.039  1.00  0.00     0.129 HD
BRANCH  12  14
HETATM   14  C   UNL     1      40.246 -14.433   3.947  1.00  0.00     0.132 C 
BRANCH  14  15
HETATM   15  C   UNL     1      41.517 -14.549   4.755  1.00  0.00    -0.045 A 
HETATM   16  C   UNL     1      42.660 -13.816   4.397  1.00  0.00     0.011 A 
HETATM   17  C   UNL     1      43.840 -13.946   5.134  1.00  0.00     0.043 A 
HETATM   18  C   UNL     1      43.880 -14.814   6.218  1.00  0.00     0.116 A 
HETATM   19  F   UNL     1      45.012 -14.940   6.921  1.00  0.00    -0.206 F 
HETATM   20  C   UNL     1      42.764 -15.558   6.580  1.00  0.00     0.043 A 
HETATM   21  C   UNL     1      41.582 -15.430   5.849  1.00  0.00     0.011 A 
ENDBRANCH  14  15
ENDBRANCH  12  14
ENDBRANCH   9  12
BRANCH   7  22
HETATM   22  N   UNL     1      40.562 -15.026  -1.216  1.00  0.00    -0.224 N 
HETATM   23  H   UNL     1      40.428 -14.022  -1.227  1.00  0.00     0.177 HD
BRANCH  22  24
HETATM   24  C   UNL     1      40.959 -15.596  -2.504  1.00  0.00     0.140 C 
BRANCH  24  25
HETATM   25  C   UNL     1      39.983 -15.223  -3.615  1.00  0.00     0.046 C 
BRANCH  25  26
HETATM   26  C   UNL     1      38.962 -16.310  -3.915  1.00  0.00     0.165 C 
BRANCH  26  27
HETATM   27  O   UNL     1      38.928 -16.550  -5.313  1.00  0.00    -0.401 OA
HETATM   28  H   UNL     1      39.652 -16.046  -5.727  1.00  0.00     0.209 HD
ENDBRANCH  26  27
ENDBRANCH  25  26
ENDBRANCH  24  25
ENDBRANCH  22  24
ENDBRANCH   7  22
TORSDOF 8
ENDMDL
MODEL 7
REMARK VINA RESULT:      -7.5      2.859      3.449
REMARK  8 active torsions:
REMARK  status: ('A' for Active; 'I' for Inactive)
REMARK    1  A    between atoms: C_7  and  N_8 
REMARK    2  A    between atoms: N_8  and  C_9 
REMARK    3  A    between atoms: C_9  and  C_10 
REMARK    4  A    between atoms: C_10  and  C_11 
REMARK    5  A    between atoms: C_11  and  O_12 
REMARK    6  A    between atoms: C_14  and  N_15 
REMARK    7  A    between atoms: N_15  and  C_16 
REMARK    8  A    between atoms: C_16  and  C_17 
ROOT
HETATM    1  C   UNL     1      40.669 -15.720   0.606  1.00  0.00     0.001 A 
HETATM    2  C   UNL     1      40.970 -16.387   1.796  1.00  0.00     0.017 A 
HETATM    3  C   UNL     1      40.772 -15.765   3.050  1.00  0.00     0.032 A 
HETATM    4  C   UNL     1      40.216 -14.472   3.065  1.00  0.00     0.062 A 
HETATM    5  N   UNL     1      39.969 -13.879   4.238  1.00  0.00    -0.189 N 
HETATM    6  H   UNL     1      39.590 -12.943   4.274  1.00  0.00     0.184 HD
HETATM    7  C   UNL     1      40.240 -14.475   5.399  1.00  0.00     0.702 A 
HETATM    8  N   UNL     1      40.792 -15.700   5.461  1.00  0.00    -0.052 NA
HETATM    9  C   UNL     1      41.060 -16.332   4.305  1.00  0.00     0.135 A 
HETATM   10  C   UNL     1      39.918 -13.806   1.866  1.00  0.00     0.031 A 
HETATM   11  C   UNL     1      40.153 -14.429   0.641  1.00  0.00     0.002 A 
ENDROOT
BRANCH   9  12
HETATM   12  N   UNL     1      41.638 -17.593   4.461  1.00  0.00    -0.272 NA
HETATM   13  H   UNL     1      41.402 -17.882   5.412  1.00  0.00     0.129 HD
BRANCH  12  14
HETATM   14  C   UNL     1      43.101 -17.593   4.338  1.00  0.00     0.132 C 
BRANCH  14  15
HETATM   15  C   UNL     1      43.545 -18.906   3.737  1.00  0.00    -0.045 A 
HETATM   16  C   UNL     1      44.423 -19.751   4.435  1.00  0.00     0.011 A 
HETATM   17  C   UNL     1      44.849 -20.952   3.864  1.00  0.00     0.043 A 
HETATM   18  C   UNL     1      44.410 -21.302   2.593  1.00  0.00     0.116 A 
HETATM   19  F   UNL     1      44.821 -22.451   2.045  1.00  0.00    -0.206 F 
HETATM   20  C   UNL     1      43.552 -20.473   1.879  1.00  0.00     0.043 A 
HETATM   21  C   UNL     1      43.121 -19.273   2.447  1.00  0.00     0.011 A 
ENDBRANCH  14  15
ENDBRANCH  12  14
ENDBRANCH   9  12
BRANCH   7  22
HETATM   22  N   UNL     1      39.977 -13.759   6.544  1.00  0.00    -0.224 N 
HETATM   23  H   UNL     1      40.629 -13.796   7.317  1.00  0.00     0.177 HD
BRANCH  22  24
HETATM   24  C   UNL     1      39.194 -12.526   6.472  1.00  0.00     0.140 C 
BRANCH  24  25
HETATM   25  C   UNL     1      39.777 -11.429   7.358  1.00  0.00     0.046 C 
BRANCH  25  26
HETATM   26  C   UNL     1      39.393 -11.565   8.823  1.00  0.00     0.165 C 
BRANCH  26  27
HETATM   27  O   UNL     1      38.662 -12.768   9.008  1.00  0.00    -0.401 OA
HETATM   28  H   UNL     1      37.721 -12.582   8.835  1.00  0.00     0.209 HD
ENDBRANCH  26  27
ENDBRANCH  25  26
ENDBRANCH  24  25
ENDBRANCH  22  24
ENDBRANCH   7  22
TORSDOF 8
ENDMDL
MODEL 8
REMARK VINA RESULT:      -7.1      3.692      6.573
REMARK  8 active torsions:
REMARK  status: ('A' for Active; 'I' for Inactive)
REMARK    1  A    between atoms: C_7  and  N_8 
REMARK    2  A    between atoms: N_8  and  C_9 
REMARK    3  A    between atoms: C_9  and  C_10 
REMARK    4  A    between atoms: C_10  and  C_11 
REMARK    5  A    between atoms: C_11  and  O_12 
REMARK    6  A    between atoms: C_14  and  N_15 
REMARK    7  A    between atoms: N_15  and  C_16 
REMARK    8  A    between atoms: C_16  and  C_17 
ROOT
HETATM    1  C   UNL     1      44.211 -19.645   3.916  1.00  0.00     0.001 A 
HETATM    2  C   UNL     1      43.108 -18.948   4.417  1.00  0.00     0.017 A 
HETATM    3  C   UNL     1      42.329 -18.118   3.579  1.00  0.00     0.032 A 
HETATM    4  C   UNL     1      42.666 -18.055   2.214  1.00  0.00     0.062 A 
HETATM    5  N   UNL     1      41.915 -17.321   1.386  1.00  0.00    -0.189 N 
HETATM    6  H   UNL     1      42.150 -17.243   0.407  1.00  0.00     0.184 HD
HETATM    7  C   UNL     1      40.855 -16.638   1.818  1.00  0.00     0.702 A 
HETATM    8  N   UNL     1      40.486 -16.634   3.111  1.00  0.00    -0.052 NA
HETATM    9  C   UNL     1      41.215 -17.357   3.979  1.00  0.00     0.135 A 
HETATM   10  C   UNL     1      43.777 -18.756   1.717  1.00  0.00     0.031 A 
HETATM   11  C   UNL     1      44.550 -19.542   2.571  1.00  0.00     0.002 A 
ENDROOT
BRANCH   9  12
HETATM   12  N   UNL     1      40.768 -17.291   5.300  1.00  0.00    -0.272 NA
HETATM   13  H   UNL     1      39.831 -17.699   5.287  1.00  0.00     0.129 HD
BRANCH  12  14
HETATM   14  C   UNL     1      40.659 -15.923   5.820  1.00  0.00     0.132 C 
BRANCH  14  15
HETATM   15  C   UNL     1      42.046 -15.365   6.035  1.00  0.00    -0.045 A 
HETATM   16  C   UNL     1      42.962 -16.029   6.868  1.00  0.00     0.011 A 
HETATM   17  C   UNL     1      44.235 -15.495   7.082  1.00  0.00     0.043 A 
HETATM   18  C   UNL     1      44.587 -14.296   6.476  1.00  0.00     0.116 A 
HETATM   19  F   UNL     1      45.806 -13.783   6.684  1.00  0.00    -0.206 F 
HETATM   20  C   UNL     1      43.691 -13.616   5.660  1.00  0.00     0.043 A 
HETATM   21  C   UNL     1      42.419 -14.146   5.441  1.00  0.00     0.011 A 
ENDBRANCH  14  15
ENDBRANCH  12  14
ENDBRANCH   9  12
BRANCH   7  22
HETATM   22  N   UNL     1      40.174 -15.888   0.887  1.00  0.00    -0.224 N 
HETATM   23  H   UNL     1      39.166 -15.961   0.827  1.00  0.00     0.177 HD
BRANCH  22  24
HETATM   24  C   UNL     1      40.715 -14.603   0.445  1.00  0.00     0.140 C 
BRANCH  24  25
HETATM   25  C   UNL     1      40.635 -13.545   1.541  1.00  0.00     0.046 C 
BRANCH  25  26
HETATM   26  C   UNL     1      41.631 -12.409   1.361  1.00  0.00     0.165 C 
BRANCH  26  27
HETATM   27  O   UNL     1      42.808 -12.696   2.099  1.00  0.00    -0.401 OA
HETATM   28  H   UNL     1      43.577 -12.537   1.521  1.00  0.00     0.209 HD
ENDBRANCH  26  27
ENDBRANCH  25  26
ENDBRANCH  24  25
ENDBRANCH  22  24
ENDBRANCH   7  22
TORSDOF 8
ENDMDL
MODEL 9
REMARK VINA RESULT:      -7.1      2.079      3.140
REMARK  8 active torsions:
REMARK  status: ('A' for Active; 'I' for Inactive)
REMARK    1  A    between atoms: C_7  and  N_8 
REMARK    2  A    between atoms: N_8  and  C_9 
REMARK    3  A    between atoms: C_9  and  C_10 
REMARK    4  A    between atoms: C_10  and  C_11 
REMARK    5  A    between atoms: C_11  and  O_12 
REMARK    6  A    between atoms: C_14  and  N_15 
REMARK    7  A    between atoms: N_15  and  C_16 
REMARK    8  A    between atoms: C_16  and  C_17 
ROOT
HETATM    1  C   UNL     1      40.052 -14.631   0.549  1.00  0.00     0.001 A 
HETATM    2  C   UNL     1      40.726 -15.756   1.030  1.00  0.00     0.017 A 
HETATM    3  C   UNL     1      40.998 -15.908   2.409  1.00  0.00     0.032 A 
HETATM    4  C   UNL     1      40.524 -14.916   3.288  1.00  0.00     0.062 A 
HETATM    5  N   UNL     1      40.720 -15.059   4.604  1.00  0.00    -0.189 N 
HETATM    6  H   UNL     1      40.408 -14.350   5.252  1.00  0.00     0.184 HD
HETATM    7  C   UNL     1      41.358 -16.114   5.109  1.00  0.00     0.702 A 
HETATM    8  N   UNL     1      41.857 -17.089   4.328  1.00  0.00    -0.052 NA
HETATM    9  C   UNL     1      41.685 -16.985   2.999  1.00  0.00     0.135 A 
HETATM   10  C   UNL     1      39.850 -13.787   2.798  1.00  0.00     0.031 A 
HETATM   11  C   UNL     1      39.623 -13.644   1.430  1.00  0.00     0.002 A 
ENDROOT
BRANCH   9  12
HETATM   12  N   UNL     1      42.239 -18.034   2.263  1.00  0.00    -0.272 NA
HETATM   13  H   UNL     1      41.810 -18.882   2.639  1.00  0.00     0.129 HD
BRANCH  12  14
HETATM   14  C   UNL     1      43.694 -18.159   2.414  1.00  0.00     0.132 C 
BRANCH  14  15
HETATM   15  C   UNL     1      44.020 -19.545   2.920  1.00  0.00    -0.045 A 
HETATM   16  C   UNL     1      44.485 -19.735   4.232  1.00  0.00     0.011 A 
HETATM   17  C   UNL     1      44.807 -21.015   4.686  1.00  0.00     0.043 A 
HETATM   18  C   UNL     1      44.677 -22.101   3.830  1.00  0.00     0.116 A 
HETATM   19  F   UNL     1      44.990 -23.328   4.265  1.00  0.00    -0.206 F 
HETATM   20  C   UNL     1      44.231 -21.933   2.524  1.00  0.00     0.043 A 
HETATM   21  C   UNL     1      43.905 -20.656   2.066  1.00  0.00     0.011 A 
ENDBRANCH  14  15
ENDBRANCH  12  14
ENDBRANCH   9  12
BRANCH   7  22
HETATM   22  N   UNL     1      41.533 -16.143   6.473  1.00  0.00    -0.224 N 
HETATM   23  H   UNL     1      40.812 -15.769   7.077  1.00  0.00     0.177 HD
BRANCH  22  24
HETATM   24  C   UNL     1      42.351 -17.190   7.084  1.00  0.00     0.140 C 
BRANCH  24  25
HETATM   25  C   UNL     1      43.744 -16.684   7.449  1.00  0.00     0.046 C 
BRANCH  25  26
HETATM   26  C   UNL     1      44.158 -15.440   6.677  1.00  0.00     0.165 C 
BRANCH  26  27
HETATM   27  O   UNL     1      43.705 -14.286   7.369  1.00  0.00    -0.401 OA
HETATM   28  H   UNL     1      42.807 -14.465   7.704  1.00  0.00     0.209 HD
ENDBRANCH  26  27
ENDBRANCH  25  26
ENDBRANCH  24  25
ENDBRANCH  22  24
ENDBRANCH   7  22
TORSDOF 8
ENDMDL
MODEL 10
REMARK VINA RESULT:      -7.0      3.995      6.029
REMARK  8 active torsions:
REMARK  status: ('A' for Active; 'I' for Inactive)
REMARK    1  A    between atoms: C_7  and  N_8 
REMARK    2  A    between atoms: N_8  and  C_9 
REMARK    3  A    between atoms: C_9  and  C_10 
REMARK    4  A    between atoms: C_10  and  C_11 
REMARK    5  A    between atoms: C_11  and  O_12 
REMARK    6  A    between atoms: C_14  and  N_15 
REMARK    7  A    between atoms: N_15  and  C_16 
REMARK    8  A    between atoms: C_16  and  C_17 
ROOT
HETATM    1  C   UNL     1      44.351 -20.377   2.446  1.00  0.00     0.001 A 
HETATM    2  C   UNL     1      43.872 -19.219   1.828  1.00  0.00     0.017 A 
HETATM    3  C   UNL     1      43.549 -18.069   2.586  1.00  0.00     0.032 A 
HETATM    4  C   UNL     1      43.772 -18.110   3.975  1.00  0.00     0.062 A 
HETATM    5  N   UNL     1      43.526 -17.020   4.710  1.00  0.00    -0.189 N 
HETATM    6  H   UNL     1      43.658 -17.033   5.712  1.00  0.00     0.184 HD
HETATM    7  C   UNL     1      43.068 -15.894   4.166  1.00  0.00     0.702 A 
HETATM    8  N   UNL     1      42.811 -15.788   2.850  1.00  0.00    -0.052 NA
HETATM    9  C   UNL     1      43.042 -16.861   2.073  1.00  0.00     0.135 A 
HETATM   10  C   UNL     1      44.251 -19.278   4.590  1.00  0.00     0.031 A 
HETATM   11  C   UNL     1      44.531 -20.409   3.825  1.00  0.00     0.002 A 
ENDROOT
BRANCH   9  12
HETATM   12  N   UNL     1      42.742 -16.669   0.723  1.00  0.00    -0.272 NA
HETATM   13  H   UNL     1      43.404 -15.961   0.399  1.00  0.00     0.129 HD
BRANCH  12  14
HETATM   14  C   UNL     1      41.385 -16.162   0.485  1.00  0.00     0.132 C 
BRANCH  14  15
HETATM   15  C   UNL     1      41.401 -15.264  -0.730  1.00  0.00    -0.045 A 
HETATM   16  C   UNL     1      41.762 -13.912  -0.615  1.00  0.00     0.011 A 
HETATM   17  C   UNL     1      41.751 -13.081  -1.737  1.00  0.00     0.043 A 
HETATM   18  C   UNL     1      41.368 -13.596  -2.969  1.00  0.00     0.116 A 
HETATM   19  F   UNL     1      41.355 -12.799  -4.044  1.00  0.00    -0.206 F 
HETATM   20  C   UNL     1      40.995 -14.928  -3.102  1.00  0.00     0.043 A 
HETATM   21  C   UNL     1      41.006 -15.763  -1.984  1.00  0.00     0.011 A 
ENDBRANCH  14  15
ENDBRANCH  12  14
ENDBRANCH   9  12
BRANCH   7  22
HETATM   22  N   UNL     1      42.817 -14.845   5.021  1.00  0.00    -0.224 N 
HETATM   23  H   UNL     1      42.014 -14.883   5.636  1.00  0.00     0.177 HD
BRANCH  22  24
HETATM   24  C   UNL     1      43.923 -14.028   5.520  1.00  0.00     0.140 C 
BRANCH  24  25
HETATM   25  C   UNL     1      44.419 -14.512   6.879  1.00  0.00     0.046 C 
BRANCH  25  26
HETATM   26  C   UNL     1      44.981 -13.399   7.750  1.00  0.00     0.165 C 
BRANCH  26  27
HETATM   27  O   UNL     1      44.398 -13.474   9.042  1.00  0.00    -0.401 OA
HETATM   28  H   UNL     1      45.117 -13.512   9.699  1.00  0.00     0.209 HD
ENDBRANCH  26  27
ENDBRANCH  25  26
ENDBRANCH  24  25
ENDBRANCH  22  24
ENDBRANCH   7  22
TORSDOF 8
ENDMDL
