MODEL 1
REMARK VINA RESULT:      -8.3      0.000      0.000
REMARK  7 active torsions:
REMARK  status: ('A' for Active; 'I' for Inactive)
REMARK    1  A    between atoms: C_8  and  N_9 
REMARK       I    between atoms: N_9  and  C_10 
REMARK    2  A    between atoms: C_10  and  C_11 
REMARK    3  A    between atoms: C_11  and  N_12 
REMARK    4  A    between atoms: N_12  and  C_14 
REMARK    5  A    between atoms: C_14  and  C_15 
REMARK       I    between atoms: C_15  and  N_16 
REMARK    6  A    between atoms: N_16  and  C_17 
REMARK    7  A    between atoms: C_19  and  C_20 
ROOT
HETATM    1  N   UNL     1      41.577 -13.897   4.056  1.00  0.00    -0.058 N 
HETATM    2  H   UNL     1      40.961 -14.496   3.480  1.00  0.00     0.280 HD
HETATM    3  C   UNL     1      40.771 -12.704   4.485  1.00  0.00     0.270 C 
ENDROOT
BRANCH   1   4
HETATM    4  C   UNL     1      42.746 -13.505   3.137  1.00  0.00     0.337 C 
BRANCH   4   5
HETATM    5  C   UNL     1      42.254 -13.217   1.720  1.00  0.00     0.248 C 
HETATM    6  N   UNL     1      41.830 -14.189   0.878  1.00  0.00    -0.322 N 
HETATM    7  H   UNL     1      41.826 -13.894  -0.096  1.00  0.00     0.169 HD
HETATM    8  O   UNL     1      42.320 -12.049   1.315  1.00  0.00    -0.271 OA
BRANCH   6   9
HETATM    9  C   UNL     1      41.447 -15.501   1.090  1.00  0.00     0.085 C 
HETATM   10  C   UNL     1      40.167 -15.806   1.517  1.00  0.00     0.052 C 
HETATM   11  C   UNL     1      38.982 -14.966   1.822  1.00  0.00     0.072 C 
HETATM   12  N   UNL     1      40.112 -17.168   1.613  1.00  0.00    -0.280 N 
HETATM   13  H   UNL     1      39.324 -17.752   1.882  1.00  0.00     0.189 HD
HETATM   14  N   UNL     1      41.275 -17.764   1.333  1.00  0.00    -0.177 NA
HETATM   15  C   UNL     1      42.121 -16.757   1.089  1.00  0.00     0.079 C 
HETATM   16  C   UNL     1      43.560 -17.112   0.998  1.00  0.00     0.075 C 
ENDBRANCH   6   9
ENDBRANCH   4   5
ENDBRANCH   1   4
BRANCH   1  17
HETATM   17  C   UNL     1      42.034 -14.786   5.223  1.00  0.00     0.337 C 
BRANCH  17  18
HETATM   18  C   UNL     1      42.135 -16.283   4.895  1.00  0.00     0.248 C 
HETATM   19  N   UNL     1      43.437 -16.757   4.863  1.00  0.00    -0.326 N 
HETATM   20  H   UNL     1      44.196 -16.087   4.821  1.00  0.00     0.169 HD
HETATM   21  O   UNL     1      41.120 -16.945   4.701  1.00  0.00    -0.271 OA
BRANCH  19  22
HETATM   22  C   UNL     1      43.844 -18.110   4.804  1.00  0.00     0.035 A 
HETATM   23  C   UNL     1      43.878 -18.866   3.629  1.00  0.00     0.047 A 
HETATM   24  C   UNL     1      44.236 -20.233   3.644  1.00  0.00     0.071 A 
HETATM   25  C   UNL     1      44.572 -20.827   4.863  1.00  0.00     0.049 A 
HETATM   26 CL   UNL     1      45.013 -22.489   4.987  1.00  0.00    -0.083 Cl
HETATM   27  C   UNL     1      44.547 -20.077   6.040  1.00  0.00     0.027 A 
HETATM   28  C   UNL     1      44.180 -18.730   6.012  1.00  0.00     0.031 A 
BRANCH  24  29
HETATM   29  C   UNL     1      44.227 -21.025   2.361  1.00  0.00     0.419 C 
HETATM   30  F   UNL     1      43.555 -22.207   2.473  1.00  0.00    -0.166 F 
HETATM   31  F   UNL     1      43.631 -20.368   1.331  1.00  0.00    -0.166 F 
HETATM   32  F   UNL     1      45.476 -21.362   1.942  1.00  0.00    -0.166 F 
ENDBRANCH  24  29
ENDBRANCH  19  22
ENDBRANCH  17  18
ENDBRANCH   1  17
TORSDOF 7
ENDMDL
MODEL 2
REMARK VINA RESULT:      -8.1      2.518      4.546
REMARK  7 active torsions:
REMARK  status: ('A' for Active; 'I' for Inactive)
REMARK    1  A    between atoms: C_8  and  N_9 
REMARK       I    between atoms: N_9  and  C_10 
REMARK    2  A    between atoms: C_10  and  C_11 
REMARK    3  A    between atoms: C_11  and  N_12 
REMARK    4  A    between atoms: N_12  and  C_14 
REMARK    5  A    between atoms: C_14  and  C_15 
REMARK       I    between atoms: C_15  and  N_16 
REMARK    6  A    between atoms: N_16  and  C_17 
REMARK    7  A    between atoms: C_19  and  C_20 
ROOT
HETATM    1  N   UNL     1      41.901 -13.715   1.041  1.00  0.00    -0.058 N 
HETATM    2  H   UNL     1      42.832 -14.157   1.135  1.00  0.00     0.280 HD
HETATM    3  C   UNL     1      42.001 -12.683  -0.047  1.00  0.00     0.270 C 
ENDROOT
BRANCH   1   4
HETATM    4  C   UNL     1      41.607 -13.083   2.411  1.00  0.00     0.337 C 
BRANCH   4   5
HETATM    5  C   UNL     1      42.683 -13.455   3.428  1.00  0.00     0.248 C 
HETATM    6  N   UNL     1      42.513 -13.312   4.764  1.00  0.00    -0.322 N 
HETATM    7  H   UNL     1      43.392 -13.311   5.277  1.00  0.00     0.169 HD
HETATM    8  O   UNL     1      43.779 -13.837   2.993  1.00  0.00    -0.271 OA
BRANCH   6   9
HETATM    9  C   UNL     1      41.385 -13.129   5.543  1.00  0.00     0.085 C 
HETATM   10  C   UNL     1      40.602 -14.205   5.921  1.00  0.00     0.052 C 
HETATM   11  C   UNL     1      40.708 -15.663   5.669  1.00  0.00     0.072 C 
HETATM   12  N   UNL     1      39.592 -13.691   6.684  1.00  0.00    -0.280 N 
HETATM   13  H   UNL     1      38.834 -14.186   7.149  1.00  0.00     0.189 HD
HETATM   14  N   UNL     1      39.631 -12.359   6.784  1.00  0.00    -0.177 NA
HETATM   15  C   UNL     1      40.673 -11.993   6.027  1.00  0.00     0.079 C 
HETATM   16  C   UNL     1      40.804 -10.542   5.743  1.00  0.00     0.075 C 
ENDBRANCH   6   9
ENDBRANCH   4   5
ENDBRANCH   1   4
BRANCH   1  17
HETATM   17  C   UNL     1      40.934 -14.864   0.716  1.00  0.00     0.337 C 
BRANCH  17  18
HETATM   18  C   UNL     1      41.183 -16.161   1.501  1.00  0.00     0.248 C 
HETATM   19  N   UNL     1      42.522 -16.503   1.596  1.00  0.00    -0.326 N 
HETATM   20  H   UNL     1      43.186 -16.044   0.982  1.00  0.00     0.169 HD
HETATM   21  O   UNL     1      40.242 -16.784   1.983  1.00  0.00    -0.271 OA
BRANCH  19  22
HETATM   22  C   UNL     1      43.083 -17.505   2.422  1.00  0.00     0.035 A 
HETATM   23  C   UNL     1      43.452 -17.304   3.754  1.00  0.00     0.047 A 
HETATM   24  C   UNL     1      44.065 -18.329   4.510  1.00  0.00     0.071 A 
HETATM   25  C   UNL     1      44.292 -19.568   3.905  1.00  0.00     0.049 A 
HETATM   26 CL   UNL     1      45.042 -20.878   4.739  1.00  0.00    -0.083 Cl
HETATM   27  C   UNL     1      43.919 -19.779   2.576  1.00  0.00     0.027 A 
HETATM   28  C   UNL     1      43.324 -18.753   1.838  1.00  0.00     0.031 A 
BRANCH  24  29
HETATM   29  C   UNL     1      44.482 -18.064   5.934  1.00  0.00     0.419 C 
HETATM   30  F   UNL     1      44.200 -16.791   6.341  1.00  0.00    -0.166 F 
HETATM   31  F   UNL     1      43.862 -18.874   6.833  1.00  0.00    -0.166 F 
HETATM   32  F   UNL     1      45.820 -18.212   6.128  1.00  0.00    -0.166 F 
ENDBRANCH  24  29
ENDBRANCH  19  22
ENDBRANCH  17  18
ENDBRANCH   1  17
TORSDOF 7
ENDMDL
MODEL 3
REMARK VINA RESULT:      -8.0      1.660      3.980
REMARK  7 active torsions:
REMARK  status: ('A' for Active; 'I' for Inactive)
REMARK    1  A    between atoms: C_8  and  N_9 
REMARK       I    between atoms: N_9  and  C_10 
REMARK    2  A    between atoms: C_10  and  C_11 
REMARK    3  A    between atoms: C_11  and  N_12 
REMARK    4  A    between atoms: N_12  and  C_14 
REMARK    5  A    between atoms: C_14  and  C_15 
REMARK       I    between atoms: C_15  and  N_16 
REMARK    6  A    between atoms: N_16  and  C_17 
REMARK    7  A    between atoms: C_19  and  C_20 
ROOT
HETATM    1  N   UNL     1      41.800 -14.114   0.793  1.00  0.00    -0.058 N 
HETATM    2  H   UNL     1      42.781 -14.431   0.875  1.00  0.00     0.280 HD
HETATM    3  C   UNL     1      41.764 -13.032  -0.249  1.00  0.00     0.270 C 
ENDROOT
BRANCH   1   4
HETATM    4  C   UNL     1      41.420 -13.587   2.186  1.00  0.00     0.337 C 
BRANCH   4   5
HETATM    5  C   UNL     1      42.556 -13.805   3.182  1.00  0.00     0.248 C 
HETATM    6  N   UNL     1      42.438 -13.532   4.504  1.00  0.00    -0.322 N 
HETATM    7  H   UNL     1      43.338 -13.439   4.970  1.00  0.00     0.169 HD
HETATM    8  O   UNL     1      43.649 -14.181   2.735  1.00  0.00    -0.271 OA
BRANCH   6   9
HETATM    9  C   UNL     1      41.337 -13.318   5.313  1.00  0.00     0.085 C 
HETATM   10  C   UNL     1      40.648 -14.382   5.867  1.00  0.00     0.052 C 
HETATM   11  C   UNL     1      40.840 -15.852   5.796  1.00  0.00     0.072 C 
HETATM   12  N   UNL     1      39.641 -13.836   6.613  1.00  0.00    -0.280 N 
HETATM   13  H   UNL     1      38.941 -14.312   7.177  1.00  0.00     0.189 HD
HETATM   14  N   UNL     1      39.594 -12.503   6.541  1.00  0.00    -0.177 NA
HETATM   15  C   UNL     1      40.573 -12.176   5.688  1.00  0.00     0.079 C 
HETATM   16  C   UNL     1      40.592 -10.768   5.215  1.00  0.00     0.075 C 
ENDBRANCH   6   9
ENDBRANCH   4   5
ENDBRANCH   1   4
BRANCH   1  17
HETATM   17  C   UNL     1      40.996 -15.366   0.411  1.00  0.00     0.337 C 
BRANCH  17  18
HETATM   18  C   UNL     1      41.276 -16.603   1.277  1.00  0.00     0.248 C 
HETATM   19  N   UNL     1      42.592 -17.033   1.225  1.00  0.00    -0.326 N 
HETATM   20  H   UNL     1      43.188 -16.679   0.485  1.00  0.00     0.169 HD
HETATM   21  O   UNL     1      40.377 -17.110   1.942  1.00  0.00    -0.271 OA
BRANCH  19  22
HETATM   22  C   UNL     1      43.202 -17.996   2.061  1.00  0.00     0.035 A 
HETATM   23  C   UNL     1      43.387 -19.334   1.707  1.00  0.00     0.047 A 
HETATM   24  C   UNL     1      43.950 -20.264   2.611  1.00  0.00     0.071 A 
HETATM   25  C   UNL     1      44.336 -19.820   3.879  1.00  0.00     0.049 A 
HETATM   26 CL   UNL     1      45.022 -20.877   5.055  1.00  0.00    -0.083 Cl
HETATM   27  C   UNL     1      44.162 -18.482   4.237  1.00  0.00     0.027 A 
HETATM   28  C   UNL     1      43.593 -17.577   3.337  1.00  0.00     0.031 A 
BRANCH  24  29
HETATM   29  C   UNL     1      44.100 -21.708   2.206  1.00  0.00     0.419 C 
HETATM   30  F   UNL     1      45.317 -21.978   1.649  1.00  0.00    -0.166 F 
HETATM   31  F   UNL     1      43.982 -22.572   3.249  1.00  0.00    -0.166 F 
HETATM   32  F   UNL     1      43.188 -22.091   1.273  1.00  0.00    -0.166 F 
ENDBRANCH  24  29
ENDBRANCH  19  22
ENDBRANCH  17  18
ENDBRANCH   1  17
TORSDOF 7
ENDMDL
MODEL 4
REMARK VINA RESULT:      -7.8      1.367      1.991
REMARK  7 active torsions:
REMARK  status: ('A' for Active; 'I' for Inactive)
REMARK    1  A    between atoms: C_8  and  N_9 
REMARK       I    between atoms: N_9  and  C_10 
REMARK    2  A    between atoms: C_10  and  C_11 
REMARK    3  A    between atoms: C_11  and  N_12 
REMARK    4  A    between atoms: N_12  and  C_14 
REMARK    5  A    between atoms: C_14  and  C_15 
REMARK       I    between atoms: C_15  and  N_16 
REMARK    6  A    between atoms: N_16  and  C_17 
REMARK    7  A    between atoms: C_19  and  C_20 
ROOT
HETATM    1  N   UNL     1      41.021 -13.810   4.726  1.00  0.00    -0.058 N 
HETATM    2  H   UNL     1      40.655 -14.507   4.055  1.00  0.00     0.280 HD
HETATM    3  C   UNL     1      39.840 -13.102   5.328  1.00  0.00     0.270 C 
ENDROOT
BRANCH   1   4
HETATM    4  C   UNL     1      41.899 -12.861   3.894  1.00  0.00     0.337 C 
BRANCH   4   5
HETATM    5  C   UNL     1      42.979 -13.635   3.141  1.00  0.00     0.248 C 
HETATM    6  N   UNL     1      42.717 -14.379   2.040  1.00  0.00    -0.322 N 
HETATM    7  H   UNL     1      43.449 -15.056   1.838  1.00  0.00     0.169 HD
HETATM    8  O   UNL     1      44.125 -13.628   3.611  1.00  0.00    -0.271 OA
BRANCH   6   9
HETATM    9  C   UNL     1      41.636 -14.416   1.179  1.00  0.00     0.085 C 
HETATM   10  C   UNL     1      40.808 -15.524   1.129  1.00  0.00     0.052 C 
HETATM   11  C   UNL     1      40.804 -16.810   1.868  1.00  0.00     0.072 C 
HETATM   12  N   UNL     1      39.845 -15.237   0.203  1.00  0.00    -0.280 N 
HETATM   13  H   UNL     1      39.056 -15.810  -0.089  1.00  0.00     0.189 HD
HETATM   14  N   UNL     1      40.017 -14.051  -0.388  1.00  0.00    -0.177 NA
HETATM   15  C   UNL     1      41.150 -13.572   0.139  1.00  0.00     0.079 C 
HETATM   16  C   UNL     1      41.730 -12.375  -0.521  1.00  0.00     0.075 C 
ENDBRANCH   6   9
ENDBRANCH   4   5
ENDBRANCH   1   4
BRANCH   1  17
HETATM   17  C   UNL     1      41.843 -14.614   5.744  1.00  0.00     0.337 C 
BRANCH  17  18
HETATM   18  C   UNL     1      41.947 -16.118   5.447  1.00  0.00     0.248 C 
HETATM   19  N   UNL     1      43.219 -16.525   5.080  1.00  0.00    -0.326 N 
HETATM   20  H   UNL     1      43.896 -15.819   4.812  1.00  0.00     0.169 HD
HETATM   21  O   UNL     1      40.961 -16.841   5.556  1.00  0.00    -0.271 OA
BRANCH  19  22
HETATM   22  C   UNL     1      43.680 -17.856   4.954  1.00  0.00     0.035 A 
HETATM   23  C   UNL     1      43.741 -18.552   3.745  1.00  0.00     0.047 A 
HETATM   24  C   UNL     1      44.153 -19.903   3.693  1.00  0.00     0.071 A 
HETATM   25  C   UNL     1      44.515 -20.542   4.882  1.00  0.00     0.049 A 
HETATM   26 CL   UNL     1      45.022 -22.189   4.925  1.00  0.00    -0.083 Cl
HETATM   27  C   UNL     1      44.465 -19.851   6.094  1.00  0.00     0.027 A 
HETATM   28  C   UNL     1      44.044 -18.519   6.131  1.00  0.00     0.031 A 
BRANCH  24  29
HETATM   29  C   UNL     1      44.172 -20.632   2.374  1.00  0.00     0.419 C 
HETATM   30  F   UNL     1      43.715 -19.867   1.339  1.00  0.00    -0.166 F 
HETATM   31  F   UNL     1      45.417 -21.034   2.002  1.00  0.00    -0.166 F 
HETATM   32  F   UNL     1      43.384 -21.740   2.373  1.00  0.00    -0.166 F 
ENDBRANCH  24  29
ENDBRANCH  19  22
ENDBRANCH  17  18
ENDBRANCH   1  17
TORSDOF 7
ENDMDL
MODEL 5
REMARK VINA RESULT:      -7.7      2.288      3.149
REMARK  7 active torsions:
REMARK  status: ('A' for Active; 'I' for Inactive)
REMARK    1  A    between atoms: C_8  and  N_9 
REMARK       I    between atoms: N_9  and  C_10 
REMARK    2  A    between atoms: C_10  and  C_11 
REMARK    3  A    between atoms: C_11  and  N_12 
REMARK    4  A    between atoms: N_12  and  C_14 
REMARK    5  A    between atoms: C_14  and  C_15 
REMARK       I    between atoms: C_15  and  N_16 
REMARK    6  A    between atoms: N_16  and  C_17 
REMARK    7  A    between atoms: C_19  and  C_20 
ROOT
HETATM    1  N   UNL     1      41.161 -14.280   2.475  1.00  0.00    -0.058 N 
HETATM    2  H   UNL     1      40.505 -15.076   2.394  1.00  0.00     0.280 HD
HETATM    3  C   UNL     1      40.343 -13.051   2.753  1.00  0.00     0.270 C 
ENDROOT
BRANCH   1   4
HETATM    4  C   UNL     1      41.880 -14.200   1.119  1.00  0.00     0.337 C 
BRANCH   4   5
HETATM    5  C   UNL     1      41.582 -15.433   0.268  1.00  0.00     0.248 C 
HETATM    6  N   UNL     1      40.590 -15.468  -0.653  1.00  0.00    -0.322 N 
HETATM    7  H   UNL     1      40.323 -16.416  -0.911  1.00  0.00     0.169 HD
HETATM    8  O   UNL     1      42.239 -16.459   0.492  1.00  0.00    -0.271 OA
BRANCH   6   9
HETATM    9  C   UNL     1      39.855 -14.469  -1.266  1.00  0.00     0.085 C 
HETATM   10  C   UNL     1      40.350 -13.803  -2.372  1.00  0.00     0.052 C 
HETATM   11  C   UNL     1      41.613 -13.931  -3.142  1.00  0.00     0.072 C 
HETATM   12  N   UNL     1      39.389 -12.903  -2.737  1.00  0.00    -0.280 N 
HETATM   13  H   UNL     1      39.396 -12.250  -3.517  1.00  0.00     0.189 HD
HETATM   14  N   UNL     1      38.332 -12.900  -1.919  1.00  0.00    -0.177 NA
HETATM   15  C   UNL     1      38.636 -13.793  -0.970  1.00  0.00     0.079 C 
HETATM   16  C   UNL     1      37.752 -13.815   0.222  1.00  0.00     0.075 C 
ENDBRANCH   6   9
ENDBRANCH   4   5
ENDBRANCH   1   4
BRANCH   1  17
HETATM   17  C   UNL     1      42.120 -14.655   3.615  1.00  0.00     0.337 C 
BRANCH  17  18
HETATM   18  C   UNL     1      42.212 -16.159   3.916  1.00  0.00     0.248 C 
HETATM   19  N   UNL     1      43.390 -16.741   3.478  1.00  0.00    -0.326 N 
HETATM   20  H   UNL     1      43.969 -16.230   2.820  1.00  0.00     0.169 HD
HETATM   21  O   UNL     1      41.298 -16.731   4.502  1.00  0.00    -0.271 OA
BRANCH  19  22
HETATM   22  C   UNL     1      43.861 -18.037   3.789  1.00  0.00     0.035 A 
HETATM   23  C   UNL     1      43.802 -19.122   2.911  1.00  0.00     0.047 A 
HETATM   24  C   UNL     1      44.234 -20.410   3.303  1.00  0.00     0.071 A 
HETATM   25  C   UNL     1      44.738 -20.587   4.594  1.00  0.00     0.049 A 
HETATM   26 CL   UNL     1      45.280 -22.119   5.170  1.00  0.00    -0.083 Cl
HETATM   27  C   UNL     1      44.807 -19.506   5.475  1.00  0.00     0.027 A 
HETATM   28  C   UNL     1      44.366 -18.241   5.077  1.00  0.00     0.031 A 
BRANCH  24  29
HETATM   29  C   UNL     1      44.122 -21.564   2.339  1.00  0.00     0.419 C 
HETATM   30  F   UNL     1      43.039 -21.462   1.514  1.00  0.00    -0.166 F 
HETATM   31  F   UNL     1      45.195 -21.678   1.513  1.00  0.00    -0.166 F 
HETATM   32  F   UNL     1      43.980 -22.762   2.967  1.00  0.00    -0.166 F 
ENDBRANCH  24  29
ENDBRANCH  19  22
ENDBRANCH  17  18
ENDBRANCH   1  17
TORSDOF 7
ENDMDL
MODEL 6
REMARK VINA RESULT:      -7.7      1.715      2.315
REMARK  7 active torsions:
REMARK  status: ('A' for Active; 'I' for Inactive)
REMARK    1  A    between atoms: C_8  and  N_9 
REMARK       I    between atoms: N_9  and  C_10 
REMARK    2  A    between atoms: C_10  and  C_11 
REMARK    3  A    between atoms: C_11  and  N_12 
REMARK    4  A    between atoms: N_12  and  C_14 
REMARK    5  A    between atoms: C_14  and  C_15 
REMARK       I    between atoms: C_15  and  N_16 
REMARK    6  A    between atoms: N_16  and  C_17 
REMARK    7  A    between atoms: C_19  and  C_20 
ROOT
HETATM    1  N   UNL     1      42.386 -13.261   4.358  1.00  0.00    -0.058 N 
HETATM    2  H   UNL     1      42.761 -12.297   4.367  1.00  0.00     0.280 HD
HETATM    3  C   UNL     1      43.183 -14.043   3.353  1.00  0.00     0.270 C 
ENDROOT
BRANCH   1   4
HETATM    4  C   UNL     1      40.912 -13.124   3.944  1.00  0.00     0.337 C 
BRANCH   4   5
HETATM    5  C   UNL     1      40.177 -14.455   4.089  1.00  0.00     0.248 C 
HETATM    6  N   UNL     1      39.709 -15.155   3.028  1.00  0.00    -0.322 N 
HETATM    7  H   UNL     1      39.000 -15.838   3.288  1.00  0.00     0.169 HD
HETATM    8  O   UNL     1      39.946 -14.863   5.236  1.00  0.00    -0.271 OA
BRANCH   6   9
HETATM    9  C   UNL     1      39.981 -15.084   1.674  1.00  0.00     0.085 C 
HETATM   10  C   UNL     1      39.106 -14.452   0.808  1.00  0.00     0.052 C 
HETATM   11  C   UNL     1      37.815 -13.751   1.017  1.00  0.00     0.072 C 
HETATM   12  N   UNL     1      39.668 -14.544  -0.434  1.00  0.00    -0.280 N 
HETATM   13  H   UNL     1      39.318 -14.179  -1.316  1.00  0.00     0.189 HD
HETATM   14  N   UNL     1      40.813 -15.234  -0.446  1.00  0.00    -0.177 NA
HETATM   15  C   UNL     1      40.977 -15.638   0.819  1.00  0.00     0.079 C 
HETATM   16  C   UNL     1      42.040 -16.647   1.056  1.00  0.00     0.075 C 
ENDBRANCH   6   9
ENDBRANCH   4   5
ENDBRANCH   1   4
BRANCH   1  17
HETATM   17  C   UNL     1      42.536 -13.772   5.799  1.00  0.00     0.337 C 
BRANCH  17  18
HETATM   18  C   UNL     1      43.386 -15.043   5.949  1.00  0.00     0.248 C 
HETATM   19  N   UNL     1      42.706 -16.207   5.629  1.00  0.00    -0.326 N 
HETATM   20  H   UNL     1      41.695 -16.174   5.556  1.00  0.00     0.169 HD
HETATM   21  O   UNL     1      44.556 -14.967   6.311  1.00  0.00    -0.271 OA
BRANCH  19  22
HETATM   22  C   UNL     1      43.264 -17.495   5.461  1.00  0.00     0.035 A 
HETATM   23  C   UNL     1      43.545 -18.071   4.219  1.00  0.00     0.047 A 
HETATM   24  C   UNL     1      44.046 -19.388   4.115  1.00  0.00     0.071 A 
HETATM   25  C   UNL     1      44.272 -20.117   5.287  1.00  0.00     0.049 A 
HETATM   26 CL   UNL     1      44.871 -21.733   5.265  1.00  0.00    -0.083 Cl
HETATM   27  C   UNL     1      44.001 -19.546   6.531  1.00  0.00     0.027 A 
HETATM   28  C   UNL     1      43.495 -18.247   6.618  1.00  0.00     0.031 A 
BRANCH  24  29
HETATM   29  C   UNL     1      44.303 -19.988   2.757  1.00  0.00     0.419 C 
HETATM   30  F   UNL     1      45.589 -20.419   2.603  1.00  0.00    -0.166 F 
HETATM   31  F   UNL     1      43.526 -21.072   2.494  1.00  0.00    -0.166 F 
HETATM   32  F   UNL     1      44.099 -19.103   1.744  1.00  0.00    -0.166 F 
ENDBRANCH  24  29
ENDBRANCH  19  22
ENDBRANCH  17  18
ENDBRANCH   1  17
TORSDOF 7
ENDMDL
MODEL 7
REMARK VINA RESULT:      -7.6      3.464      4.365
REMARK  7 active torsions:
REMARK  status: ('A' for Active; 'I' for Inactive)
REMARK    1  A    between atoms: C_8  and  N_9 
REMARK       I    between atoms: N_9  and  C_10 
REMARK    2  A    between atoms: C_10  and  C_11 
REMARK    3  A    between atoms: C_11  and  N_12 
REMARK    4  A    between atoms: N_12  and  C_14 
REMARK    5  A    between atoms: C_14  and  C_15 
REMARK       I    between atoms: C_15  and  N_16 
REMARK    6  A    between atoms: N_16  and  C_17 
REMARK    7  A    between atoms: C_19  and  C_20 
ROOT
HETATM    1  N   UNL     1      39.362 -14.819   1.525  1.00  0.00    -0.058 N 
HETATM    2  H   UNL     1      39.344 -15.852   1.472  1.00  0.00     0.280 HD
HETATM    3  C   UNL     1      38.037 -14.320   1.023  1.00  0.00     0.270 C 
ENDROOT
BRANCH   1   4
HETATM    4  C   UNL     1      40.525 -14.382   0.620  1.00  0.00     0.337 C 
BRANCH   4   5
HETATM    5  C   UNL     1      40.906 -15.493  -0.356  1.00  0.00     0.248 C 
HETATM    6  N   UNL     1      40.754 -15.378  -1.697  1.00  0.00    -0.322 N 
HETATM    7  H   UNL     1      40.761 -16.277  -2.173  1.00  0.00     0.169 HD
HETATM    8  O   UNL     1      41.304 -16.565   0.121  1.00  0.00    -0.271 OA
BRANCH   6   9
HETATM    9  C   UNL     1      40.550 -14.285  -2.519  1.00  0.00     0.085 C 
HETATM   10  C   UNL     1      39.394 -14.167  -3.268  1.00  0.00     0.052 C 
HETATM   11  C   UNL     1      38.190 -15.025  -3.401  1.00  0.00     0.072 C 
HETATM   12  N   UNL     1      39.499 -12.986  -3.948  1.00  0.00    -0.280 N 
HETATM   13  H   UNL     1      38.830 -12.560  -4.584  1.00  0.00     0.189 HD
HETATM   14  N   UNL     1      40.658 -12.357  -3.736  1.00  0.00    -0.177 NA
HETATM   15  C   UNL     1      41.345 -13.175  -2.929  1.00  0.00     0.079 C 
HETATM   16  C   UNL     1      42.780 -12.853  -2.730  1.00  0.00     0.075 C 
ENDBRANCH   6   9
ENDBRANCH   4   5
ENDBRANCH   1   4
BRANCH   1  17
HETATM   17  C   UNL     1      39.626 -14.490   3.003  1.00  0.00     0.337 C 
BRANCH  17  18
HETATM   18  C   UNL     1      40.811 -15.241   3.631  1.00  0.00     0.248 C 
HETATM   19  N   UNL     1      40.757 -16.613   3.451  1.00  0.00    -0.326 N 
HETATM   20  H   UNL     1      39.882 -17.029   3.151  1.00  0.00     0.169 HD
HETATM   21  O   UNL     1      41.697 -14.623   4.214  1.00  0.00    -0.271 OA
BRANCH  19  22
HETATM   22  C   UNL     1      41.787 -17.543   3.718  1.00  0.00     0.035 A 
HETATM   23  C   UNL     1      42.200 -17.906   5.002  1.00  0.00     0.047 A 
HETATM   24  C   UNL     1      43.279 -18.797   5.204  1.00  0.00     0.071 A 
HETATM   25  C   UNL     1      43.931 -19.328   4.088  1.00  0.00     0.049 A 
HETATM   26 CL   UNL     1      45.263 -20.414   4.230  1.00  0.00    -0.083 Cl
HETATM   27  C   UNL     1      43.519 -18.977   2.802  1.00  0.00     0.027 A 
HETATM   28  C   UNL     1      42.459 -18.086   2.617  1.00  0.00     0.031 A 
BRANCH  24  29
HETATM   29  C   UNL     1      43.719 -19.137   6.606  1.00  0.00     0.419 C 
HETATM   30  F   UNL     1      43.626 -20.470   6.881  1.00  0.00    -0.166 F 
HETATM   31  F   UNL     1      45.014 -18.807   6.855  1.00  0.00    -0.166 F 
HETATM   32  F   UNL     1      42.966 -18.522   7.557  1.00  0.00    -0.166 F 
ENDBRANCH  24  29
ENDBRANCH  19  22
ENDBRANCH  17  18
ENDBRANCH   1  17
TORSDOF 7
ENDMDL
MODEL 8
REMARK VINA RESULT:      -7.6      2.799      3.813
REMARK  7 active torsions:
REMARK  status: ('A' for Active; 'I' for Inactive)
REMARK    1  A    between atoms: C_8  and  N_9 
REMARK       I    between atoms: N_9  and  C_10 
REMARK    2  A    between atoms: C_10  and  C_11 
REMARK    3  A    between atoms: C_11  and  N_12 
REMARK    4  A    between atoms: N_12  and  C_14 
REMARK    5  A    between atoms: C_14  and  C_15 
REMARK       I    between atoms: C_15  and  N_16 
REMARK    6  A    between atoms: N_16  and  C_17 
REMARK    7  A    between atoms: C_19  and  C_20 
ROOT
HETATM    1  N   UNL     1      39.867 -14.330   1.204  1.00  0.00    -0.058 N 
HETATM    2  H   UNL     1      39.443 -14.872   1.976  1.00  0.00     0.280 HD
HETATM    3  C   UNL     1      40.389 -13.048   1.788  1.00  0.00     0.270 C 
ENDROOT
BRANCH   1   4
HETATM    4  C   UNL     1      38.728 -14.085   0.200  1.00  0.00     0.337 C 
BRANCH   4   5
HETATM    5  C   UNL     1      38.907 -12.748  -0.516  1.00  0.00     0.248 C 
HETATM    6  N   UNL     1      39.800 -12.566  -1.518  1.00  0.00    -0.322 N 
HETATM    7  H   UNL     1      40.015 -11.584  -1.681  1.00  0.00     0.169 HD
HETATM    8  O   UNL     1      38.252 -11.782  -0.103  1.00  0.00    -0.271 OA
BRANCH   6   9
HETATM    9  C   UNL     1      40.493 -13.455  -2.319  1.00  0.00     0.085 C 
HETATM   10  C   UNL     1      41.855 -13.317  -2.516  1.00  0.00     0.052 C 
HETATM   11  C   UNL     1      42.852 -12.343  -2.006  1.00  0.00     0.072 C 
HETATM   12  N   UNL     1      42.227 -14.349  -3.332  1.00  0.00    -0.280 N 
HETATM   13  H   UNL     1      43.156 -14.579  -3.678  1.00  0.00     0.189 HD
HETATM   14  N   UNL     1      41.201 -15.111  -3.721  1.00  0.00    -0.177 NA
HETATM   15  C   UNL     1      40.124 -14.532  -3.177  1.00  0.00     0.079 C 
HETATM   16  C   UNL     1      38.804 -15.018  -3.651  1.00  0.00     0.075 C 
ENDBRANCH   6   9
ENDBRANCH   4   5
ENDBRANCH   1   4
BRANCH   1  17
HETATM   17  C   UNL     1      40.963 -15.235   0.623  1.00  0.00     0.337 C 
BRANCH  17  18
HETATM   18  C   UNL     1      41.241 -16.513   1.428  1.00  0.00     0.248 C 
HETATM   19  N   UNL     1      42.561 -16.929   1.372  1.00  0.00    -0.326 N 
HETATM   20  H   UNL     1      43.165 -16.533   0.660  1.00  0.00     0.169 HD
HETATM   21  O   UNL     1      40.337 -17.061   2.053  1.00  0.00    -0.271 OA
BRANCH  19  22
HETATM   22  C   UNL     1      43.169 -17.929   2.166  1.00  0.00     0.035 A 
HETATM   23  C   UNL     1      43.338 -19.255   1.760  1.00  0.00     0.047 A 
HETATM   24  C   UNL     1      43.899 -20.223   2.623  1.00  0.00     0.071 A 
HETATM   25  C   UNL     1      44.297 -19.832   3.905  1.00  0.00     0.049 A 
HETATM   26 CL   UNL     1      44.981 -20.940   5.035  1.00  0.00    -0.083 Cl
HETATM   27  C   UNL     1      44.138 -18.508   4.315  1.00  0.00     0.027 A 
HETATM   28  C   UNL     1      43.572 -17.564   3.455  1.00  0.00     0.031 A 
BRANCH  24  29
HETATM   29  C   UNL     1      44.033 -21.652   2.162  1.00  0.00     0.419 C 
HETATM   30  F   UNL     1      44.019 -22.546   3.194  1.00  0.00    -0.166 F 
HETATM   31  F   UNL     1      43.029 -22.043   1.333  1.00  0.00    -0.166 F 
HETATM   32  F   UNL     1      45.200 -21.885   1.503  1.00  0.00    -0.166 F 
ENDBRANCH  24  29
ENDBRANCH  19  22
ENDBRANCH  17  18
ENDBRANCH   1  17
TORSDOF 7
ENDMDL
MODEL 9
REMARK VINA RESULT:      -7.5      1.884      3.101
REMARK  7 active torsions:
REMARK  status: ('A' for Active; 'I' for Inactive)
REMARK    1  A    between atoms: C_8  and  N_9 
REMARK       I    between atoms: N_9  and  C_10 
REMARK    2  A    between atoms: C_10  and  C_11 
REMARK    3  A    between atoms: C_11  and  N_12 
REMARK    4  A    between atoms: N_12  and  C_14 
REMARK    5  A    between atoms: C_14  and  C_15 
REMARK       I    between atoms: C_15  and  N_16 
REMARK    6  A    between atoms: N_16  and  C_17 
REMARK    7  A    between atoms: C_19  and  C_20 
ROOT
HETATM    1  N   UNL     1      40.955 -13.024   5.304  1.00  0.00    -0.058 N 
HETATM    2  H   UNL     1      40.789 -13.881   5.859  1.00  0.00     0.280 HD
HETATM    3  C   UNL     1      40.097 -11.937   5.888  1.00  0.00     0.270 C 
ENDROOT
BRANCH   1   4
HETATM    4  C   UNL     1      40.538 -13.378   3.867  1.00  0.00     0.337 C 
BRANCH   4   5
HETATM    5  C   UNL     1      40.095 -14.836   3.769  1.00  0.00     0.248 C 
HETATM    6  N   UNL     1      39.538 -15.361   2.652  1.00  0.00    -0.322 N 
HETATM    7  H   UNL     1      39.031 -16.225   2.832  1.00  0.00     0.169 HD
HETATM    8  O   UNL     1      40.190 -15.536   4.787  1.00  0.00    -0.271 OA
BRANCH   6   9
HETATM    9  C   UNL     1      39.496 -14.924   1.341  1.00  0.00     0.085 C 
HETATM   10  C   UNL     1      40.493 -15.270   0.446  1.00  0.00     0.052 C 
HETATM   11  C   UNL     1      41.719 -16.097   0.577  1.00  0.00     0.072 C 
HETATM   12  N   UNL     1      40.149 -14.699  -0.747  1.00  0.00    -0.280 N 
HETATM   13  H   UNL     1      40.637 -14.751  -1.638  1.00  0.00     0.189 HD
HETATM   14  N   UNL     1      39.034 -13.965  -0.678  1.00  0.00    -0.177 NA
HETATM   15  C   UNL     1      38.667 -14.027   0.607  1.00  0.00     0.079 C 
HETATM   16  C   UNL     1      37.596 -13.091   1.032  1.00  0.00     0.075 C 
ENDBRANCH   6   9
ENDBRANCH   4   5
ENDBRANCH   1   4
BRANCH   1  17
HETATM   17  C   UNL     1      42.462 -12.750   5.417  1.00  0.00     0.337 C 
BRANCH  17  18
HETATM   18  C   UNL     1      43.366 -13.912   4.980  1.00  0.00     0.248 C 
HETATM   19  N   UNL     1      43.100 -15.101   5.640  1.00  0.00    -0.326 N 
HETATM   20  H   UNL     1      42.534 -15.073   6.481  1.00  0.00     0.169 HD
HETATM   21  O   UNL     1      44.217 -13.743   4.112  1.00  0.00    -0.271 OA
BRANCH  19  22
HETATM   22  C   UNL     1      43.605 -16.381   5.315  1.00  0.00     0.035 A 
HETATM   23  C   UNL     1      43.506 -16.962   4.048  1.00  0.00     0.047 A 
HETATM   24  C   UNL     1      43.976 -18.272   3.800  1.00  0.00     0.071 A 
HETATM   25  C   UNL     1      44.559 -18.987   4.850  1.00  0.00     0.049 A 
HETATM   26 CL   UNL     1      45.154 -20.593   4.652  1.00  0.00    -0.083 Cl
HETATM   27  C   UNL     1      44.669 -18.410   6.117  1.00  0.00     0.027 A 
HETATM   28  C   UNL     1      44.189 -17.119   6.349  1.00  0.00     0.031 A 
BRANCH  24  29
HETATM   29  C   UNL     1      43.820 -18.878   2.429  1.00  0.00     0.419 C 
HETATM   30  F   UNL     1      44.555 -20.017   2.267  1.00  0.00    -0.166 F 
HETATM   31  F   UNL     1      42.538 -19.233   2.144  1.00  0.00    -0.166 F 
HETATM   32  F   UNL     1      44.228 -18.045   1.435  1.00  0.00    -0.166 F 
ENDBRANCH  24  29
ENDBRANCH  19  22
ENDBRANCH  17  18
ENDBRANCH   1  17
TORSDOF 7
ENDMDL
MODEL 10
REMARK VINA RESULT:      -7.5      3.287      4.363
REMARK  7 active torsions:
REMARK  status: ('A' for Active; 'I' for Inactive)
REMARK    1  A    between atoms: C_8  and  N_9 
REMARK       I    between atoms: N_9  and  C_10 
REMARK    2  A    between atoms: C_10  and  C_11 
REMARK    3  A    between atoms: C_11  and  N_12 
REMARK    4  A    between atoms: N_12  and  C_14 
REMARK    5  A    between atoms: C_14  and  C_15 
REMARK       I    between atoms: C_15  and  N_16 
REMARK    6  A    between atoms: N_16  and  C_17 
REMARK    7  A    between atoms: C_19  and  C_20 
ROOT
HETATM    1  N   UNL     1      39.884 -14.848   0.710  1.00  0.00    -0.058 N 
HETATM    2  H   UNL     1      39.187 -14.930  -0.049  1.00  0.00     0.280 HD
HETATM    3  C   UNL     1      39.227 -15.319   1.977  1.00  0.00     0.270 C 
ENDROOT
BRANCH   1   4
HETATM    4  C   UNL     1      40.250 -13.356   0.771  1.00  0.00     0.337 C 
BRANCH   4   5
HETATM    5  C   UNL     1      39.469 -12.558  -0.271  1.00  0.00     0.248 C 
HETATM    6  N   UNL     1      39.771 -12.580  -1.591  1.00  0.00    -0.322 N 
HETATM    7  H   UNL     1      39.376 -11.792  -2.099  1.00  0.00     0.169 HD
HETATM    8  O   UNL     1      38.569 -11.809   0.134  1.00  0.00    -0.271 OA
BRANCH   6   9
HETATM    9  C   UNL     1      40.539 -13.440  -2.354  1.00  0.00     0.085 C 
HETATM   10  C   UNL     1      41.894 -13.216  -2.526  1.00  0.00     0.052 C 
HETATM   11  C   UNL     1      42.811 -12.165  -2.020  1.00  0.00     0.072 C 
HETATM   12  N   UNL     1      42.352 -14.239  -3.307  1.00  0.00    -0.280 N 
HETATM   13  H   UNL     1      43.302 -14.415  -3.627  1.00  0.00     0.189 HD
HETATM   14  N   UNL     1      41.388 -15.077  -3.698  1.00  0.00    -0.177 NA
HETATM   15  C   UNL     1      40.263 -14.559  -3.192  1.00  0.00     0.079 C 
HETATM   16  C   UNL     1      38.989 -15.143  -3.681  1.00  0.00     0.075 C 
ENDBRANCH   6   9
ENDBRANCH   4   5
ENDBRANCH   1   4
BRANCH   1  17
HETATM   17  C   UNL     1      41.073 -15.716   0.271  1.00  0.00     0.337 C 
BRANCH  17  18
HETATM   18  C   UNL     1      41.947 -16.244   1.419  1.00  0.00     0.248 C 
HETATM   19  N   UNL     1      41.788 -17.599   1.660  1.00  0.00    -0.326 N 
HETATM   20  H   UNL     1      40.986 -18.073   1.257  1.00  0.00     0.169 HD
HETATM   21  O   UNL     1      42.704 -15.488   2.019  1.00  0.00    -0.271 OA
BRANCH  19  22
HETATM   22  C   UNL     1      42.593 -18.412   2.490  1.00  0.00     0.035 A 
HETATM   23  C   UNL     1      42.795 -18.180   3.853  1.00  0.00     0.047 A 
HETATM   24  C   UNL     1      43.661 -18.994   4.617  1.00  0.00     0.071 A 
HETATM   25  C   UNL     1      44.316 -20.057   3.988  1.00  0.00     0.049 A 
HETATM   26 CL   UNL     1      45.399 -21.100   4.831  1.00  0.00    -0.083 Cl
HETATM   27  C   UNL     1      44.113 -20.300   2.629  1.00  0.00     0.027 A 
HETATM   28  C   UNL     1      43.263 -19.479   1.883  1.00  0.00     0.031 A 
BRANCH  24  29
HETATM   29  C   UNL     1      43.881 -18.691   6.078  1.00  0.00     0.419 C 
HETATM   30  F   UNL     1      43.169 -17.609   6.508  1.00  0.00    -0.166 F 
HETATM   31  F   UNL     1      43.515 -19.712   6.897  1.00  0.00    -0.166 F 
HETATM   32  F   UNL     1      45.179 -18.402   6.365  1.00  0.00    -0.166 F 
ENDBRANCH  24  29
ENDBRANCH  19  22
ENDBRANCH  17  18
ENDBRANCH   1  17
TORSDOF 7
ENDMDL
