MODEL 1
REMARK VINA RESULT:      -9.0      0.000      0.000
REMARK  5 active torsions:
REMARK  status: ('A' for Active; 'I' for Inactive)
REMARK    1  A    between atoms: C_9  and  C_10 
REMARK       I    between atoms: C_10  and  N_11 
REMARK    2  A    between atoms: N_11  and  C_12 
REMARK    3  A    between atoms: C_12  and  C_13 
REMARK    4  A    between atoms: C_16  and  N_17 
REMARK       I    between atoms: N_17  and  C_18 
REMARK    5  A    between atoms: C_18  and  C_19 
ROOT
HETATM    1  C   UNL     1      43.831 -15.391   6.732  1.00  0.00     0.273 C 
HETATM    2  N   UNL     1      44.339 -14.553   7.700  1.00  0.00    -0.351 N 
HETATM    3  O   UNL     1      43.461 -14.992   5.630  1.00  0.00    -0.266 OA
HETATM    4  H   UNL     1      44.716 -15.009   8.527  1.00  0.00     0.163 HD
ENDROOT
BRANCH   2   5
HETATM    5  C   UNL     1      44.627 -13.175   7.417  1.00  0.00     0.161 C 
BRANCH   5   6
HETATM    6  C   UNL     1      44.440 -12.311   8.634  1.00  0.00    -0.040 A 
HETATM    7  C   UNL     1      45.371 -12.338   9.678  1.00  0.00     0.011 A 
HETATM    8  C   UNL     1      45.204 -11.530  10.808  1.00  0.00     0.030 A 
HETATM    9  C   UNL     1      44.100 -10.683  10.918  1.00  0.00     0.034 A 
HETATM   10  C   UNL     1      43.155 -10.673   9.884  1.00  0.00     0.030 A 
HETATM   11  C   UNL     1      43.319 -11.482   8.755  1.00  0.00     0.011 A 
BRANCH   9  12
HETATM   12  N   UNL     1      43.869  -9.821  12.009  1.00  0.00    -0.327 N 
HETATM   13  C   UNL     1      43.090 -10.062  13.131  1.00  0.00     0.225 C 
HETATM   14  O   UNL     1      42.451 -11.084  13.360  1.00  0.00    -0.273 OA
HETATM   15  H   UNL     1      44.347  -8.930  11.972  1.00  0.00     0.169 HD
BRANCH  13  16
HETATM   16  C   UNL     1      43.102  -8.884  14.112  1.00  0.00     0.070 C 
HETATM   17  C   UNL     1      42.501  -7.635  13.470  1.00  0.00     0.019 C 
HETATM   18  C   UNL     1      42.348  -9.229  15.396  1.00  0.00     0.019 C 
ENDBRANCH  13  16
ENDBRANCH   9  12
ENDBRANCH   5   6
ENDBRANCH   2   5
BRANCH   1  19
HETATM   19  C   UNL     1      43.796 -16.804   7.139  1.00  0.00     0.157 A 
HETATM   20  C   UNL     1      43.937 -17.948   6.299  1.00  0.00     0.029 A 
HETATM   21  C   UNL     1      44.136 -18.178   4.922  1.00  0.00     0.023 A 
HETATM   22  C   UNL     1      43.845 -19.040   7.153  1.00  0.00     0.063 A 
HETATM   23  C   UNL     1      44.237 -19.496   4.447  1.00  0.00    -0.061 A 
HETATM   24  C   UNL     1      44.451 -19.765   2.986  1.00  0.00     0.048 C 
HETATM   25  C   UNL     1      44.137 -20.568   5.344  1.00  0.00     0.009 A 
HETATM   26  C   UNL     1      43.940 -20.362   6.714  1.00  0.00     0.032 A 
HETATM   27  N   UNL     1      43.661 -18.507   8.398  1.00  0.00    -0.277 N 
HETATM   28  H   UNL     1      43.553 -19.012   9.270  1.00  0.00     0.189 HD
HETATM   29  N   UNL     1      43.630 -17.163   8.432  1.00  0.00    -0.168 NA
ENDBRANCH   1  19
TORSDOF 5
ENDMDL
MODEL 2
REMARK VINA RESULT:      -8.6      6.073      9.445
REMARK  5 active torsions:
REMARK  status: ('A' for Active; 'I' for Inactive)
REMARK    1  A    between atoms: C_9  and  C_10 
REMARK       I    between atoms: C_10  and  N_11 
REMARK    2  A    between atoms: N_11  and  C_12 
REMARK    3  A    between atoms: C_12  and  C_13 
REMARK    4  A    between atoms: C_16  and  N_17 
REMARK       I    between atoms: N_17  and  C_18 
REMARK    5  A    between atoms: C_18  and  C_19 
ROOT
HETATM    1  C   UNL     1      41.251 -16.642   6.268  1.00  0.00     0.273 C 
HETATM    2  N   UNL     1      41.594 -15.463   5.644  1.00  0.00    -0.351 N 
HETATM    3  O   UNL     1      40.113 -16.881   6.667  1.00  0.00    -0.266 OA
HETATM    4  H   UNL     1      42.533 -15.423   5.258  1.00  0.00     0.163 HD
ENDROOT
BRANCH   2   5
HETATM    5  C   UNL     1      40.596 -14.501   5.267  1.00  0.00     0.161 C 
BRANCH   5   6
HETATM    6  C   UNL     1      40.311 -14.551   3.792  1.00  0.00    -0.040 A 
HETATM    7  C   UNL     1      40.561 -15.716   3.057  1.00  0.00     0.011 A 
HETATM    8  C   UNL     1      40.290 -15.769   1.685  1.00  0.00     0.030 A 
HETATM    9  C   UNL     1      39.768 -14.658   1.021  1.00  0.00     0.034 A 
HETATM   10  C   UNL     1      39.539 -13.485   1.751  1.00  0.00     0.030 A 
HETATM   11  C   UNL     1      39.813 -13.429   3.121  1.00  0.00     0.011 A 
BRANCH   9  12
HETATM   12  N   UNL     1      39.445 -14.635  -0.351  1.00  0.00    -0.327 N 
HETATM   13  C   UNL     1      40.306 -14.452  -1.423  1.00  0.00     0.225 C 
HETATM   14  O   UNL     1      41.516 -14.264  -1.352  1.00  0.00    -0.273 OA
HETATM   15  H   UNL     1      38.470 -14.792  -0.574  1.00  0.00     0.169 HD
BRANCH  13  16
HETATM   16  C   UNL     1      39.578 -14.512  -2.771  1.00  0.00     0.070 C 
HETATM   17  C   UNL     1      39.859 -15.834  -3.483  1.00  0.00     0.019 C 
HETATM   18  C   UNL     1      38.072 -14.321  -2.592  1.00  0.00     0.019 C 
ENDBRANCH  13  16
ENDBRANCH   9  12
ENDBRANCH   5   6
ENDBRANCH   2   5
BRANCH   1  19
HETATM   19  C   UNL     1      42.370 -17.588   6.389  1.00  0.00     0.157 A 
HETATM   20  C   UNL     1      42.984 -18.338   5.341  1.00  0.00     0.029 A 
HETATM   21  C   UNL     1      42.801 -18.476   3.950  1.00  0.00     0.023 A 
HETATM   22  C   UNL     1      43.992 -19.067   5.959  1.00  0.00     0.063 A 
HETATM   23  C   UNL     1      43.637 -19.340   3.224  1.00  0.00    -0.061 A 
HETATM   24  C   UNL     1      43.463 -19.499   1.741  1.00  0.00     0.048 C 
HETATM   25  C   UNL     1      44.642 -20.057   3.887  1.00  0.00     0.009 A 
HETATM   26  C   UNL     1      44.840 -19.935   5.267  1.00  0.00     0.032 A 
HETATM   27  N   UNL     1      43.924 -18.726   7.281  1.00  0.00    -0.277 N 
HETATM   28  H   UNL     1      44.513 -19.067   8.032  1.00  0.00     0.189 HD
HETATM   29  N   UNL     1      42.963 -17.833   7.579  1.00  0.00    -0.168 NA
ENDBRANCH   1  19
TORSDOF 5
ENDMDL
MODEL 3
REMARK VINA RESULT:      -8.4      5.498      8.984
REMARK  5 active torsions:
REMARK  status: ('A' for Active; 'I' for Inactive)
REMARK    1  A    between atoms: C_9  and  C_10 
REMARK       I    between atoms: C_10  and  N_11 
REMARK    2  A    between atoms: N_11  and  C_12 
REMARK    3  A    between atoms: C_12  and  C_13 
REMARK    4  A    between atoms: C_16  and  N_17 
REMARK       I    between atoms: N_17  and  C_18 
REMARK    5  A    between atoms: C_18  and  C_19 
ROOT
HETATM    1  C   UNL     1      41.490 -16.233   6.345  1.00  0.00     0.273 C 
HETATM    2  N   UNL     1      42.131 -15.035   6.119  1.00  0.00    -0.351 N 
HETATM    3  O   UNL     1      40.267 -16.354   6.312  1.00  0.00    -0.266 OA
HETATM    4  H   UNL     1      43.145 -15.080   6.061  1.00  0.00     0.163 HD
ENDROOT
BRANCH   2   5
HETATM    5  C   UNL     1      41.413 -13.879   5.660  1.00  0.00     0.161 C 
BRANCH   5   6
HETATM    6  C   UNL     1      41.266 -13.879   4.163  1.00  0.00    -0.040 A 
HETATM    7  C   UNL     1      42.386 -13.732   3.337  1.00  0.00     0.011 A 
HETATM    8  C   UNL     1      42.254 -13.740   1.944  1.00  0.00     0.030 A 
HETATM    9  C   UNL     1      40.999 -13.888   1.351  1.00  0.00     0.034 A 
HETATM   10  C   UNL     1      39.875 -14.012   2.177  1.00  0.00     0.030 A 
HETATM   11  C   UNL     1      40.005 -14.002   3.570  1.00  0.00     0.011 A 
BRANCH   9  12
HETATM   12  N   UNL     1      40.782 -13.929  -0.042  1.00  0.00    -0.327 N 
HETATM   13  C   UNL     1      40.966 -15.005  -0.898  1.00  0.00     0.225 C 
HETATM   14  O   UNL     1      41.367 -16.120  -0.580  1.00  0.00    -0.273 OA
HETATM   15  H   UNL     1      40.431 -13.075  -0.455  1.00  0.00     0.169 HD
BRANCH  13  16
HETATM   16  C   UNL     1      40.601 -14.664  -2.348  1.00  0.00     0.070 C 
HETATM   17  C   UNL     1      41.703 -13.835  -3.005  1.00  0.00     0.019 C 
HETATM   18  C   UNL     1      40.338 -15.930  -3.162  1.00  0.00     0.019 C 
ENDBRANCH  13  16
ENDBRANCH   9  12
ENDBRANCH   5   6
ENDBRANCH   2   5
BRANCH   1  19
HETATM   19  C   UNL     1      42.409 -17.350   6.607  1.00  0.00     0.157 A 
HETATM   20  C   UNL     1      43.014 -18.214   5.646  1.00  0.00     0.029 A 
HETATM   21  C   UNL     1      42.986 -18.350   4.243  1.00  0.00     0.023 A 
HETATM   22  C   UNL     1      43.800 -19.088   6.387  1.00  0.00     0.063 A 
HETATM   23  C   UNL     1      43.749 -19.357   3.628  1.00  0.00    -0.061 A 
HETATM   24  C   UNL     1      43.737 -19.517   2.135  1.00  0.00     0.048 C 
HETATM   25  C   UNL     1      44.527 -20.217   4.414  1.00  0.00     0.009 A 
HETATM   26  C   UNL     1      44.569 -20.101   5.808  1.00  0.00     0.032 A 
HETATM   27  N   UNL     1      43.625 -18.712   7.689  1.00  0.00    -0.277 N 
HETATM   28  H   UNL     1      44.049 -19.130   8.509  1.00  0.00     0.189 HD
HETATM   29  N   UNL     1      42.799 -17.666   7.862  1.00  0.00    -0.168 NA
ENDBRANCH   1  19
TORSDOF 5
ENDMDL
MODEL 4
REMARK VINA RESULT:      -8.3      2.516     10.316
REMARK  5 active torsions:
REMARK  status: ('A' for Active; 'I' for Inactive)
REMARK    1  A    between atoms: C_9  and  C_10 
REMARK       I    between atoms: C_10  and  N_11 
REMARK    2  A    between atoms: N_11  and  C_12 
REMARK    3  A    between atoms: C_12  and  C_13 
REMARK    4  A    between atoms: C_16  and  N_17 
REMARK       I    between atoms: N_17  and  C_18 
REMARK    5  A    between atoms: C_18  and  C_19 
ROOT
HETATM    1  C   UNL     1      44.252 -11.281   9.104  1.00  0.00     0.273 C 
HETATM    2  N   UNL     1      43.940 -12.479   8.503  1.00  0.00    -0.351 N 
HETATM    3  O   UNL     1      45.406 -10.937   9.352  1.00  0.00    -0.266 OA
HETATM    4  H   UNL     1      42.965 -12.606   8.246  1.00  0.00     0.163 HD
ENDROOT
BRANCH   2   5
HETATM    5  C   UNL     1      44.964 -13.335   7.970  1.00  0.00     0.161 C 
BRANCH   5   6
HETATM    6  C   UNL     1      44.404 -14.307   6.969  1.00  0.00    -0.040 A 
HETATM    7  C   UNL     1      44.200 -15.648   7.314  1.00  0.00     0.011 A 
HETATM    8  C   UNL     1      43.672 -16.554   6.387  1.00  0.00     0.030 A 
HETATM    9  C   UNL     1      43.343 -16.138   5.096  1.00  0.00     0.034 A 
HETATM   10  C   UNL     1      43.568 -14.802   4.743  1.00  0.00     0.030 A 
HETATM   11  C   UNL     1      44.099 -13.895   5.667  1.00  0.00     0.011 A 
BRANCH   9  12
HETATM   12  N   UNL     1      42.785 -16.978   4.111  1.00  0.00    -0.327 N 
HETATM   13  C   UNL     1      43.343 -18.120   3.555  1.00  0.00     0.225 C 
HETATM   14  O   UNL     1      44.443 -18.591   3.827  1.00  0.00    -0.273 OA
HETATM   15  H   UNL     1      41.860 -16.723   3.791  1.00  0.00     0.169 HD
BRANCH  13  16
HETATM   16  C   UNL     1      42.418 -18.776   2.523  1.00  0.00     0.070 C 
HETATM   17  C   UNL     1      41.986 -17.768   1.461  1.00  0.00     0.019 C 
HETATM   18  C   UNL     1      43.094 -19.978   1.864  1.00  0.00     0.019 C 
ENDBRANCH  13  16
ENDBRANCH   9  12
ENDBRANCH   5   6
ENDBRANCH   2   5
BRANCH   1  19
HETATM   19  C   UNL     1      43.076 -10.449   9.399  1.00  0.00     0.157 A 
HETATM   20  C   UNL     1      42.696  -9.908  10.664  1.00  0.00     0.029 A 
HETATM   21  C   UNL     1      43.207  -9.942  11.977  1.00  0.00     0.023 A 
HETATM   22  C   UNL     1      41.530  -9.193  10.418  1.00  0.00     0.063 A 
HETATM   23  C   UNL     1      42.534  -9.255  13.001  1.00  0.00    -0.061 A 
HETATM   24  C   UNL     1      43.063  -9.274  14.406  1.00  0.00     0.048 C 
HETATM   25  C   UNL     1      41.360  -8.547  12.709  1.00  0.00     0.009 A 
HETATM   26  C   UNL     1      40.835  -8.501  11.413  1.00  0.00     0.032 A 
HETATM   27  N   UNL     1      41.292  -9.344   9.081  1.00  0.00    -0.277 N 
HETATM   28  H   UNL     1      40.522  -8.955   8.549  1.00  0.00     0.189 HD
HETATM   29  N   UNL     1      42.204 -10.089   8.431  1.00  0.00    -0.168 NA
ENDBRANCH   1  19
TORSDOF 5
ENDMDL
MODEL 5
REMARK VINA RESULT:      -8.2      7.832      9.338
REMARK  5 active torsions:
REMARK  status: ('A' for Active; 'I' for Inactive)
REMARK    1  A    between atoms: C_9  and  C_10 
REMARK       I    between atoms: C_10  and  N_11 
REMARK    2  A    between atoms: N_11  and  C_12 
REMARK    3  A    between atoms: C_12  and  C_13 
REMARK    4  A    between atoms: C_16  and  N_17 
REMARK       I    between atoms: N_17  and  C_18 
REMARK    5  A    between atoms: C_18  and  C_19 
ROOT
HETATM    1  C   UNL     1      41.052 -17.015   2.217  1.00  0.00     0.273 C 
HETATM    2  N   UNL     1      40.115 -16.175   2.778  1.00  0.00    -0.351 N 
HETATM    3  O   UNL     1      41.021 -17.358   1.037  1.00  0.00    -0.266 OA
HETATM    4  H   UNL     1      40.306 -15.872   3.729  1.00  0.00     0.163 HD
ENDROOT
BRANCH   2   5
HETATM    5  C   UNL     1      39.132 -15.509   1.971  1.00  0.00     0.161 C 
BRANCH   5   6
HETATM    6  C   UNL     1      39.682 -14.251   1.357  1.00  0.00    -0.040 A 
HETATM    7  C   UNL     1      40.192 -13.228   2.165  1.00  0.00     0.011 A 
HETATM    8  C   UNL     1      40.712 -12.059   1.597  1.00  0.00     0.030 A 
HETATM    9  C   UNL     1      40.727 -11.889   0.212  1.00  0.00     0.034 A 
HETATM   10  C   UNL     1      40.196 -12.902  -0.595  1.00  0.00     0.030 A 
HETATM   11  C   UNL     1      39.673 -14.069  -0.030  1.00  0.00     0.011 A 
BRANCH   9  12
HETATM   12  N   UNL     1      41.253 -10.755  -0.440  1.00  0.00    -0.327 N 
HETATM   13  C   UNL     1      42.543 -10.570  -0.913  1.00  0.00     0.225 C 
HETATM   14  O   UNL     1      43.464 -11.376  -0.830  1.00  0.00    -0.273 OA
HETATM   15  H   UNL     1      40.600  -9.998  -0.596  1.00  0.00     0.169 HD
BRANCH  13  16
HETATM   16  C   UNL     1      42.726  -9.205  -1.586  1.00  0.00     0.070 C 
HETATM   17  C   UNL     1      44.068  -8.584  -1.200  1.00  0.00     0.019 C 
HETATM   18  C   UNL     1      42.620  -9.321  -3.106  1.00  0.00     0.019 C 
ENDBRANCH  13  16
ENDBRANCH   9  12
ENDBRANCH   5   6
ENDBRANCH   2   5
BRANCH   1  19
HETATM   19  C   UNL     1      42.098 -17.439   3.159  1.00  0.00     0.157 A 
HETATM   20  C   UNL     1      42.914 -18.607   3.075  1.00  0.00     0.029 A 
HETATM   21  C   UNL     1      43.040 -19.695   2.187  1.00  0.00     0.023 A 
HETATM   22  C   UNL     1      43.746 -18.549   4.185  1.00  0.00     0.063 A 
HETATM   23  C   UNL     1      44.000 -20.689   2.442  1.00  0.00    -0.061 A 
HETATM   24  C   UNL     1      44.154 -21.855   1.508  1.00  0.00     0.048 C 
HETATM   25  C   UNL     1      44.819 -20.592   3.574  1.00  0.00     0.009 A 
HETATM   26  C   UNL     1      44.709 -19.522   4.469  1.00  0.00     0.032 A 
HETATM   27  N   UNL     1      43.394 -17.403   4.839  1.00  0.00    -0.277 N 
HETATM   28  H   UNL     1      43.795 -17.038   5.696  1.00  0.00     0.189 HD
HETATM   29  N   UNL     1      42.408 -16.703   4.249  1.00  0.00    -0.168 NA
ENDBRANCH   1  19
TORSDOF 5
ENDMDL
MODEL 6
REMARK VINA RESULT:      -8.2      3.250      9.649
REMARK  5 active torsions:
REMARK  status: ('A' for Active; 'I' for Inactive)
REMARK    1  A    between atoms: C_9  and  C_10 
REMARK       I    between atoms: C_10  and  N_11 
REMARK    2  A    between atoms: N_11  and  C_12 
REMARK    3  A    between atoms: C_12  and  C_13 
REMARK    4  A    between atoms: C_16  and  N_17 
REMARK       I    between atoms: N_17  and  C_18 
REMARK    5  A    between atoms: C_18  and  C_19 
ROOT
HETATM    1  C   UNL     1      40.387 -10.685   8.126  1.00  0.00     0.273 C 
HETATM    2  N   UNL     1      40.654 -11.905   7.546  1.00  0.00    -0.351 N 
HETATM    3  O   UNL     1      39.572  -9.889   7.665  1.00  0.00    -0.266 OA
HETATM    4  H   UNL     1      41.261 -12.524   8.076  1.00  0.00     0.163 HD
ENDROOT
BRANCH   2   5
HETATM    5  C   UNL     1      39.866 -12.399   6.452  1.00  0.00     0.161 C 
BRANCH   5   6
HETATM    6  C   UNL     1      40.614 -13.431   5.654  1.00  0.00    -0.040 A 
HETATM    7  C   UNL     1      39.930 -14.312   4.808  1.00  0.00     0.011 A 
HETATM    8  C   UNL     1      40.625 -15.268   4.059  1.00  0.00     0.030 A 
HETATM    9  C   UNL     1      42.014 -15.365   4.144  1.00  0.00     0.034 A 
HETATM   10  C   UNL     1      42.697 -14.499   5.008  1.00  0.00     0.030 A 
HETATM   11  C   UNL     1      42.005 -13.545   5.760  1.00  0.00     0.011 A 
BRANCH   9  12
HETATM   12  N   UNL     1      42.791 -16.283   3.407  1.00  0.00    -0.327 N 
HETATM   13  C   UNL     1      42.941 -17.642   3.634  1.00  0.00     0.225 C 
HETATM   14  O   UNL     1      42.419 -18.285   4.539  1.00  0.00    -0.273 OA
HETATM   15  H   UNL     1      43.279 -15.900   2.608  1.00  0.00     0.169 HD
BRANCH  13  16
HETATM   16  C   UNL     1      43.857 -18.308   2.600  1.00  0.00     0.070 C 
HETATM   17  C   UNL     1      43.243 -19.610   2.088  1.00  0.00     0.019 C 
HETATM   18  C   UNL     1      44.142 -17.366   1.430  1.00  0.00     0.019 C 
ENDBRANCH  13  16
ENDBRANCH   9  12
ENDBRANCH   5   6
ENDBRANCH   2   5
BRANCH   1  19
HETATM   19  C   UNL     1      41.155 -10.440   9.356  1.00  0.00     0.157 A 
HETATM   20  C   UNL     1      42.528 -10.748   9.592  1.00  0.00     0.029 A 
HETATM   21  C   UNL     1      43.577 -11.339   8.859  1.00  0.00     0.023 A 
HETATM   22  C   UNL     1      42.780 -10.313  10.888  1.00  0.00     0.063 A 
HETATM   23  C   UNL     1      44.845 -11.473   9.447  1.00  0.00    -0.061 A 
HETATM   24  C   UNL     1      45.977 -12.096   8.683  1.00  0.00     0.048 C 
HETATM   25  C   UNL     1      45.056 -11.021  10.757  1.00  0.00     0.009 A 
HETATM   26  C   UNL     1      44.029 -10.433  11.503  1.00  0.00     0.032 A 
HETATM   27  N   UNL     1      41.595  -9.795  11.329  1.00  0.00    -0.277 N 
HETATM   28  H   UNL     1      41.408  -9.383  12.236  1.00  0.00     0.189 HD
HETATM   29  N   UNL     1      40.594  -9.848  10.434  1.00  0.00    -0.168 NA
ENDBRANCH   1  19
TORSDOF 5
ENDMDL
MODEL 7
REMARK VINA RESULT:      -8.1      5.044      6.164
REMARK  5 active torsions:
REMARK  status: ('A' for Active; 'I' for Inactive)
REMARK    1  A    between atoms: C_9  and  C_10 
REMARK       I    between atoms: C_10  and  N_11 
REMARK    2  A    between atoms: N_11  and  C_12 
REMARK    3  A    between atoms: C_12  and  C_13 
REMARK    4  A    between atoms: C_16  and  N_17 
REMARK       I    between atoms: N_17  and  C_18 
REMARK    5  A    between atoms: C_18  and  C_19 
ROOT
HETATM    1  C   UNL     1      44.118 -20.138   6.788  1.00  0.00     0.273 C 
HETATM    2  N   UNL     1      44.530 -18.837   6.599  1.00  0.00    -0.351 N 
HETATM    3  O   UNL     1      43.599 -20.530   7.831  1.00  0.00    -0.266 OA
HETATM    4  H   UNL     1      44.840 -18.603   5.660  1.00  0.00     0.163 HD
ENDROOT
BRANCH   2   5
HETATM    5  C   UNL     1      44.223 -17.811   7.556  1.00  0.00     0.161 C 
BRANCH   5   6
HETATM    6  C   UNL     1      43.577 -16.622   6.901  1.00  0.00    -0.040 A 
HETATM    7  C   UNL     1      44.243 -15.391   6.844  1.00  0.00     0.011 A 
HETATM    8  C   UNL     1      43.647 -14.284   6.228  1.00  0.00     0.030 A 
HETATM    9  C   UNL     1      42.375 -14.384   5.664  1.00  0.00     0.034 A 
HETATM   10  C   UNL     1      41.700 -15.609   5.742  1.00  0.00     0.030 A 
HETATM   11  C   UNL     1      42.291 -16.715   6.359  1.00  0.00     0.011 A 
BRANCH   9  12
HETATM   12  N   UNL     1      41.715 -13.326   5.006  1.00  0.00    -0.327 N 
HETATM   13  C   UNL     1      40.745 -12.480   5.521  1.00  0.00     0.225 C 
HETATM   14  O   UNL     1      40.283 -12.519   6.657  1.00  0.00    -0.273 OA
HETATM   15  H   UNL     1      42.002 -13.158   4.051  1.00  0.00     0.169 HD
BRANCH  13  16
HETATM   16  C   UNL     1      40.281 -11.436   4.499  1.00  0.00     0.070 C 
HETATM   17  C   UNL     1      38.756 -11.413   4.399  1.00  0.00     0.019 C 
HETATM   18  C   UNL     1      40.805 -10.045   4.856  1.00  0.00     0.019 C 
ENDBRANCH  13  16
ENDBRANCH   9  12
ENDBRANCH   5   6
ENDBRANCH   2   5
BRANCH   1  19
HETATM   19  C   UNL     1      44.339 -20.999   5.617  1.00  0.00     0.157 A 
HETATM   20  C   UNL     1      44.205 -20.638   4.243  1.00  0.00     0.029 A 
HETATM   21  C   UNL     1      43.850 -19.476   3.528  1.00  0.00     0.023 A 
HETATM   22  C   UNL     1      44.533 -21.787   3.532  1.00  0.00     0.063 A 
HETATM   23  C   UNL     1      43.836 -19.503   2.123  1.00  0.00    -0.061 A 
HETATM   24  C   UNL     1      43.464 -18.276   1.342  1.00  0.00     0.048 C 
HETATM   25  C   UNL     1      44.173 -20.684   1.447  1.00  0.00     0.009 A 
HETATM   26  C   UNL     1      44.527 -21.848   2.137  1.00  0.00     0.032 A 
HETATM   27  N   UNL     1      44.828 -22.724   4.482  1.00  0.00    -0.277 N 
HETATM   28  H   UNL     1      45.111 -23.685   4.326  1.00  0.00     0.189 HD
HETATM   29  N   UNL     1      44.728 -22.287   5.750  1.00  0.00    -0.168 NA
ENDBRANCH   1  19
TORSDOF 5
ENDMDL
MODEL 8
REMARK VINA RESULT:      -8.0      4.875      6.963
REMARK  5 active torsions:
REMARK  status: ('A' for Active; 'I' for Inactive)
REMARK    1  A    between atoms: C_9  and  C_10 
REMARK       I    between atoms: C_10  and  N_11 
REMARK    2  A    between atoms: N_11  and  C_12 
REMARK    3  A    between atoms: C_12  and  C_13 
REMARK    4  A    between atoms: C_16  and  N_17 
REMARK       I    between atoms: N_17  and  C_18 
REMARK    5  A    between atoms: C_18  and  C_19 
ROOT
HETATM    1  C   UNL     1      43.418 -17.292   6.825  1.00  0.00     0.273 C 
HETATM    2  N   UNL     1      44.245 -16.235   6.517  1.00  0.00    -0.351 N 
HETATM    3  O   UNL     1      42.462 -17.193   7.592  1.00  0.00    -0.266 OA
HETATM    4  H   UNL     1      44.930 -16.406   5.787  1.00  0.00     0.163 HD
ENDROOT
BRANCH   2   5
HETATM    5  C   UNL     1      43.938 -14.898   6.946  1.00  0.00     0.161 C 
BRANCH   5   6
HETATM    6  C   UNL     1      43.322 -14.091   5.838  1.00  0.00    -0.040 A 
HETATM    7  C   UNL     1      42.407 -13.071   6.122  1.00  0.00     0.011 A 
HETATM    8  C   UNL     1      41.838 -12.312   5.093  1.00  0.00     0.030 A 
HETATM    9  C   UNL     1      42.169 -12.561   3.761  1.00  0.00     0.034 A 
HETATM   10  C   UNL     1      43.068 -13.596   3.474  1.00  0.00     0.030 A 
HETATM   11  C   UNL     1      43.635 -14.358   4.501  1.00  0.00     0.011 A 
BRANCH   9  12
HETATM   12  N   UNL     1      41.661 -11.829   2.668  1.00  0.00    -0.327 N 
HETATM   13  C   UNL     1      40.535 -12.109   1.909  1.00  0.00     0.225 C 
HETATM   14  O   UNL     1      39.783 -13.067   2.060  1.00  0.00    -0.273 OA
HETATM   15  H   UNL     1      42.173 -10.991   2.427  1.00  0.00     0.169 HD
BRANCH  13  16
HETATM   16  C   UNL     1      40.295 -11.063   0.815  1.00  0.00     0.070 C 
HETATM   17  C   UNL     1      39.259 -10.034   1.263  1.00  0.00     0.019 C 
HETATM   18  C   UNL     1      41.597 -10.363   0.428  1.00  0.00     0.019 C 
ENDBRANCH  13  16
ENDBRANCH   9  12
ENDBRANCH   5   6
ENDBRANCH   2   5
BRANCH   1  19
HETATM   19  C   UNL     1      43.777 -18.538   6.132  1.00  0.00     0.157 A 
HETATM   20  C   UNL     1      43.890 -18.741   4.724  1.00  0.00     0.029 A 
HETATM   21  C   UNL     1      43.724 -17.952   3.568  1.00  0.00     0.023 A 
HETATM   22  C   UNL     1      44.263 -20.071   4.578  1.00  0.00     0.063 A 
HETATM   23  C   UNL     1      43.938 -18.522   2.302  1.00  0.00    -0.061 A 
HETATM   24  C   UNL     1      43.770 -17.699   1.058  1.00  0.00     0.048 C 
HETATM   25  C   UNL     1      44.313 -19.869   2.200  1.00  0.00     0.009 A 
HETATM   26  C   UNL     1      44.482 -20.670   3.334  1.00  0.00     0.032 A 
HETATM   27  N   UNL     1      44.345 -20.563   5.850  1.00  0.00    -0.277 N 
HETATM   28  H   UNL     1      44.595 -21.506   6.127  1.00  0.00     0.189 HD
HETATM   29  N   UNL     1      44.065 -19.669   6.814  1.00  0.00    -0.168 NA
ENDBRANCH   1  19
TORSDOF 5
ENDMDL
MODEL 9
REMARK VINA RESULT:      -8.0      2.448     10.029
REMARK  5 active torsions:
REMARK  status: ('A' for Active; 'I' for Inactive)
REMARK    1  A    between atoms: C_9  and  C_10 
REMARK       I    between atoms: C_10  and  N_11 
REMARK    2  A    between atoms: N_11  and  C_12 
REMARK    3  A    between atoms: C_12  and  C_13 
REMARK    4  A    between atoms: C_16  and  N_17 
REMARK       I    between atoms: N_17  and  C_18 
REMARK    5  A    between atoms: C_18  and  C_19 
ROOT
HETATM    1  C   UNL     1      44.706 -12.915   8.302  1.00  0.00     0.273 C 
HETATM    2  N   UNL     1      43.757 -13.504   7.497  1.00  0.00    -0.351 N 
HETATM    3  O   UNL     1      45.873 -12.754   7.952  1.00  0.00    -0.266 OA
HETATM    4  H   UNL     1      42.803 -13.482   7.848  1.00  0.00     0.163 HD
ENDROOT
BRANCH   2   5
HETATM    5  C   UNL     1      44.034 -13.817   6.123  1.00  0.00     0.161 C 
BRANCH   5   6
HETATM    6  C   UNL     1      43.968 -15.297   5.870  1.00  0.00    -0.040 A 
HETATM    7  C   UNL     1      43.211 -15.806   4.808  1.00  0.00     0.011 A 
HETATM    8  C   UNL     1      43.153 -17.183   4.565  1.00  0.00     0.030 A 
HETATM    9  C   UNL     1      43.847 -18.078   5.382  1.00  0.00     0.034 A 
HETATM   10  C   UNL     1      44.586 -17.571   6.458  1.00  0.00     0.030 A 
HETATM   11  C   UNL     1      44.642 -16.196   6.705  1.00  0.00     0.011 A 
BRANCH   9  12
HETATM   12  N   UNL     1      43.861 -19.475   5.192  1.00  0.00    -0.327 N 
HETATM   13  C   UNL     1      44.505 -20.189   4.194  1.00  0.00     0.225 C 
HETATM   14  O   UNL     1      45.176 -19.713   3.284  1.00  0.00    -0.273 OA
HETATM   15  H   UNL     1      43.355 -20.015   5.882  1.00  0.00     0.169 HD
BRANCH  13  16
HETATM   16  C   UNL     1      44.301 -21.702   4.336  1.00  0.00     0.070 C 
HETATM   17  C   UNL     1      44.428 -22.398   2.982  1.00  0.00     0.019 C 
HETATM   18  C   UNL     1      45.296 -22.301   5.330  1.00  0.00     0.019 C 
ENDBRANCH  13  16
ENDBRANCH   9  12
ENDBRANCH   5   6
ENDBRANCH   2   5
BRANCH   1  19
HETATM   19  C   UNL     1      44.182 -12.481   9.606  1.00  0.00     0.157 A 
HETATM   20  C   UNL     1      43.251 -11.428   9.855  1.00  0.00     0.029 A 
HETATM   21  C   UNL     1      42.547 -10.489   9.074  1.00  0.00     0.023 A 
HETATM   22  C   UNL     1      43.068 -11.424  11.232  1.00  0.00     0.063 A 
HETATM   23  C   UNL     1      41.681  -9.577   9.699  1.00  0.00    -0.061 A 
HETATM   24  C   UNL     1      40.919  -8.571   8.886  1.00  0.00     0.048 C 
HETATM   25  C   UNL     1      41.527  -9.607  11.092  1.00  0.00     0.009 A 
HETATM   26  C   UNL     1      42.216 -10.530  11.886  1.00  0.00     0.032 A 
HETATM   27  N   UNL     1      43.865 -12.429  11.704  1.00  0.00    -0.277 N 
HETATM   28  H   UNL     1      43.983 -12.715  12.669  1.00  0.00     0.189 HD
HETATM   29  N   UNL     1      44.548 -13.092  10.754  1.00  0.00    -0.168 NA
ENDBRANCH   1  19
TORSDOF 5
ENDMDL
MODEL 10
REMARK VINA RESULT:      -8.0      2.857      9.812
REMARK  5 active torsions:
REMARK  status: ('A' for Active; 'I' for Inactive)
REMARK    1  A    between atoms: C_9  and  C_10 
REMARK       I    between atoms: C_10  and  N_11 
REMARK    2  A    between atoms: N_11  and  C_12 
REMARK    3  A    between atoms: C_12  and  C_13 
REMARK    4  A    between atoms: C_16  and  N_17 
REMARK       I    between atoms: N_17  and  C_18 
REMARK    5  A    between atoms: C_18  and  C_19 
ROOT
HETATM    1  C   UNL     1      40.899 -11.257   7.036  1.00  0.00     0.273 C 
HETATM    2  N   UNL     1      40.303 -12.499   7.062  1.00  0.00    -0.351 N 
HETATM    3  O   UNL     1      41.332 -10.744   6.006  1.00  0.00    -0.266 OA
HETATM    4  H   UNL     1      39.884 -12.770   7.947  1.00  0.00     0.163 HD
ENDROOT
BRANCH   2   5
HETATM    5  C   UNL     1      39.996 -13.204   5.849  1.00  0.00     0.161 C 
BRANCH   5   6
HETATM    6  C   UNL     1      40.938 -14.355   5.627  1.00  0.00    -0.040 A 
HETATM    7  C   UNL     1      42.177 -14.152   5.007  1.00  0.00     0.011 A 
HETATM    8  C   UNL     1      43.059 -15.220   4.805  1.00  0.00     0.030 A 
HETATM    9  C   UNL     1      42.718 -16.510   5.214  1.00  0.00     0.034 A 
HETATM   10  C   UNL     1      41.470 -16.717   5.813  1.00  0.00     0.030 A 
HETATM   11  C   UNL     1      40.585 -15.652   6.013  1.00  0.00     0.011 A 
BRANCH   9  12
HETATM   12  N   UNL     1      43.557 -17.634   5.070  1.00  0.00    -0.327 N 
HETATM   13  C   UNL     1      43.493 -18.622   4.100  1.00  0.00     0.225 C 
HETATM   14  O   UNL     1      42.670 -18.689   3.192  1.00  0.00    -0.273 OA
HETATM   15  H   UNL     1      44.305 -17.711   5.747  1.00  0.00     0.169 HD
BRANCH  13  16
HETATM   16  C   UNL     1      44.597 -19.673   4.265  1.00  0.00     0.070 C 
HETATM   17  C   UNL     1      44.418 -20.449   5.569  1.00  0.00     0.019 C 
HETATM   18  C   UNL     1      44.622 -20.637   3.079  1.00  0.00     0.019 C 
ENDBRANCH  13  16
ENDBRANCH   9  12
ENDBRANCH   5   6
ENDBRANCH   2   5
BRANCH   1  19
HETATM   19  C   UNL     1      40.946 -10.602   8.352  1.00  0.00     0.157 A 
HETATM   20  C   UNL     1      42.056 -10.540   9.246  1.00  0.00     0.029 A 
HETATM   21  C   UNL     1      43.383 -11.016   9.252  1.00  0.00     0.023 A 
HETATM   22  C   UNL     1      41.603  -9.806  10.336  1.00  0.00     0.063 A 
HETATM   23  C   UNL     1      44.214 -10.739  10.351  1.00  0.00    -0.061 A 
HETATM   24  C   UNL     1      45.631 -11.234  10.376  1.00  0.00     0.048 C 
HETATM   25  C   UNL     1      43.716  -9.996  11.429  1.00  0.00     0.009 A 
HETATM   26  C   UNL     1      42.402  -9.515  11.444  1.00  0.00     0.032 A 
HETATM   27  N   UNL     1      40.307  -9.489  10.042  1.00  0.00    -0.277 N 
HETATM   28  H   UNL     1      39.663  -8.954  10.614  1.00  0.00     0.189 HD
HETATM   29  N   UNL     1      39.876  -9.945   8.853  1.00  0.00    -0.168 NA
ENDBRANCH   1  19
TORSDOF 5
ENDMDL
