MODEL 1
REMARK VINA RESULT:      -9.1      0.000      0.000
REMARK  6 active torsions:
REMARK  status: ('A' for Active; 'I' for Inactive)
REMARK    1  A    between atoms: C_4  and  C_5 
REMARK    2  A    between atoms: C_5  and  N_6 
REMARK    3  A    between atoms: C_5  and  C_20 
REMARK       I    between atoms: N_6  and  C_7 
REMARK    4  A    between atoms: C_7  and  C_8 
REMARK    5  A    between atoms: C_8  and  N_9 
REMARK    6  A    between atoms: C_21  and  O_22 
ROOT
HETATM    1  C   UNL     1      40.823 -14.846   0.405  1.00  0.00     0.154 C 
ENDROOT
BRANCH   1   2
HETATM    2  C   UNL     1      40.261 -13.843   1.416  1.00  0.00    -0.031 A 
HETATM    3  C   UNL     1      40.864 -13.614   2.665  1.00  0.00     0.009 A 
HETATM    4  C   UNL     1      40.312 -12.703   3.571  1.00  0.00     0.001 A 
HETATM    5  C   UNL     1      39.140 -12.022   3.256  1.00  0.00     0.000 A 
HETATM    6  C   UNL     1      38.509 -12.257   2.039  1.00  0.00     0.001 A 
HETATM    7  C   UNL     1      39.058 -13.166   1.133  1.00  0.00     0.009 A 
ENDBRANCH   1   2
BRANCH   1   8
HETATM    8  N   UNL     1      41.963 -15.607   0.892  1.00  0.00    -0.347 N 
HETATM    9  C   UNL     1      41.927 -16.980   0.970  1.00  0.00     0.236 C 
HETATM   10  O   UNL     1      40.904 -17.620   0.714  1.00  0.00    -0.272 OA
HETATM   11  H   UNL     1      42.878 -15.172   0.790  1.00  0.00     0.163 HD
BRANCH   9  12
HETATM   12  C   UNL     1      43.277 -17.679   1.180  1.00  0.00     0.236 C 
BRANCH  12  13
HETATM   13  N   UNL     1      43.483 -18.269   2.484  1.00  0.00    -0.289 N 
HETATM   14  C   UNL     1      43.714 -17.534   3.662  1.00  0.00     0.328 A 
HETATM   15  O   UNL     1      43.564 -16.332   3.812  1.00  0.00    -0.247 OA
HETATM   16  N   UNL     1      44.138 -18.441   4.637  1.00  0.00    -0.306 N 
HETATM   17  C   UNL     1      44.237 -19.702   4.064  1.00  0.00     0.063 A 
HETATM   18  H   UNL     1      44.390 -18.181   5.577  1.00  0.00     0.171 HD
HETATM   19  C   UNL     1      43.841 -19.608   2.727  1.00  0.00     0.066 A 
HETATM   20  C   UNL     1      44.681 -20.875   4.631  1.00  0.00     0.032 A 
HETATM   21  C   UNL     1      43.875 -20.708   1.897  1.00  0.00     0.032 A 
HETATM   22  C   UNL     1      44.325 -21.915   2.450  1.00  0.00     0.002 A 
HETATM   23  C   UNL     1      44.724 -21.997   3.800  1.00  0.00     0.002 A 
ENDBRANCH  12  13
ENDBRANCH   9  12
ENDBRANCH   1   8
BRANCH   1  24
HETATM   24  C   UNL     1      41.156 -14.258  -0.974  1.00  0.00     0.013 A 
HETATM   25  C   UNL     1      40.824 -15.004  -2.123  1.00  0.00     0.075 A 
HETATM   26  C   UNL     1      40.962 -14.479  -3.400  1.00  0.00     0.038 A 
HETATM   27  C   UNL     1      41.490 -13.207  -3.569  1.00  0.00     0.015 A 
HETATM   28  C   UNL     1      41.913 -12.454  -2.466  1.00  0.00    -0.025 A 
HETATM   29  C   UNL     1      41.767 -12.971  -1.149  1.00  0.00    -0.015 A 
HETATM   30  C   UNL     1      42.481 -11.187  -2.679  1.00  0.00     0.012 A 
HETATM   31  C   UNL     1      42.249 -12.154  -0.096  1.00  0.00     0.013 A 
HETATM   32  C   UNL     1      42.821 -10.899  -0.322  1.00  0.00     0.001 A 
HETATM   33  C   UNL     1      42.932 -10.412  -1.614  1.00  0.00     0.001 A 
BRANCH  25  34
HETATM   34  O   UNL     1      40.365 -16.292  -2.058  1.00  0.00    -0.360 OA
HETATM   35  H   UNL     1      40.678 -16.764  -2.863  1.00  0.00     0.217 HD
ENDBRANCH  25  34
ENDBRANCH   1  24
TORSDOF 6
ENDMDL
MODEL 2
REMARK VINA RESULT:      -9.0      1.578      2.762
REMARK  6 active torsions:
REMARK  status: ('A' for Active; 'I' for Inactive)
REMARK    1  A    between atoms: C_4  and  C_5 
REMARK    2  A    between atoms: C_5  and  N_6 
REMARK    3  A    between atoms: C_5  and  C_20 
REMARK       I    between atoms: N_6  and  C_7 
REMARK    4  A    between atoms: C_7  and  C_8 
REMARK    5  A    between atoms: C_8  and  N_9 
REMARK    6  A    between atoms: C_21  and  O_22 
ROOT
HETATM    1  C   UNL     1      40.572 -14.511   2.079  1.00  0.00     0.154 C 
ENDROOT
BRANCH   1   2
HETATM    2  C   UNL     1      40.139 -13.880   3.406  1.00  0.00    -0.031 A 
HETATM    3  C   UNL     1      39.423 -12.671   3.468  1.00  0.00     0.009 A 
HETATM    4  C   UNL     1      39.061 -12.116   4.698  1.00  0.00     0.001 A 
HETATM    5  C   UNL     1      39.423 -12.744   5.887  1.00  0.00     0.000 A 
HETATM    6  C   UNL     1      40.159 -13.925   5.849  1.00  0.00     0.001 A 
HETATM    7  C   UNL     1      40.522 -14.481   4.621  1.00  0.00     0.009 A 
ENDBRANCH   1   2
BRANCH   1   8
HETATM    8  N   UNL     1      41.698 -15.425   2.194  1.00  0.00    -0.347 N 
HETATM    9  C   UNL     1      41.590 -16.745   1.822  1.00  0.00     0.236 C 
HETATM   10  O   UNL     1      40.516 -17.232   1.457  1.00  0.00    -0.272 OA
HETATM   11  H   UNL     1      42.627 -15.009   2.163  1.00  0.00     0.163 HD
BRANCH   9  12
HETATM   12  C   UNL     1      42.909 -17.516   1.678  1.00  0.00     0.236 C 
BRANCH  12  13
HETATM   13  N   UNL     1      43.307 -18.299   2.826  1.00  0.00    -0.289 N 
HETATM   14  C   UNL     1      43.730 -17.753   4.053  1.00  0.00     0.328 A 
HETATM   15  O   UNL     1      43.624 -16.591   4.409  1.00  0.00    -0.247 OA
HETATM   16  N   UNL     1      44.287 -18.796   4.798  1.00  0.00    -0.306 N 
HETATM   17  C   UNL     1      44.276 -19.952   4.027  1.00  0.00     0.063 A 
HETATM   18  H   UNL     1      44.688 -18.683   5.715  1.00  0.00     0.171 HD
HETATM   19  C   UNL     1      43.678 -19.656   2.800  1.00  0.00     0.066 A 
HETATM   20  C   UNL     1      44.786 -21.195   4.330  1.00  0.00     0.032 A 
HETATM   21  C   UNL     1      43.565 -20.613   1.814  1.00  0.00     0.032 A 
HETATM   22  C   UNL     1      44.077 -21.887   2.096  1.00  0.00     0.002 A 
HETATM   23  C   UNL     1      44.682 -22.174   3.339  1.00  0.00     0.002 A 
ENDBRANCH  12  13
ENDBRANCH   9  12
ENDBRANCH   1   8
BRANCH   1  24
HETATM   24  C   UNL     1      40.843 -13.511   0.944  1.00  0.00     0.013 A 
HETATM   25  C   UNL     1      42.009 -12.723   1.005  1.00  0.00     0.075 A 
HETATM   26  C   UNL     1      42.395 -11.906  -0.048  1.00  0.00     0.038 A 
HETATM   27  C   UNL     1      41.591 -11.809  -1.175  1.00  0.00     0.015 A 
HETATM   28  C   UNL     1      40.379 -12.508  -1.253  1.00  0.00    -0.025 A 
HETATM   29  C   UNL     1      39.975 -13.360  -0.190  1.00  0.00    -0.015 A 
HETATM   30  C   UNL     1      39.571 -12.354  -2.393  1.00  0.00     0.012 A 
HETATM   31  C   UNL     1      38.721 -14.004  -0.340  1.00  0.00     0.013 A 
HETATM   32  C   UNL     1      37.923 -13.834  -1.475  1.00  0.00     0.001 A 
HETATM   33  C   UNL     1      38.351 -13.013  -2.505  1.00  0.00     0.001 A 
BRANCH  25  34
HETATM   34  O   UNL     1      42.825 -12.697   2.104  1.00  0.00    -0.360 OA
HETATM   35  H   UNL     1      43.732 -12.465   1.800  1.00  0.00     0.217 HD
ENDBRANCH  25  34
ENDBRANCH   1  24
TORSDOF 6
ENDMDL
MODEL 3
REMARK VINA RESULT:      -8.7      1.841      4.295
REMARK  6 active torsions:
REMARK  status: ('A' for Active; 'I' for Inactive)
REMARK    1  A    between atoms: C_4  and  C_5 
REMARK    2  A    between atoms: C_5  and  N_6 
REMARK    3  A    between atoms: C_5  and  C_20 
REMARK       I    between atoms: N_6  and  C_7 
REMARK    4  A    between atoms: C_7  and  C_8 
REMARK    5  A    between atoms: C_8  and  N_9 
REMARK    6  A    between atoms: C_21  and  O_22 
ROOT
HETATM    1  C   UNL     1      41.618 -14.297   0.843  1.00  0.00     0.154 C 
ENDROOT
BRANCH   1   2
HETATM    2  C   UNL     1      41.503 -14.381  -0.682  1.00  0.00    -0.031 A 
HETATM    3  C   UNL     1      41.045 -15.536  -1.340  1.00  0.00     0.009 A 
HETATM    4  C   UNL     1      40.971 -15.584  -2.735  1.00  0.00     0.001 A 
HETATM    5  C   UNL     1      41.370 -14.489  -3.498  1.00  0.00     0.000 A 
HETATM    6  C   UNL     1      41.857 -13.348  -2.868  1.00  0.00     0.001 A 
HETATM    7  C   UNL     1      41.932 -13.299  -1.475  1.00  0.00     0.009 A 
ENDBRANCH   1   2
BRANCH   1   8
HETATM    8  N   UNL     1      41.294 -15.536   1.534  1.00  0.00    -0.347 N 
HETATM    9  C   UNL     1      42.090 -16.021   2.546  1.00  0.00     0.236 C 
HETATM   10  O   UNL     1      43.154 -15.476   2.855  1.00  0.00    -0.272 OA
HETATM   11  H   UNL     1      40.313 -15.808   1.544  1.00  0.00     0.163 HD
BRANCH   9  12
HETATM   12  C   UNL     1      41.482 -17.136   3.407  1.00  0.00     0.236 C 
BRANCH  12  13
HETATM   13  N   UNL     1      42.428 -18.033   4.032  1.00  0.00    -0.289 N 
HETATM   14  C   UNL     1      43.093 -17.768   5.244  1.00  0.00     0.328 A 
HETATM   15  O   UNL     1      42.830 -16.883   6.042  1.00  0.00    -0.247 OA
HETATM   16  N   UNL     1      44.112 -18.716   5.371  1.00  0.00    -0.306 N 
HETATM   17  C   UNL     1      44.127 -19.512   4.233  1.00  0.00     0.063 A 
HETATM   18  H   UNL     1      44.759 -18.749   6.143  1.00  0.00     0.171 HD
HETATM   19  C   UNL     1      43.093 -19.095   3.392  1.00  0.00     0.066 A 
HETATM   20  C   UNL     1      45.001 -20.522   3.899  1.00  0.00     0.032 A 
HETATM   21  C   UNL     1      42.893 -19.686   2.163  1.00  0.00     0.032 A 
HETATM   22  C   UNL     1      43.770 -20.717   1.798  1.00  0.00     0.002 A 
HETATM   23  C   UNL     1      44.812 -21.129   2.655  1.00  0.00     0.002 A 
ENDBRANCH  12  13
ENDBRANCH   9  12
ENDBRANCH   1   8
BRANCH   1  24
HETATM   24  C   UNL     1      40.844 -13.138   1.488  1.00  0.00     0.013 A 
HETATM   25  C   UNL     1      41.530 -12.273   2.363  1.00  0.00     0.075 A 
HETATM   26  C   UNL     1      40.939 -11.124   2.869  1.00  0.00     0.038 A 
HETATM   27  C   UNL     1      39.617 -10.836   2.558  1.00  0.00     0.015 A 
HETATM   28  C   UNL     1      38.863 -11.704   1.759  1.00  0.00    -0.025 A 
HETATM   29  C   UNL     1      39.457 -12.879   1.221  1.00  0.00    -0.015 A 
HETATM   30  C   UNL     1      37.516 -11.401   1.499  1.00  0.00     0.012 A 
HETATM   31  C   UNL     1      38.612 -13.715   0.450  1.00  0.00     0.013 A 
HETATM   32  C   UNL     1      37.270 -13.406   0.207  1.00  0.00     0.001 A 
HETATM   33  C   UNL     1      36.723 -12.245   0.727  1.00  0.00     0.001 A 
BRANCH  25  34
HETATM   34  O   UNL     1      42.811 -12.514   2.783  1.00  0.00    -0.360 OA
HETATM   35  H   UNL     1      42.891 -13.478   2.965  1.00  0.00     0.217 HD
ENDBRANCH  25  34
ENDBRANCH   1  24
TORSDOF 6
ENDMDL
MODEL 4
REMARK VINA RESULT:      -8.6      2.536      5.079
REMARK  6 active torsions:
REMARK  status: ('A' for Active; 'I' for Inactive)
REMARK    1  A    between atoms: C_4  and  C_5 
REMARK    2  A    between atoms: C_5  and  N_6 
REMARK    3  A    between atoms: C_5  and  C_20 
REMARK       I    between atoms: N_6  and  C_7 
REMARK    4  A    between atoms: C_7  and  C_8 
REMARK    5  A    between atoms: C_8  and  N_9 
REMARK    6  A    between atoms: C_21  and  O_22 
ROOT
HETATM    1  C   UNL     1      40.469 -12.738  -1.773  1.00  0.00     0.154 C 
ENDROOT
BRANCH   1   2
HETATM    2  C   UNL     1      41.298 -11.718  -2.558  1.00  0.00    -0.031 A 
HETATM    3  C   UNL     1      41.757 -10.519  -1.985  1.00  0.00     0.009 A 
HETATM    4  C   UNL     1      42.496  -9.602  -2.738  1.00  0.00     0.001 A 
HETATM    5  C   UNL     1      42.772  -9.855  -4.079  1.00  0.00     0.000 A 
HETATM    6  C   UNL     1      42.301 -11.021  -4.675  1.00  0.00     0.001 A 
HETATM    7  C   UNL     1      41.562 -11.937  -3.924  1.00  0.00     0.009 A 
ENDBRANCH   1   2
BRANCH   1   8
HETATM    8  N   UNL     1      41.174 -13.344  -0.654  1.00  0.00    -0.347 N 
HETATM    9  C   UNL     1      40.970 -12.915   0.638  1.00  0.00     0.236 C 
HETATM   10  O   UNL     1      40.250 -11.946   0.896  1.00  0.00    -0.272 OA
HETATM   11  H   UNL     1      41.488 -14.304  -0.779  1.00  0.00     0.163 HD
BRANCH   9  12
HETATM   12  C   UNL     1      41.508 -13.831   1.746  1.00  0.00     0.236 C 
BRANCH  12  13
HETATM   13  N   UNL     1      41.223 -15.240   1.588  1.00  0.00    -0.289 N 
HETATM   14  C   UNL     1      39.956 -15.821   1.781  1.00  0.00     0.328 A 
HETATM   15  O   UNL     1      38.892 -15.232   1.889  1.00  0.00    -0.247 OA
HETATM   16  N   UNL     1      40.139 -17.206   1.816  1.00  0.00    -0.306 N 
HETATM   17  C   UNL     1      41.497 -17.481   1.717  1.00  0.00     0.063 A 
HETATM   18  H   UNL     1      39.395 -17.870   1.960  1.00  0.00     0.171 HD
HETATM   19  C   UNL     1      42.180 -16.270   1.583  1.00  0.00     0.066 A 
HETATM   20  C   UNL     1      42.136 -18.698   1.778  1.00  0.00     0.032 A 
HETATM   21  C   UNL     1      43.556 -16.236   1.503  1.00  0.00     0.032 A 
HETATM   22  C   UNL     1      44.233 -17.462   1.564  1.00  0.00     0.002 A 
HETATM   23  C   UNL     1      43.531 -18.679   1.701  1.00  0.00     0.002 A 
ENDBRANCH  12  13
ENDBRANCH   9  12
ENDBRANCH   1   8
BRANCH   1  24
HETATM   24  C   UNL     1      39.825 -13.843  -2.625  1.00  0.00     0.013 A 
HETATM   25  C   UNL     1      40.519 -15.058  -2.790  1.00  0.00     0.075 A 
HETATM   26  C   UNL     1      39.942 -16.150  -3.421  1.00  0.00     0.038 A 
HETATM   27  C   UNL     1      38.666 -16.040  -3.958  1.00  0.00     0.015 A 
HETATM   28  C   UNL     1      37.964 -14.831  -3.894  1.00  0.00    -0.025 A 
HETATM   29  C   UNL     1      38.535 -13.705  -3.239  1.00  0.00    -0.015 A 
HETATM   30  C   UNL     1      36.692 -14.745  -4.485  1.00  0.00     0.012 A 
HETATM   31  C   UNL     1      37.766 -12.514  -3.249  1.00  0.00     0.013 A 
HETATM   32  C   UNL     1      36.506 -12.440  -3.850  1.00  0.00     0.001 A 
HETATM   33  C   UNL     1      35.966 -13.558  -4.463  1.00  0.00     0.001 A 
BRANCH  25  34
HETATM   34  O   UNL     1      41.806 -15.235  -2.358  1.00  0.00    -0.360 OA
HETATM   35  H   UNL     1      42.129 -16.093  -2.718  1.00  0.00     0.217 HD
ENDBRANCH  25  34
ENDBRANCH   1  24
TORSDOF 6
ENDMDL
MODEL 5
REMARK VINA RESULT:      -8.5      1.404      2.411
REMARK  6 active torsions:
REMARK  status: ('A' for Active; 'I' for Inactive)
REMARK    1  A    between atoms: C_4  and  C_5 
REMARK    2  A    between atoms: C_5  and  N_6 
REMARK    3  A    between atoms: C_5  and  C_20 
REMARK       I    between atoms: N_6  and  C_7 
REMARK    4  A    between atoms: C_7  and  C_8 
REMARK    5  A    between atoms: C_8  and  N_9 
REMARK    6  A    between atoms: C_21  and  O_22 
ROOT
HETATM    1  C   UNL     1      40.851 -14.581   0.576  1.00  0.00     0.154 C 
ENDROOT
BRANCH   1   2
HETATM    2  C   UNL     1      40.031 -13.567   1.379  1.00  0.00    -0.031 A 
HETATM    3  C   UNL     1      40.393 -13.164   2.677  1.00  0.00     0.009 A 
HETATM    4  C   UNL     1      39.610 -12.250   3.387  1.00  0.00     0.001 A 
HETATM    5  C   UNL     1      38.443 -11.739   2.826  1.00  0.00     0.000 A 
HETATM    6  C   UNL     1      38.049 -12.149   1.556  1.00  0.00     0.001 A 
HETATM    7  C   UNL     1      38.830 -13.061   0.845  1.00  0.00     0.009 A 
ENDBRANCH   1   2
BRANCH   1   8
HETATM    8  N   UNL     1      42.032 -15.073   1.268  1.00  0.00    -0.347 N 
HETATM    9  C   UNL     1      42.303 -16.420   1.352  1.00  0.00     0.236 C 
HETATM   10  O   UNL     1      41.519 -17.270   0.922  1.00  0.00    -0.272 OA
HETATM   11  H   UNL     1      42.824 -14.436   1.328  1.00  0.00     0.163 HD
BRANCH   9  12
HETATM   12  C   UNL     1      43.720 -16.795   1.809  1.00  0.00     0.236 C 
BRANCH  12  13
HETATM   13  N   UNL     1      43.807 -17.505   3.065  1.00  0.00    -0.289 N 
HETATM   14  C   UNL     1      43.948 -18.901   3.182  1.00  0.00     0.328 A 
HETATM   15  O   UNL     1      44.230 -19.682   2.288  1.00  0.00    -0.247 OA
HETATM   16  N   UNL     1      43.713 -19.228   4.520  1.00  0.00    -0.306 N 
HETATM   17  C   UNL     1      43.365 -18.074   5.209  1.00  0.00     0.063 A 
HETATM   18  H   UNL     1      43.732 -20.168   4.882  1.00  0.00     0.171 HD
HETATM   19  C   UNL     1      43.413 -17.000   4.318  1.00  0.00     0.066 A 
HETATM   20  C   UNL     1      42.985 -17.937   6.525  1.00  0.00     0.032 A 
HETATM   21  C   UNL     1      43.075 -15.725   4.721  1.00  0.00     0.032 A 
HETATM   22  C   UNL     1      42.683 -15.558   6.056  1.00  0.00     0.002 A 
HETATM   23  C   UNL     1      42.637 -16.651   6.947  1.00  0.00     0.002 A 
ENDBRANCH  12  13
ENDBRANCH   9  12
ENDBRANCH   1   8
BRANCH   1  24
HETATM   24  C   UNL     1      41.245 -14.122  -0.837  1.00  0.00     0.013 A 
HETATM   25  C   UNL     1      40.968 -14.975  -1.924  1.00  0.00     0.075 A 
HETATM   26  C   UNL     1      41.161 -14.571  -3.237  1.00  0.00     0.038 A 
HETATM   27  C   UNL     1      41.692 -13.316  -3.501  1.00  0.00     0.015 A 
HETATM   28  C   UNL     1      42.061 -12.460  -2.456  1.00  0.00    -0.025 A 
HETATM   29  C   UNL     1      41.858 -12.852  -1.104  1.00  0.00    -0.015 A 
HETATM   30  C   UNL     1      42.634 -11.213  -2.761  1.00  0.00     0.012 A 
HETATM   31  C   UNL     1      42.288 -11.936  -0.112  1.00  0.00     0.013 A 
HETATM   32  C   UNL     1      42.866 -10.703  -0.429  1.00  0.00     0.001 A 
HETATM   33  C   UNL     1      43.033 -10.339  -1.755  1.00  0.00     0.001 A 
BRANCH  25  34
HETATM   34  O   UNL     1      40.511 -16.254  -1.759  1.00  0.00    -0.360 OA
HETATM   35  H   UNL     1      40.996 -16.652  -0.999  1.00  0.00     0.217 HD
ENDBRANCH  25  34
ENDBRANCH   1  24
TORSDOF 6
ENDMDL
MODEL 6
REMARK VINA RESULT:      -8.4      1.959      4.765
REMARK  6 active torsions:
REMARK  status: ('A' for Active; 'I' for Inactive)
REMARK    1  A    between atoms: C_4  and  C_5 
REMARK    2  A    between atoms: C_5  and  N_6 
REMARK    3  A    between atoms: C_5  and  C_20 
REMARK       I    between atoms: N_6  and  C_7 
REMARK    4  A    between atoms: C_7  and  C_8 
REMARK    5  A    between atoms: C_8  and  N_9 
REMARK    6  A    between atoms: C_21  and  O_22 
ROOT
HETATM    1  C   UNL     1      41.869 -14.591   0.762  1.00  0.00     0.154 C 
ENDROOT
BRANCH   1   2
HETATM    2  C   UNL     1      41.614 -14.573  -0.748  1.00  0.00    -0.031 A 
HETATM    3  C   UNL     1      41.114 -15.689  -1.441  1.00  0.00     0.009 A 
HETATM    4  C   UNL     1      40.912 -15.642  -2.824  1.00  0.00     0.001 A 
HETATM    5  C   UNL     1      41.223 -14.489  -3.540  1.00  0.00     0.000 A 
HETATM    6  C   UNL     1      41.748 -13.384  -2.878  1.00  0.00     0.001 A 
HETATM    7  C   UNL     1      41.951 -13.429  -1.498  1.00  0.00     0.009 A 
ENDBRANCH   1   2
BRANCH   1   8
HETATM    8  N   UNL     1      41.641 -15.885   1.388  1.00  0.00    -0.347 N 
HETATM    9  C   UNL     1      42.630 -16.518   2.105  1.00  0.00     0.236 C 
HETATM   10  O   UNL     1      43.775 -16.062   2.177  1.00  0.00    -0.272 OA
HETATM   11  H   UNL     1      40.677 -16.111   1.628  1.00  0.00     0.163 HD
BRANCH   9  12
HETATM   12  C   UNL     1      42.181 -17.696   2.980  1.00  0.00     0.236 C 
BRANCH  12  13
HETATM   13  N   UNL     1      43.157 -18.180   3.930  1.00  0.00    -0.289 N 
HETATM   14  C   UNL     1      44.003 -19.283   3.709  1.00  0.00     0.328 A 
HETATM   15  O   UNL     1      44.200 -19.848   2.646  1.00  0.00    -0.247 OA
HETATM   16  N   UNL     1      44.588 -19.607   4.936  1.00  0.00    -0.306 N 
HETATM   17  C   UNL     1      44.066 -18.771   5.915  1.00  0.00     0.063 A 
HETATM   18  H   UNL     1      45.227 -20.373   5.071  1.00  0.00     0.171 HD
HETATM   19  C   UNL     1      43.173 -17.886   5.306  1.00  0.00     0.066 A 
HETATM   20  C   UNL     1      44.303 -18.779   7.271  1.00  0.00     0.032 A 
HETATM   21  C   UNL     1      42.472 -16.960   6.049  1.00  0.00     0.032 A 
HETATM   22  C   UNL     1      42.694 -16.948   7.433  1.00  0.00     0.002 A 
HETATM   23  C   UNL     1      43.597 -17.847   8.037  1.00  0.00     0.002 A 
ENDBRANCH  12  13
ENDBRANCH   9  12
ENDBRANCH   1   8
BRANCH   1  24
HETATM   24  C   UNL     1      41.129 -13.505   1.557  1.00  0.00     0.013 A 
HETATM   25  C   UNL     1      41.841 -12.784   2.536  1.00  0.00     0.075 A 
HETATM   26  C   UNL     1      41.285 -11.695   3.192  1.00  0.00     0.038 A 
HETATM   27  C   UNL     1      39.973 -11.328   2.926  1.00  0.00     0.015 A 
HETATM   28  C   UNL     1      39.193 -12.060   2.022  1.00  0.00    -0.025 A 
HETATM   29  C   UNL     1      39.751 -13.171   1.331  1.00  0.00    -0.015 A 
HETATM   30  C   UNL     1      37.856 -11.684   1.808  1.00  0.00     0.012 A 
HETATM   31  C   UNL     1      38.881 -13.871   0.459  1.00  0.00     0.013 A 
HETATM   32  C   UNL     1      37.550 -13.492   0.263  1.00  0.00     0.001 A 
HETATM   33  C   UNL     1      37.039 -12.394   0.934  1.00  0.00     0.001 A 
BRANCH  25  34
HETATM   34  O   UNL     1      43.113 -13.118   2.917  1.00  0.00    -0.360 OA
HETATM   35  H   UNL     1      43.164 -14.099   2.970  1.00  0.00     0.217 HD
ENDBRANCH  25  34
ENDBRANCH   1  24
TORSDOF 6
ENDMDL
MODEL 7
REMARK VINA RESULT:      -8.3      2.590      4.798
REMARK  6 active torsions:
REMARK  status: ('A' for Active; 'I' for Inactive)
REMARK    1  A    between atoms: C_4  and  C_5 
REMARK    2  A    between atoms: C_5  and  N_6 
REMARK    3  A    between atoms: C_5  and  C_20 
REMARK       I    between atoms: N_6  and  C_7 
REMARK    4  A    between atoms: C_7  and  C_8 
REMARK    5  A    between atoms: C_8  and  N_9 
REMARK    6  A    between atoms: C_21  and  O_22 
ROOT
HETATM    1  C   UNL     1      40.276 -12.534  -0.817  1.00  0.00     0.154 C 
ENDROOT
BRANCH   1   2
HETATM    2  C   UNL     1      41.316 -11.505  -1.269  1.00  0.00    -0.031 A 
HETATM    3  C   UNL     1      42.423 -11.155  -0.476  1.00  0.00     0.009 A 
HETATM    4  C   UNL     1      43.342 -10.197  -0.913  1.00  0.00     0.001 A 
HETATM    5  C   UNL     1      43.163  -9.558  -2.137  1.00  0.00     0.000 A 
HETATM    6  C   UNL     1      42.057  -9.866  -2.923  1.00  0.00     0.001 A 
HETATM    7  C   UNL     1      41.137 -10.822  -2.488  1.00  0.00     0.009 A 
ENDBRANCH   1   2
BRANCH   1   8
HETATM    8  N   UNL     1      40.550 -13.126   0.483  1.00  0.00    -0.347 N 
HETATM    9  C   UNL     1      39.767 -12.843   1.579  1.00  0.00     0.236 C 
HETATM   10  O   UNL     1      38.856 -12.013   1.530  1.00  0.00    -0.272 OA
HETATM   11  H   UNL     1      41.042 -14.018   0.483  1.00  0.00     0.163 HD
BRANCH   9  12
HETATM   12  C   UNL     1      39.947 -13.764   2.793  1.00  0.00     0.236 C 
BRANCH  12  13
HETATM   13  N   UNL     1      41.250 -14.377   2.928  1.00  0.00    -0.289 N 
HETATM   14  C   UNL     1      42.399 -13.710   3.392  1.00  0.00     0.328 A 
HETATM   15  O   UNL     1      42.437 -12.621   3.941  1.00  0.00    -0.247 OA
HETATM   16  N   UNL     1      43.494 -14.534   3.116  1.00  0.00    -0.306 N 
HETATM   17  C   UNL     1      43.047 -15.658   2.433  1.00  0.00     0.063 A 
HETATM   18  H   UNL     1      44.448 -14.293   3.328  1.00  0.00     0.171 HD
HETATM   19  C   UNL     1      41.659 -15.570   2.304  1.00  0.00     0.066 A 
HETATM   20  C   UNL     1      43.783 -16.695   1.905  1.00  0.00     0.032 A 
HETATM   21  C   UNL     1      40.945 -16.537   1.629  1.00  0.00     0.032 A 
HETATM   22  C   UNL     1      41.671 -17.604   1.081  1.00  0.00     0.002 A 
HETATM   23  C   UNL     1      43.073 -17.681   1.216  1.00  0.00     0.002 A 
ENDBRANCH  12  13
ENDBRANCH   9  12
ENDBRANCH   1   8
BRANCH   1  24
HETATM   24  C   UNL     1      39.985 -13.651  -1.832  1.00  0.00     0.013 A 
HETATM   25  C   UNL     1      40.885 -14.731  -1.922  1.00  0.00     0.075 A 
HETATM   26  C   UNL     1      40.617 -15.843  -2.708  1.00  0.00     0.038 A 
HETATM   27  C   UNL     1      39.461 -15.881  -3.474  1.00  0.00     0.015 A 
HETATM   28  C   UNL     1      38.572 -14.799  -3.486  1.00  0.00    -0.025 A 
HETATM   29  C   UNL     1      38.824 -13.658  -2.676  1.00  0.00    -0.015 A 
HETATM   30  C   UNL     1      37.432 -14.857  -4.306  1.00  0.00     0.012 A 
HETATM   31  C   UNL     1      37.887 -12.598  -2.773  1.00  0.00     0.013 A 
HETATM   32  C   UNL     1      36.763 -12.665  -3.601  1.00  0.00     0.001 A 
HETATM   33  C   UNL     1      36.532 -13.798  -4.363  1.00  0.00     0.001 A 
BRANCH  25  34
HETATM   34  O   UNL     1      42.083 -14.748  -1.260  1.00  0.00    -0.360 OA
HETATM   35  H   UNL     1      42.604 -13.969  -1.560  1.00  0.00     0.217 HD
ENDBRANCH  25  34
ENDBRANCH   1  24
TORSDOF 6
ENDMDL
MODEL 8
REMARK VINA RESULT:      -8.3      4.036      8.591
REMARK  6 active torsions:
REMARK  status: ('A' for Active; 'I' for Inactive)
REMARK    1  A    between atoms: C_4  and  C_5 
REMARK    2  A    between atoms: C_5  and  N_6 
REMARK    3  A    between atoms: C_5  and  C_20 
REMARK       I    between atoms: N_6  and  C_7 
REMARK    4  A    between atoms: C_7  and  C_8 
REMARK    5  A    between atoms: C_8  and  N_9 
REMARK    6  A    between atoms: C_21  and  O_22 
ROOT
HETATM    1  C   UNL     1      43.371 -14.428   5.954  1.00  0.00     0.154 C 
ENDROOT
BRANCH   1   2
HETATM    2  C   UNL     1      44.347 -13.682   6.867  1.00  0.00    -0.031 A 
HETATM    3  C   UNL     1      43.922 -12.963   7.998  1.00  0.00     0.009 A 
HETATM    4  C   UNL     1      44.841 -12.278   8.799  1.00  0.00     0.001 A 
HETATM    5  C   UNL     1      46.195 -12.281   8.474  1.00  0.00     0.000 A 
HETATM    6  C   UNL     1      46.633 -12.959   7.342  1.00  0.00     0.001 A 
HETATM    7  C   UNL     1      45.717 -13.643   6.541  1.00  0.00     0.009 A 
ENDBRANCH   1   2
BRANCH   1   8
HETATM    8  N   UNL     1      41.980 -14.036   6.124  1.00  0.00    -0.347 N 
HETATM    9  C   UNL     1      41.446 -12.972   5.434  1.00  0.00     0.236 C 
HETATM   10  O   UNL     1      42.139 -12.252   4.710  1.00  0.00    -0.272 OA
HETATM   11  H   UNL     1      41.334 -14.766   6.423  1.00  0.00     0.163 HD
BRANCH   9  12
HETATM   12  C   UNL     1      39.915 -12.862   5.443  1.00  0.00     0.236 C 
BRANCH  12  13
HETATM   13  N   UNL     1      39.318 -12.324   4.241  1.00  0.00    -0.289 N 
HETATM   14  C   UNL     1      38.551 -11.145   4.193  1.00  0.00     0.328 A 
HETATM   15  O   UNL     1      38.454 -10.303   5.071  1.00  0.00    -0.247 OA
HETATM   16  N   UNL     1      37.926 -11.110   2.944  1.00  0.00    -0.306 N 
HETATM   17  C   UNL     1      38.239 -12.274   2.254  1.00  0.00     0.063 A 
HETATM   18  H   UNL     1      37.299 -10.379   2.647  1.00  0.00     0.171 HD
HETATM   19  C   UNL     1      39.095 -13.039   3.049  1.00  0.00     0.066 A 
HETATM   20  C   UNL     1      37.790 -12.694   1.022  1.00  0.00     0.032 A 
HETATM   21  C   UNL     1      39.542 -14.274   2.630  1.00  0.00     0.032 A 
HETATM   22  C   UNL     1      39.098 -14.725   1.380  1.00  0.00     0.002 A 
HETATM   23  C   UNL     1      38.231 -13.945   0.585  1.00  0.00     0.002 A 
ENDBRANCH  12  13
ENDBRANCH   9  12
ENDBRANCH   1   8
BRANCH   1  24
HETATM   24  C   UNL     1      43.477 -15.960   6.005  1.00  0.00     0.013 A 
HETATM   25  C   UNL     1      43.481 -16.593   7.263  1.00  0.00     0.075 A 
HETATM   26  C   UNL     1      43.429 -17.974   7.387  1.00  0.00     0.038 A 
HETATM   27  C   UNL     1      43.428 -18.768   6.248  1.00  0.00     0.015 A 
HETATM   28  C   UNL     1      43.506 -18.193   4.974  1.00  0.00    -0.025 A 
HETATM   29  C   UNL     1      43.547 -16.779   4.828  1.00  0.00    -0.015 A 
HETATM   30  C   UNL     1      43.545 -19.030   3.845  1.00  0.00     0.012 A 
HETATM   31  C   UNL     1      43.656 -16.285   3.504  1.00  0.00     0.013 A 
HETATM   32  C   UNL     1      43.703 -17.130   2.391  1.00  0.00     0.001 A 
HETATM   33  C   UNL     1      43.642 -18.503   2.561  1.00  0.00     0.001 A 
BRANCH  25  34
HETATM   34  O   UNL     1      43.554 -15.896   8.439  1.00  0.00    -0.360 OA
HETATM   35  H   UNL     1      44.377 -16.173   8.903  1.00  0.00     0.217 HD
ENDBRANCH  25  34
ENDBRANCH   1  24
TORSDOF 6
ENDMDL
MODEL 9
REMARK VINA RESULT:      -8.3      1.582      2.074
REMARK  6 active torsions:
REMARK  status: ('A' for Active; 'I' for Inactive)
REMARK    1  A    between atoms: C_4  and  C_5 
REMARK    2  A    between atoms: C_5  and  N_6 
REMARK    3  A    between atoms: C_5  and  C_20 
REMARK       I    between atoms: N_6  and  C_7 
REMARK    4  A    between atoms: C_7  and  C_8 
REMARK    5  A    between atoms: C_8  and  N_9 
REMARK    6  A    between atoms: C_21  and  O_22 
ROOT
HETATM    1  C   UNL     1      39.942 -13.973   2.303  1.00  0.00     0.154 C 
ENDROOT
BRANCH   1   2
HETATM    2  C   UNL     1      40.065 -12.825   3.309  1.00  0.00    -0.031 A 
HETATM    3  C   UNL     1      41.186 -12.672   4.145  1.00  0.00     0.009 A 
HETATM    4  C   UNL     1      41.255 -11.622   5.065  1.00  0.00     0.001 A 
HETATM    5  C   UNL     1      40.200 -10.720   5.183  1.00  0.00     0.000 A 
HETATM    6  C   UNL     1      39.068 -10.872   4.388  1.00  0.00     0.001 A 
HETATM    7  C   UNL     1      38.997 -11.920   3.469  1.00  0.00     0.009 A 
ENDBRANCH   1   2
BRANCH   1   8
HETATM    8  N   UNL     1      41.098 -14.855   2.263  1.00  0.00    -0.347 N 
HETATM    9  C   UNL     1      40.958 -16.211   2.076  1.00  0.00     0.236 C 
HETATM   10  O   UNL     1      39.849 -16.749   2.020  1.00  0.00    -0.272 OA
HETATM   11  H   UNL     1      41.981 -14.436   1.976  1.00  0.00     0.163 HD
BRANCH   9  12
HETATM   12  C   UNL     1      42.240 -16.980   1.725  1.00  0.00     0.236 C 
BRANCH  12  13
HETATM   13  N   UNL     1      42.852 -17.708   2.814  1.00  0.00    -0.289 N 
HETATM   14  C   UNL     1      43.392 -17.108   3.967  1.00  0.00     0.328 A 
HETATM   15  O   UNL     1      43.240 -15.952   4.327  1.00  0.00    -0.247 OA
HETATM   16  N   UNL     1      44.129 -18.089   4.636  1.00  0.00    -0.306 N 
HETATM   17  C   UNL     1      44.109 -19.256   3.882  1.00  0.00     0.063 A 
HETATM   18  H   UNL     1      44.639 -17.928   5.489  1.00  0.00     0.171 HD
HETATM   19  C   UNL     1      43.327 -19.030   2.747  1.00  0.00     0.066 A 
HETATM   20  C   UNL     1      44.755 -20.448   4.120  1.00  0.00     0.032 A 
HETATM   21  C   UNL     1      43.160 -20.011   1.792  1.00  0.00     0.032 A 
HETATM   22  C   UNL     1      43.809 -21.234   2.010  1.00  0.00     0.002 A 
HETATM   23  C   UNL     1      44.598 -21.450   3.160  1.00  0.00     0.002 A 
ENDBRANCH  12  13
ENDBRANCH   9  12
ENDBRANCH   1   8
BRANCH   1  24
HETATM   24  C   UNL     1      39.580 -13.545   0.873  1.00  0.00     0.013 A 
HETATM   25  C   UNL     1      38.356 -13.982   0.328  1.00  0.00     0.075 A 
HETATM   26  C   UNL     1      37.894 -13.521  -0.897  1.00  0.00     0.038 A 
HETATM   27  C   UNL     1      38.675 -12.648  -1.642  1.00  0.00     0.015 A 
HETATM   28  C   UNL     1      39.936 -12.245  -1.185  1.00  0.00    -0.025 A 
HETATM   29  C   UNL     1      40.419 -12.697   0.073  1.00  0.00    -0.015 A 
HETATM   30  C   UNL     1      40.715 -11.393  -1.986  1.00  0.00     0.012 A 
HETATM   31  C   UNL     1      41.717 -12.264   0.442  1.00  0.00     0.013 A 
HETATM   32  C   UNL     1      42.485 -11.424  -0.369  1.00  0.00     0.001 A 
HETATM   33  C   UNL     1      41.982 -10.983  -1.582  1.00  0.00     0.001 A 
BRANCH  25  34
HETATM   34  O   UNL     1      37.555 -14.897   0.957  1.00  0.00    -0.360 OA
HETATM   35  H   UNL     1      37.972 -15.119   1.820  1.00  0.00     0.217 HD
ENDBRANCH  25  34
ENDBRANCH   1  24
TORSDOF 6
ENDMDL
MODEL 10
REMARK VINA RESULT:      -8.2      2.188      4.112
REMARK  6 active torsions:
REMARK  status: ('A' for Active; 'I' for Inactive)
REMARK    1  A    between atoms: C_4  and  C_5 
REMARK    2  A    between atoms: C_5  and  N_6 
REMARK    3  A    between atoms: C_5  and  C_20 
REMARK       I    between atoms: N_6  and  C_7 
REMARK    4  A    between atoms: C_7  and  C_8 
REMARK    5  A    between atoms: C_8  and  N_9 
REMARK    6  A    between atoms: C_21  and  O_22 
ROOT
HETATM    1  C   UNL     1      40.624 -14.615  -0.388  1.00  0.00     0.154 C 
ENDROOT
BRANCH   1   2
HETATM    2  C   UNL     1      39.834 -14.784  -1.689  1.00  0.00    -0.031 A 
HETATM    3  C   UNL     1      38.597 -14.151  -1.907  1.00  0.00     0.009 A 
HETATM    4  C   UNL     1      37.895 -14.344  -3.100  1.00  0.00     0.001 A 
HETATM    5  C   UNL     1      38.403 -15.185  -4.087  1.00  0.00     0.000 A 
HETATM    6  C   UNL     1      39.610 -15.846  -3.878  1.00  0.00     0.001 A 
HETATM    7  C   UNL     1      40.312 -15.655  -2.687  1.00  0.00     0.009 A 
ENDBRANCH   1   2
BRANCH   1   8
HETATM    8  N   UNL     1      40.283 -15.581   0.645  1.00  0.00    -0.347 N 
HETATM    9  C   UNL     1      41.257 -16.225   1.373  1.00  0.00     0.236 C 
HETATM   10  O   UNL     1      42.458 -16.078   1.127  1.00  0.00    -0.272 OA
HETATM   11  H   UNL     1      39.370 -15.477   1.083  1.00  0.00     0.163 HD
BRANCH   9  12
HETATM   12  C   UNL     1      40.782 -16.958   2.635  1.00  0.00     0.236 C 
BRANCH  12  13
HETATM   13  N   UNL     1      41.370 -16.512   3.879  1.00  0.00    -0.289 N 
HETATM   14  C   UNL     1      41.163 -15.241   4.446  1.00  0.00     0.328 A 
HETATM   15  O   UNL     1      40.319 -14.424   4.115  1.00  0.00    -0.247 OA
HETATM   16  N   UNL     1      42.101 -15.088   5.471  1.00  0.00    -0.306 N 
HETATM   17  C   UNL     1      42.920 -16.209   5.498  1.00  0.00     0.063 A 
HETATM   18  H   UNL     1      42.189 -14.259   6.036  1.00  0.00     0.171 HD
HETATM   19  C   UNL     1      42.483 -17.096   4.512  1.00  0.00     0.066 A 
HETATM   20  C   UNL     1      44.016 -16.457   6.293  1.00  0.00     0.032 A 
HETATM   21  C   UNL     1      43.140 -18.287   4.284  1.00  0.00     0.032 A 
HETATM   22  C   UNL     1      44.260 -18.563   5.080  1.00  0.00     0.002 A 
HETATM   23  C   UNL     1      44.694 -17.658   6.072  1.00  0.00     0.002 A 
ENDBRANCH  12  13
ENDBRANCH   9  12
ENDBRANCH   1   8
BRANCH   1  24
HETATM   24  C   UNL     1      40.593 -13.200   0.210  1.00  0.00     0.013 A 
HETATM   25  C   UNL     1      39.663 -12.920   1.230  1.00  0.00     0.075 A 
HETATM   26  C   UNL     1      39.671 -11.714   1.917  1.00  0.00     0.038 A 
HETATM   27  C   UNL     1      40.580 -10.726   1.563  1.00  0.00     0.015 A 
HETATM   28  C   UNL     1      41.473 -10.922   0.502  1.00  0.00    -0.025 A 
HETATM   29  C   UNL     1      41.487 -12.156  -0.204  1.00  0.00    -0.015 A 
HETATM   30  C   UNL     1      42.351  -9.884   0.145  1.00  0.00     0.012 A 
HETATM   31  C   UNL     1      42.403 -12.255  -1.282  1.00  0.00     0.013 A 
HETATM   32  C   UNL     1      43.264 -11.211  -1.632  1.00  0.00     0.001 A 
HETATM   33  C   UNL     1      43.242 -10.026  -0.915  1.00  0.00     0.001 A 
BRANCH  25  34
HETATM   34  O   UNL     1      38.684 -13.803   1.597  1.00  0.00    -0.360 OA
HETATM   35  H   UNL     1      39.106 -14.519   2.125  1.00  0.00     0.217 HD
ENDBRANCH  25  34
ENDBRANCH   1  24
TORSDOF 6
ENDMDL
