MODEL 1
REMARK VINA RESULT:      -9.6      0.000      0.000
REMARK  6 active torsions:
REMARK  status: ('A' for Active; 'I' for Inactive)
REMARK    1  A    between atoms: O_2  and  C_3 
REMARK    2  A    between atoms: C_6  and  C_7 
REMARK    3  A    between atoms: C_11  and  C_12 
REMARK       I    between atoms: C_12  and  N_13 
REMARK    4  A    between atoms: N_13  and  N_14 
REMARK       I    between atoms: N_14  and  C_15 
REMARK    5  A    between atoms: C_15  and  C_16 
REMARK    6  A    between atoms: C_17  and  C_18 
ROOT
HETATM    1  C   UNL     1      42.705 -13.445   6.042  1.00  0.00     0.288 C 
HETATM    2  N   UNL     1      43.517 -13.522   7.154  1.00  0.00    -0.262 N 
HETATM    3  O   UNL     1      42.000 -12.463   5.817  1.00  0.00    -0.264 OA
HETATM    4  H   UNL     1      44.166 -14.283   7.332  1.00  0.00     0.190 HD
ENDROOT
BRANCH   1   5
HETATM    5  C   UNL     1      42.728 -14.590   5.174  1.00  0.00     0.121 A 
HETATM    6  N   UNL     1      41.836 -14.724   4.148  1.00  0.00    -0.272 N 
HETATM    7  N   UNL     1      41.954 -15.869   3.462  1.00  0.00    -0.174 NA
HETATM    8  H   UNL     1      41.110 -14.065   3.884  1.00  0.00     0.189 HD
HETATM    9  C   UNL     1      42.978 -16.513   4.046  1.00  0.00     0.089 A 
HETATM   10  C   UNL     1      43.499 -15.734   5.119  1.00  0.00     0.071 A 
BRANCH   9  11
HETATM   11  C   UNL     1      43.406 -17.842   3.597  1.00  0.00    -0.005 A 
HETATM   12  C   UNL     1      44.161 -18.682   4.423  1.00  0.00     0.016 A 
HETATM   13  C   UNL     1      44.534 -19.958   3.986  1.00  0.00     0.037 A 
HETATM   14  C   UNL     1      44.157 -20.422   2.724  1.00  0.00     0.068 A 
HETATM   15  C   UNL     1      43.418 -19.586   1.889  1.00  0.00     0.037 A 
HETATM   16  C   UNL     1      43.048 -18.306   2.323  1.00  0.00     0.016 A 
BRANCH  14  17
HETATM   17  O   UNL     1      44.574 -21.689   2.429  1.00  0.00    -0.356 OA
HETATM   18  C   UNL     1      44.583 -22.625   3.501  1.00  0.00     0.210 C 
ENDBRANCH  14  17
ENDBRANCH   9  11
ENDBRANCH   1   5
BRANCH   2  19
HETATM   19  N   UNL     1      43.553 -12.443   8.037  1.00  0.00    -0.267 N 
HETATM   20  C   UNL     1      44.678 -12.241   8.798  1.00  0.00     0.240 C 
HETATM   21  O   UNL     1      45.676 -12.953   8.759  1.00  0.00    -0.271 OA
HETATM   22  H   UNL     1      42.709 -11.877   8.124  1.00  0.00     0.190 HD
BRANCH  20  23
HETATM   23  C   UNL     1      44.572 -11.081   9.713  1.00  0.00     0.089 A 
HETATM   24  C   UNL     1      44.338 -11.362  11.191  1.00  0.00     0.036 A 
HETATM   25  C   UNL     1      45.634 -10.749  10.727  1.00  0.00     0.025 A 
BRANCH  24  26
HETATM   26  C   UNL     1      43.271 -10.566  11.902  1.00  0.00    -0.015 A 
HETATM   27  C   UNL     1      41.923 -10.675  11.522  1.00  0.00     0.123 A 
HETATM   28  F   UNL     1      41.595 -11.476  10.495  1.00  0.00    -0.206 F 
HETATM   29  C   UNL     1      40.908  -9.976  12.170  1.00  0.00     0.043 A 
HETATM   30  C   UNL     1      41.224  -9.132  13.230  1.00  0.00     0.003 A 
HETATM   31  C   UNL     1      42.551  -9.003  13.636  1.00  0.00     0.001 A 
HETATM   32  C   UNL     1      43.561  -9.716  12.981  1.00  0.00     0.011 A 
ENDBRANCH  24  26
ENDBRANCH  20  23
ENDBRANCH   2  19
TORSDOF 6
ENDMDL
MODEL 2
REMARK VINA RESULT:      -9.2      2.636     11.064
REMARK  6 active torsions:
REMARK  status: ('A' for Active; 'I' for Inactive)
REMARK    1  A    between atoms: O_2  and  C_3 
REMARK    2  A    between atoms: C_6  and  C_7 
REMARK    3  A    between atoms: C_11  and  C_12 
REMARK       I    between atoms: C_12  and  N_13 
REMARK    4  A    between atoms: N_13  and  N_14 
REMARK       I    between atoms: N_14  and  C_15 
REMARK    5  A    between atoms: C_15  and  C_16 
REMARK    6  A    between atoms: C_17  and  C_18 
ROOT
HETATM    1  C   UNL     1      44.802 -13.463   7.349  1.00  0.00     0.288 C 
HETATM    2  N   UNL     1      43.682 -14.203   7.033  1.00  0.00    -0.262 N 
HETATM    3  O   UNL     1      45.845 -13.551   6.703  1.00  0.00    -0.264 OA
HETATM    4  H   UNL     1      42.784 -14.101   7.496  1.00  0.00     0.190 HD
ENDROOT
BRANCH   1   5
HETATM    5  C   UNL     1      44.673 -12.597   8.488  1.00  0.00     0.121 A 
HETATM    6  N   UNL     1      45.679 -12.471   9.405  1.00  0.00    -0.272 N 
HETATM    7  N   UNL     1      45.387 -11.664  10.434  1.00  0.00    -0.174 NA
HETATM    8  H   UNL     1      46.583 -12.932   9.382  1.00  0.00     0.189 HD
HETATM    9  C   UNL     1      44.144 -11.223  10.181  1.00  0.00     0.089 A 
HETATM   10  C   UNL     1      43.666 -11.778   8.959  1.00  0.00     0.071 A 
BRANCH   9  11
HETATM   11  C   UNL     1      43.444 -10.327  11.107  1.00  0.00    -0.005 A 
HETATM   12  C   UNL     1      43.829 -10.220  12.448  1.00  0.00     0.016 A 
HETATM   13  C   UNL     1      43.167  -9.336  13.307  1.00  0.00     0.037 A 
HETATM   14  C   UNL     1      42.116  -8.540  12.846  1.00  0.00     0.068 A 
HETATM   15  C   UNL     1      41.717  -8.651  11.516  1.00  0.00     0.037 A 
HETATM   16  C   UNL     1      42.375  -9.540  10.656  1.00  0.00     0.016 A 
BRANCH  14  17
HETATM   17  O   UNL     1      41.568  -7.711  13.784  1.00  0.00    -0.356 OA
HETATM   18  C   UNL     1      40.862  -8.332  14.852  1.00  0.00     0.210 C 
ENDBRANCH  14  17
ENDBRANCH   9  11
ENDBRANCH   1   5
BRANCH   2  19
HETATM   19  N   UNL     1      43.731 -15.060   5.933  1.00  0.00    -0.267 N 
HETATM   20  C   UNL     1      42.749 -14.974   4.976  1.00  0.00     0.240 C 
HETATM   21  O   UNL     1      41.813 -14.184   5.016  1.00  0.00    -0.271 OA
HETATM   22  H   UNL     1      44.469 -15.763   5.915  1.00  0.00     0.190 HD
BRANCH  20  23
HETATM   23  C   UNL     1      42.903 -15.960   3.881  1.00  0.00     0.089 A 
HETATM   24  C   UNL     1      42.303 -17.344   4.083  1.00  0.00     0.036 A 
HETATM   25  C   UNL     1      41.746 -16.417   3.034  1.00  0.00     0.025 A 
BRANCH  24  26
HETATM   26  C   UNL     1      43.155 -18.542   3.741  1.00  0.00    -0.015 A 
HETATM   27  C   UNL     1      44.060 -19.068   4.676  1.00  0.00     0.123 A 
HETATM   28  F   UNL     1      44.182 -18.474   5.875  1.00  0.00    -0.206 F 
HETATM   29  C   UNL     1      44.846 -20.186   4.406  1.00  0.00     0.043 A 
HETATM   30  C   UNL     1      44.744 -20.813   3.168  1.00  0.00     0.003 A 
HETATM   31  C   UNL     1      43.853 -20.318   2.216  1.00  0.00     0.001 A 
HETATM   32  C   UNL     1      43.065 -19.198   2.503  1.00  0.00     0.011 A 
ENDBRANCH  24  26
ENDBRANCH  20  23
ENDBRANCH   2  19
TORSDOF 6
ENDMDL
MODEL 3
REMARK VINA RESULT:      -9.0      8.502     12.018
REMARK  6 active torsions:
REMARK  status: ('A' for Active; 'I' for Inactive)
REMARK    1  A    between atoms: O_2  and  C_3 
REMARK    2  A    between atoms: C_6  and  C_7 
REMARK    3  A    between atoms: C_11  and  C_12 
REMARK       I    between atoms: C_12  and  N_13 
REMARK    4  A    between atoms: N_13  and  N_14 
REMARK       I    between atoms: N_14  and  C_15 
REMARK    5  A    between atoms: C_15  and  C_16 
REMARK    6  A    between atoms: C_17  and  C_18 
ROOT
HETATM    1  C   UNL     1      41.248 -14.516  -0.906  1.00  0.00     0.288 C 
HETATM    2  N   UNL     1      41.367 -15.880  -0.747  1.00  0.00    -0.262 N 
HETATM    3  O   UNL     1      41.922 -13.722  -0.250  1.00  0.00    -0.264 OA
HETATM    4  H   UNL     1      40.883 -16.563  -1.322  1.00  0.00     0.190 HD
ENDROOT
BRANCH   1   5
HETATM    5  C   UNL     1      40.281 -14.084  -1.875  1.00  0.00     0.121 A 
HETATM    6  N   UNL     1      40.637 -13.303  -2.939  1.00  0.00    -0.272 N 
HETATM    7  N   UNL     1      39.613 -12.943  -3.725  1.00  0.00    -0.174 NA
HETATM    8  H   UNL     1      41.570 -12.973  -3.165  1.00  0.00     0.189 HD
HETATM    9  C   UNL     1      38.536 -13.522  -3.169  1.00  0.00     0.089 A 
HETATM   10  C   UNL     1      38.918 -14.258  -2.011  1.00  0.00     0.071 A 
BRANCH   9  11
HETATM   11  C   UNL     1      37.191 -13.337  -3.725  1.00  0.00    -0.005 A 
HETATM   12  C   UNL     1      36.540 -12.100  -3.661  1.00  0.00     0.016 A 
HETATM   13  C   UNL     1      35.270 -11.938  -4.226  1.00  0.00     0.037 A 
HETATM   14  C   UNL     1      34.629 -13.000  -4.868  1.00  0.00     0.068 A 
HETATM   15  C   UNL     1      35.264 -14.239  -4.922  1.00  0.00     0.037 A 
HETATM   16  C   UNL     1      36.534 -14.405  -4.353  1.00  0.00     0.016 A 
BRANCH  14  17
HETATM   17  O   UNL     1      33.401 -12.701  -5.387  1.00  0.00    -0.356 OA
HETATM   18  C   UNL     1      33.315 -11.532  -6.193  1.00  0.00     0.210 C 
ENDBRANCH  14  17
ENDBRANCH   9  11
ENDBRANCH   1   5
BRANCH   2  19
HETATM   19  N   UNL     1      42.294 -16.373   0.171  1.00  0.00    -0.267 N 
HETATM   20  C   UNL     1      41.895 -17.326   1.077  1.00  0.00     0.240 C 
HETATM   21  O   UNL     1      40.761 -17.786   1.140  1.00  0.00    -0.271 OA
HETATM   22  H   UNL     1      43.225 -15.958   0.170  1.00  0.00     0.190 HD
BRANCH  20  23
HETATM   23  C   UNL     1      42.968 -17.739   2.011  1.00  0.00     0.089 A 
HETATM   24  C   UNL     1      43.850 -18.912   1.605  1.00  0.00     0.036 A 
HETATM   25  C   UNL     1      44.428 -17.525   1.712  1.00  0.00     0.025 A 
BRANCH  24  26
HETATM   26  C   UNL     1      44.115 -19.986   2.631  1.00  0.00    -0.015 A 
HETATM   27  C   UNL     1      44.170 -21.338   2.256  1.00  0.00     0.123 A 
HETATM   28  F   UNL     1      43.953 -21.671   0.973  1.00  0.00    -0.206 F 
HETATM   29  C   UNL     1      44.436 -22.355   3.170  1.00  0.00     0.043 A 
HETATM   30  C   UNL     1      44.654 -22.036   4.507  1.00  0.00     0.003 A 
HETATM   31  C   UNL     1      44.610 -20.703   4.914  1.00  0.00     0.001 A 
HETATM   32  C   UNL     1      44.348 -19.691   3.984  1.00  0.00     0.011 A 
ENDBRANCH  24  26
ENDBRANCH  20  23
ENDBRANCH   2  19
TORSDOF 6
ENDMDL
MODEL 4
REMARK VINA RESULT:      -8.4      6.856     10.914
REMARK  6 active torsions:
REMARK  status: ('A' for Active; 'I' for Inactive)
REMARK    1  A    between atoms: O_2  and  C_3 
REMARK    2  A    between atoms: C_6  and  C_7 
REMARK    3  A    between atoms: C_11  and  C_12 
REMARK       I    between atoms: C_12  and  N_13 
REMARK    4  A    between atoms: N_13  and  N_14 
REMARK       I    between atoms: N_14  and  C_15 
REMARK    5  A    between atoms: C_15  and  C_16 
REMARK    6  A    between atoms: C_17  and  C_18 
ROOT
HETATM    1  C   UNL     1      41.633 -16.095   0.507  1.00  0.00     0.288 C 
HETATM    2  N   UNL     1      40.994 -16.277   1.715  1.00  0.00    -0.262 N 
HETATM    3  O   UNL     1      42.613 -16.764   0.181  1.00  0.00    -0.264 OA
HETATM    4  H   UNL     1      40.140 -15.797   1.984  1.00  0.00     0.190 HD
ENDROOT
BRANCH   1   5
HETATM    5  C   UNL     1      41.088 -15.069  -0.338  1.00  0.00     0.121 A 
HETATM    6  N   UNL     1      39.761 -14.745  -0.300  1.00  0.00    -0.272 N 
HETATM    7  N   UNL     1      39.399 -13.804  -1.182  1.00  0.00    -0.174 NA
HETATM    8  H   UNL     1      39.052 -15.153   0.302  1.00  0.00     0.189 HD
HETATM    9  C   UNL     1      40.536 -13.477  -1.819  1.00  0.00     0.089 A 
HETATM   10  C   UNL     1      41.622 -14.243  -1.307  1.00  0.00     0.071 A 
BRANCH   9  11
HETATM   11  C   UNL     1      40.553 -12.486  -2.900  1.00  0.00    -0.005 A 
HETATM   12  C   UNL     1      41.749 -12.105  -3.519  1.00  0.00     0.016 A 
HETATM   13  C   UNL     1      41.740 -11.180  -4.569  1.00  0.00     0.037 A 
HETATM   14  C   UNL     1      40.542 -10.624  -5.025  1.00  0.00     0.068 A 
HETATM   15  C   UNL     1      39.349 -10.987  -4.404  1.00  0.00     0.037 A 
HETATM   16  C   UNL     1      39.357 -11.909  -3.349  1.00  0.00     0.016 A 
BRANCH  14  17
HETATM   17  O   UNL     1      40.674  -9.747  -6.064  1.00  0.00    -0.356 OA
HETATM   18  C   UNL     1      39.785  -9.918  -7.162  1.00  0.00     0.210 C 
ENDBRANCH  14  17
ENDBRANCH   9  11
ENDBRANCH   1   5
BRANCH   2  19
HETATM   19  N   UNL     1      41.463 -17.263   2.583  1.00  0.00    -0.267 N 
HETATM   20  C   UNL     1      42.244 -16.896   3.651  1.00  0.00     0.240 C 
HETATM   21  O   UNL     1      42.568 -15.741   3.906  1.00  0.00    -0.271 OA
HETATM   22  H   UNL     1      41.251 -18.233   2.351  1.00  0.00     0.190 HD
BRANCH  20  23
HETATM   23  C   UNL     1      42.697 -18.042   4.473  1.00  0.00     0.089 A 
HETATM   24  C   UNL     1      44.118 -18.548   4.262  1.00  0.00     0.036 A 
HETATM   25  C   UNL     1      43.724 -17.900   5.565  1.00  0.00     0.025 A 
BRANCH  24  26
HETATM   26  C   UNL     1      44.325 -20.036   4.125  1.00  0.00    -0.015 A 
HETATM   27  C   UNL     1      44.222 -20.662   2.871  1.00  0.00     0.123 A 
HETATM   28  F   UNL     1      43.906 -19.923   1.795  1.00  0.00    -0.206 F 
HETATM   29  C   UNL     1      44.430 -22.028   2.701  1.00  0.00     0.043 A 
HETATM   30  C   UNL     1      44.750 -22.816   3.802  1.00  0.00     0.003 A 
HETATM   31  C   UNL     1      44.863 -22.228   5.061  1.00  0.00     0.001 A 
HETATM   32  C   UNL     1      44.658 -20.852   5.217  1.00  0.00     0.011 A 
ENDBRANCH  24  26
ENDBRANCH  20  23
ENDBRANCH   2  19
TORSDOF 6
ENDMDL
MODEL 5
REMARK VINA RESULT:      -8.3      2.841     11.079
REMARK  6 active torsions:
REMARK  status: ('A' for Active; 'I' for Inactive)
REMARK    1  A    between atoms: O_2  and  C_3 
REMARK    2  A    between atoms: C_6  and  C_7 
REMARK    3  A    between atoms: C_11  and  C_12 
REMARK       I    between atoms: C_12  and  N_13 
REMARK    4  A    between atoms: N_13  and  N_14 
REMARK       I    between atoms: N_14  and  C_15 
REMARK    5  A    between atoms: C_15  and  C_16 
REMARK    6  A    between atoms: C_17  and  C_18 
ROOT
HETATM    1  C   UNL     1      41.975 -12.029   5.999  1.00  0.00     0.288 C 
HETATM    2  N   UNL     1      42.489 -13.291   6.208  1.00  0.00    -0.262 N 
HETATM    3  O   UNL     1      41.555 -11.670   4.900  1.00  0.00    -0.264 OA
HETATM    4  H   UNL     1      42.774 -13.646   7.116  1.00  0.00     0.190 HD
ENDROOT
BRANCH   1   5
HETATM    5  C   UNL     1      41.976 -11.160   7.142  1.00  0.00     0.121 A 
HETATM    6  N   UNL     1      41.646  -9.838   7.033  1.00  0.00    -0.272 N 
HETATM    7  N   UNL     1      41.742  -9.151   8.179  1.00  0.00    -0.174 NA
HETATM    8  H   UNL     1      41.364  -9.350   6.189  1.00  0.00     0.189 HD
HETATM    9  C   UNL     1      42.136 -10.056   9.089  1.00  0.00     0.089 A 
HETATM   10  C   UNL     1      42.280 -11.335   8.478  1.00  0.00     0.071 A 
BRANCH   9  11
HETATM   11  C   UNL     1      42.388  -9.683  10.485  1.00  0.00    -0.005 A 
HETATM   12  C   UNL     1      41.619  -8.707  11.128  1.00  0.00     0.016 A 
HETATM   13  C   UNL     1      41.857  -8.387  12.470  1.00  0.00     0.037 A 
HETATM   14  C   UNL     1      42.859  -9.036  13.194  1.00  0.00     0.068 A 
HETATM   15  C   UNL     1      43.640  -9.998  12.557  1.00  0.00     0.037 A 
HETATM   16  C   UNL     1      43.406 -10.316  11.213  1.00  0.00     0.016 A 
BRANCH  14  17
HETATM   17  O   UNL     1      42.975  -8.639  14.497  1.00  0.00    -0.356 OA
HETATM   18  C   UNL     1      41.768  -8.516  15.238  1.00  0.00     0.210 C 
ENDBRANCH  14  17
ENDBRANCH   9  11
ENDBRANCH   1   5
BRANCH   2  19
HETATM   19  N   UNL     1      42.512 -14.194   5.144  1.00  0.00    -0.267 N 
HETATM   20  C   UNL     1      43.230 -15.358   5.272  1.00  0.00     0.240 C 
HETATM   21  O   UNL     1      43.866 -15.671   6.272  1.00  0.00    -0.271 OA
HETATM   22  H   UNL     1      42.036 -13.921   4.285  1.00  0.00     0.190 HD
BRANCH  20  23
HETATM   23  C   UNL     1      43.194 -16.209   4.060  1.00  0.00     0.089 A 
HETATM   24  C   UNL     1      42.527 -17.573   4.171  1.00  0.00     0.036 A 
HETATM   25  C   UNL     1      41.922 -16.496   3.308  1.00  0.00     0.025 A 
BRANCH  24  26
HETATM   26  C   UNL     1      43.252 -18.764   3.595  1.00  0.00    -0.015 A 
HETATM   27  C   UNL     1      44.276 -19.399   4.317  1.00  0.00     0.123 A 
HETATM   28  F   UNL     1      44.625 -18.914   5.520  1.00  0.00    -0.206 F 
HETATM   29  C   UNL     1      44.951 -20.515   3.829  1.00  0.00     0.043 A 
HETATM   30  C   UNL     1      44.613 -21.030   2.581  1.00  0.00     0.003 A 
HETATM   31  C   UNL     1      43.599 -20.426   1.838  1.00  0.00     0.001 A 
HETATM   32  C   UNL     1      42.924 -19.310   2.343  1.00  0.00     0.011 A 
ENDBRANCH  24  26
ENDBRANCH  20  23
ENDBRANCH   2  19
TORSDOF 6
ENDMDL
MODEL 6
REMARK VINA RESULT:      -8.3      7.567     10.853
REMARK  6 active torsions:
REMARK  status: ('A' for Active; 'I' for Inactive)
REMARK    1  A    between atoms: O_2  and  C_3 
REMARK    2  A    between atoms: C_6  and  C_7 
REMARK    3  A    between atoms: C_11  and  C_12 
REMARK       I    between atoms: C_12  and  N_13 
REMARK    4  A    between atoms: N_13  and  N_14 
REMARK       I    between atoms: N_14  and  C_15 
REMARK    5  A    between atoms: C_15  and  C_16 
REMARK    6  A    between atoms: C_17  and  C_18 
ROOT
HETATM    1  C   UNL     1      41.058 -15.093  -1.006  1.00  0.00     0.288 C 
HETATM    2  N   UNL     1      41.271 -16.396  -0.611  1.00  0.00    -0.262 N 
HETATM    3  O   UNL     1      41.713 -14.157  -0.549  1.00  0.00    -0.264 OA
HETATM    4  H   UNL     1      40.802 -17.198  -1.020  1.00  0.00     0.190 HD
ENDROOT
BRANCH   1   5
HETATM    5  C   UNL     1      40.013 -14.899  -1.972  1.00  0.00     0.121 A 
HETATM    6  N   UNL     1      39.962 -15.632  -3.124  1.00  0.00    -0.272 N 
HETATM    7  N   UNL     1      38.957 -15.299  -3.945  1.00  0.00    -0.174 NA
HETATM    8  H   UNL     1      40.605 -16.365  -3.407  1.00  0.00     0.189 HD
HETATM    9  C   UNL     1      38.304 -14.315  -3.304  1.00  0.00     0.089 A 
HETATM   10  C   UNL     1      38.931 -14.045  -2.054  1.00  0.00     0.071 A 
BRANCH   9  11
HETATM   11  C   UNL     1      37.141 -13.650  -3.900  1.00  0.00    -0.005 A 
HETATM   12  C   UNL     1      36.140 -14.379  -4.553  1.00  0.00     0.016 A 
HETATM   13  C   UNL     1      35.023 -13.728  -5.088  1.00  0.00     0.037 A 
HETATM   14  C   UNL     1      34.880 -12.343  -4.978  1.00  0.00     0.068 A 
HETATM   15  C   UNL     1      35.879 -11.608  -4.344  1.00  0.00     0.037 A 
HETATM   16  C   UNL     1      37.000 -12.258  -3.811  1.00  0.00     0.016 A 
BRANCH  14  17
HETATM   17  O   UNL     1      33.737 -11.838  -5.531  1.00  0.00    -0.356 OA
HETATM   18  C   UNL     1      32.558 -11.909  -4.738  1.00  0.00     0.210 C 
ENDBRANCH  14  17
ENDBRANCH   9  11
ENDBRANCH   1   5
BRANCH   2  19
HETATM   19  N   UNL     1      42.277 -16.661   0.319  1.00  0.00    -0.267 N 
HETATM   20  C   UNL     1      41.928 -17.101   1.573  1.00  0.00     0.240 C 
HETATM   21  O   UNL     1      40.774 -17.282   1.945  1.00  0.00    -0.271 OA
HETATM   22  H   UNL     1      43.238 -16.459   0.044  1.00  0.00     0.190 HD
BRANCH  20  23
HETATM   23  C   UNL     1      43.089 -17.315   2.468  1.00  0.00     0.089 A 
HETATM   24  C   UNL     1      43.046 -18.509   3.412  1.00  0.00     0.036 A 
HETATM   25  C   UNL     1      44.049 -18.460   2.289  1.00  0.00     0.025 A 
BRANCH  24  26
HETATM   26  C   UNL     1      43.428 -18.284   4.854  1.00  0.00    -0.015 A 
HETATM   27  C   UNL     1      42.464 -17.897   5.799  1.00  0.00     0.123 A 
HETATM   28  F   UNL     1      41.198 -17.699   5.399  1.00  0.00    -0.206 F 
HETATM   29  C   UNL     1      42.774 -17.704   7.144  1.00  0.00     0.043 A 
HETATM   30  C   UNL     1      44.081 -17.893   7.581  1.00  0.00     0.003 A 
HETATM   31  C   UNL     1      45.064 -18.280   6.669  1.00  0.00     0.001 A 
HETATM   32  C   UNL     1      44.737 -18.478   5.323  1.00  0.00     0.011 A 
ENDBRANCH  24  26
ENDBRANCH  20  23
ENDBRANCH   2  19
TORSDOF 6
ENDMDL
MODEL 7
REMARK VINA RESULT:      -8.1      7.812     11.093
REMARK  6 active torsions:
REMARK  status: ('A' for Active; 'I' for Inactive)
REMARK    1  A    between atoms: O_2  and  C_3 
REMARK    2  A    between atoms: C_6  and  C_7 
REMARK    3  A    between atoms: C_11  and  C_12 
REMARK       I    between atoms: C_12  and  N_13 
REMARK    4  A    between atoms: N_13  and  N_14 
REMARK       I    between atoms: N_14  and  C_15 
REMARK    5  A    between atoms: C_15  and  C_16 
REMARK    6  A    between atoms: C_17  and  C_18 
ROOT
HETATM    1  C   UNL     1      40.880 -15.103  -0.715  1.00  0.00     0.288 C 
HETATM    2  N   UNL     1      41.690 -15.102  -1.830  1.00  0.00    -0.262 N 
HETATM    3  O   UNL     1      39.937 -14.322  -0.593  1.00  0.00    -0.264 OA
HETATM    4  H   UNL     1      42.428 -15.780  -1.998  1.00  0.00     0.190 HD
ENDROOT
BRANCH   1   5
HETATM    5  C   UNL     1      41.217 -16.064   0.298  1.00  0.00     0.121 A 
HETATM    6  N   UNL     1      40.335 -16.395   1.288  1.00  0.00    -0.272 N 
HETATM    7  N   UNL     1      40.816 -17.268   2.184  1.00  0.00    -0.174 NA
HETATM    8  H   UNL     1      39.392 -16.038   1.406  1.00  0.00     0.189 HD
HETATM    9  C   UNL     1      42.062 -17.538   1.763  1.00  0.00     0.089 A 
HETATM   10  C   UNL     1      42.346 -16.810   0.572  1.00  0.00     0.071 A 
BRANCH   9  11
HETATM   11  C   UNL     1      42.945 -18.443   2.507  1.00  0.00    -0.005 A 
HETATM   12  C   UNL     1      43.254 -18.215   3.852  1.00  0.00     0.016 A 
HETATM   13  C   UNL     1      44.074 -19.107   4.552  1.00  0.00     0.037 A 
HETATM   14  C   UNL     1      44.596 -20.242   3.928  1.00  0.00     0.068 A 
HETATM   15  C   UNL     1      44.305 -20.468   2.584  1.00  0.00     0.037 A 
HETATM   16  C   UNL     1      43.488 -19.574   1.880  1.00  0.00     0.016 A 
BRANCH  14  17
HETATM   17  O   UNL     1      45.368 -21.036   4.729  1.00  0.00    -0.356 OA
HETATM   18  C   UNL     1      44.848 -22.321   5.048  1.00  0.00     0.210 C 
ENDBRANCH  14  17
ENDBRANCH   9  11
ENDBRANCH   1   5
BRANCH   2  19
HETATM   19  N   UNL     1      41.416 -14.201  -2.860  1.00  0.00    -0.267 N 
HETATM   20  C   UNL     1      42.166 -13.054  -2.961  1.00  0.00     0.240 C 
HETATM   21  O   UNL     1      43.078 -12.756  -2.198  1.00  0.00    -0.271 OA
HETATM   22  H   UNL     1      40.623 -14.406  -3.467  1.00  0.00     0.190 HD
BRANCH  20  23
HETATM   23  C   UNL     1      41.752 -12.174  -4.078  1.00  0.00     0.089 A 
HETATM   24  C   UNL     1      40.930 -10.938  -3.739  1.00  0.00     0.036 A 
HETATM   25  C   UNL     1      42.329 -10.799  -4.282  1.00  0.00     0.025 A 
BRANCH  24  26
HETATM   26  C   UNL     1      39.703 -10.654  -4.571  1.00  0.00    -0.015 A 
HETATM   27  C   UNL     1      38.441 -11.120  -4.168  1.00  0.00     0.123 A 
HETATM   28  F   UNL     1      38.340 -11.849  -3.044  1.00  0.00    -0.206 F 
HETATM   29  C   UNL     1      37.283 -10.858  -4.896  1.00  0.00     0.043 A 
HETATM   30  C   UNL     1      37.363 -10.113  -6.069  1.00  0.00     0.003 A 
HETATM   31  C   UNL     1      38.600  -9.633  -6.497  1.00  0.00     0.001 A 
HETATM   32  C   UNL     1      39.755  -9.897  -5.752  1.00  0.00     0.011 A 
ENDBRANCH  24  26
ENDBRANCH  20  23
ENDBRANCH   2  19
TORSDOF 6
ENDMDL
MODEL 8
REMARK VINA RESULT:      -7.9      3.547     11.428
REMARK  6 active torsions:
REMARK  status: ('A' for Active; 'I' for Inactive)
REMARK    1  A    between atoms: O_2  and  C_3 
REMARK    2  A    between atoms: C_6  and  C_7 
REMARK    3  A    between atoms: C_11  and  C_12 
REMARK       I    between atoms: C_12  and  N_13 
REMARK    4  A    between atoms: N_13  and  N_14 
REMARK       I    between atoms: N_14  and  C_15 
REMARK    5  A    between atoms: C_15  and  C_16 
REMARK    6  A    between atoms: C_17  and  C_18 
ROOT
HETATM    1  C   UNL     1      39.746 -12.379   6.550  1.00  0.00     0.288 C 
HETATM    2  N   UNL     1      40.919 -13.100   6.484  1.00  0.00    -0.262 N 
HETATM    3  O   UNL     1      38.794 -12.614   5.807  1.00  0.00    -0.264 OA
HETATM    4  H   UNL     1      41.695 -12.983   7.130  1.00  0.00     0.190 HD
ENDROOT
BRANCH   1   5
HETATM    5  C   UNL     1      39.715 -11.329   7.530  1.00  0.00     0.121 A 
HETATM    6  N   UNL     1      40.393 -10.158   7.342  1.00  0.00    -0.272 N 
HETATM    7  N   UNL     1      40.305  -9.301   8.368  1.00  0.00    -0.174 NA
HETATM    8  H   UNL     1      40.950  -9.900   6.533  1.00  0.00     0.189 HD
HETATM    9  C   UNL     1      39.523  -9.921   9.267  1.00  0.00     0.089 A 
HETATM   10  C   UNL     1      39.121 -11.194   8.770  1.00  0.00     0.071 A 
BRANCH   9  11
HETATM   11  C   UNL     1      39.209  -9.312  10.563  1.00  0.00    -0.005 A 
HETATM   12  C   UNL     1      38.093  -8.483  10.727  1.00  0.00     0.016 A 
HETATM   13  C   UNL     1      37.794  -7.936  11.980  1.00  0.00     0.037 A 
HETATM   14  C   UNL     1      38.596  -8.208  13.090  1.00  0.00     0.068 A 
HETATM   15  C   UNL     1      39.718  -9.019  12.932  1.00  0.00     0.037 A 
HETATM   16  C   UNL     1      40.022  -9.564  11.678  1.00  0.00     0.016 A 
BRANCH  14  17
HETATM   17  O   UNL     1      38.184  -7.623  14.254  1.00  0.00    -0.356 OA
HETATM   18  C   UNL     1      39.175  -7.420  15.255  1.00  0.00     0.210 C 
ENDBRANCH  14  17
ENDBRANCH   9  11
ENDBRANCH   1   5
BRANCH   2  19
HETATM   19  N   UNL     1      41.018 -14.141   5.561  1.00  0.00    -0.267 N 
HETATM   20  C   UNL     1      42.213 -14.806   5.432  1.00  0.00     0.240 C 
HETATM   21  O   UNL     1      43.221 -14.549   6.080  1.00  0.00    -0.271 OA
HETATM   22  H   UNL     1      40.207 -14.329   4.973  1.00  0.00     0.190 HD
BRANCH  20  23
HETATM   23  C   UNL     1      42.190 -15.867   4.398  1.00  0.00     0.089 A 
HETATM   24  C   UNL     1      42.035 -17.308   4.863  1.00  0.00     0.036 A 
HETATM   25  C   UNL     1      40.945 -16.643   4.062  1.00  0.00     0.025 A 
BRANCH  24  26
HETATM   26  C   UNL     1      42.959 -18.345   4.274  1.00  0.00    -0.015 A 
HETATM   27  C   UNL     1      43.873 -19.035   5.087  1.00  0.00     0.123 A 
HETATM   28  F   UNL     1      43.936 -18.741   6.396  1.00  0.00    -0.206 F 
HETATM   29  C   UNL     1      44.725 -20.016   4.584  1.00  0.00     0.043 A 
HETATM   30  C   UNL     1      44.684 -20.331   3.230  1.00  0.00     0.003 A 
HETATM   31  C   UNL     1      43.787 -19.667   2.394  1.00  0.00     0.001 A 
HETATM   32  C   UNL     1      42.932 -18.689   2.913  1.00  0.00     0.011 A 
ENDBRANCH  24  26
ENDBRANCH  20  23
ENDBRANCH   2  19
TORSDOF 6
ENDMDL
MODEL 9
REMARK VINA RESULT:      -7.9      6.953     11.319
REMARK  6 active torsions:
REMARK  status: ('A' for Active; 'I' for Inactive)
REMARK    1  A    between atoms: O_2  and  C_3 
REMARK    2  A    between atoms: C_6  and  C_7 
REMARK    3  A    between atoms: C_11  and  C_12 
REMARK       I    between atoms: C_12  and  N_13 
REMARK    4  A    between atoms: N_13  and  N_14 
REMARK       I    between atoms: N_14  and  C_15 
REMARK    5  A    between atoms: C_15  and  C_16 
REMARK    6  A    between atoms: C_17  and  C_18 
ROOT
HETATM    1  C   UNL     1      40.814 -15.323   0.508  1.00  0.00     0.288 C 
HETATM    2  N   UNL     1      40.122 -15.982   1.501  1.00  0.00    -0.262 N 
HETATM    3  O   UNL     1      41.996 -15.566   0.266  1.00  0.00    -0.264 OA
HETATM    4  H   UNL     1      39.129 -15.861   1.678  1.00  0.00     0.190 HD
ENDROOT
BRANCH   1   5
HETATM    5  C   UNL     1      40.071 -14.329  -0.215  1.00  0.00     0.121 A 
HETATM    6  N   UNL     1      40.696 -13.292  -0.849  1.00  0.00    -0.272 N 
HETATM    7  N   UNL     1      39.863 -12.422  -1.435  1.00  0.00    -0.174 NA
HETATM    8  H   UNL     1      41.697 -13.123  -0.896  1.00  0.00     0.189 HD
HETATM    9  C   UNL     1      38.635 -12.910  -1.195  1.00  0.00     0.089 A 
HETATM   10  C   UNL     1      38.725 -14.116  -0.441  1.00  0.00     0.071 A 
BRANCH   9  11
HETATM   11  C   UNL     1      37.428 -12.214  -1.653  1.00  0.00    -0.005 A 
HETATM   12  C   UNL     1      36.654 -11.445  -0.778  1.00  0.00     0.016 A 
HETATM   13  C   UNL     1      35.523 -10.764  -1.243  1.00  0.00     0.037 A 
HETATM   14  C   UNL     1      35.147 -10.833  -2.586  1.00  0.00     0.068 A 
HETATM   15  C   UNL     1      35.904 -11.609  -3.461  1.00  0.00     0.037 A 
HETATM   16  C   UNL     1      37.033 -12.295  -2.996  1.00  0.00     0.016 A 
BRANCH  14  17
HETATM   17  O   UNL     1      34.033 -10.110  -2.908  1.00  0.00    -0.356 OA
HETATM   18  C   UNL     1      32.776 -10.731  -2.668  1.00  0.00     0.210 C 
ENDBRANCH  14  17
ENDBRANCH   9  11
ENDBRANCH   1   5
BRANCH   2  19
HETATM   19  N   UNL     1      40.778 -16.968   2.239  1.00  0.00    -0.267 N 
HETATM   20  C   UNL     1      41.332 -16.637   3.451  1.00  0.00     0.240 C 
HETATM   21  O   UNL     1      41.293 -15.516   3.945  1.00  0.00    -0.271 OA
HETATM   22  H   UNL     1      40.869 -17.890   1.815  1.00  0.00     0.190 HD
BRANCH  20  23
HETATM   23  C   UNL     1      42.022 -17.768   4.113  1.00  0.00     0.089 A 
HETATM   24  C   UNL     1      43.453 -18.072   3.690  1.00  0.00     0.036 A 
HETATM   25  C   UNL     1      43.159 -17.569   5.080  1.00  0.00     0.025 A 
BRANCH  24  26
HETATM   26  C   UNL     1      43.816 -19.508   3.405  1.00  0.00    -0.015 A 
HETATM   27  C   UNL     1      43.521 -20.089   2.161  1.00  0.00     0.123 A 
HETATM   28  F   UNL     1      42.882 -19.358   1.232  1.00  0.00    -0.206 F 
HETATM   29  C   UNL     1      43.862 -21.403   1.852  1.00  0.00     0.043 A 
HETATM   30  C   UNL     1      44.516 -22.184   2.801  1.00  0.00     0.003 A 
HETATM   31  C   UNL     1      44.827 -21.638   4.046  1.00  0.00     0.001 A 
HETATM   32  C   UNL     1      44.484 -20.314   4.340  1.00  0.00     0.011 A 
ENDBRANCH  24  26
ENDBRANCH  20  23
ENDBRANCH   2  19
TORSDOF 6
ENDMDL
MODEL 10
REMARK VINA RESULT:      -7.9      8.322     12.172
REMARK  6 active torsions:
REMARK  status: ('A' for Active; 'I' for Inactive)
REMARK    1  A    between atoms: O_2  and  C_3 
REMARK    2  A    between atoms: C_6  and  C_7 
REMARK    3  A    between atoms: C_11  and  C_12 
REMARK       I    between atoms: C_12  and  N_13 
REMARK    4  A    between atoms: N_13  and  N_14 
REMARK       I    between atoms: N_14  and  C_15 
REMARK    5  A    between atoms: C_15  and  C_16 
REMARK    6  A    between atoms: C_17  and  C_18 
ROOT
HETATM    1  C   UNL     1      40.723 -14.838  -0.507  1.00  0.00     0.288 C 
HETATM    2  N   UNL     1      39.374 -14.595  -0.653  1.00  0.00    -0.262 N 
HETATM    3  O   UNL     1      41.569 -14.225  -1.157  1.00  0.00    -0.264 OA
HETATM    4  H   UNL     1      38.654 -15.027  -0.081  1.00  0.00     0.190 HD
ENDROOT
BRANCH   1   5
HETATM    5  C   UNL     1      41.073 -15.860   0.440  1.00  0.00     0.121 A 
HETATM    6  N   UNL     1      40.182 -16.296   1.380  1.00  0.00    -0.272 N 
HETATM    7  N   UNL     1      40.674 -17.216   2.220  1.00  0.00    -0.174 NA
HETATM    8  H   UNL     1      39.223 -15.982   1.501  1.00  0.00     0.189 HD
HETATM    9  C   UNL     1      41.939 -17.410   1.811  1.00  0.00     0.089 A 
HETATM   10  C   UNL     1      42.222 -16.585   0.686  1.00  0.00     0.071 A 
BRANCH   9  11
HETATM   11  C   UNL     1      42.838 -18.336   2.508  1.00  0.00    -0.005 A 
HETATM   12  C   UNL     1      43.206 -18.129   3.842  1.00  0.00     0.016 A 
HETATM   13  C   UNL     1      44.040 -19.041   4.497  1.00  0.00     0.037 A 
HETATM   14  C   UNL     1      44.517 -20.177   3.839  1.00  0.00     0.068 A 
HETATM   15  C   UNL     1      44.168 -20.383   2.506  1.00  0.00     0.037 A 
HETATM   16  C   UNL     1      43.337 -19.468   1.847  1.00  0.00     0.016 A 
BRANCH  14  17
HETATM   17  O   UNL     1      45.310 -20.991   4.599  1.00  0.00    -0.356 OA
HETATM   18  C   UNL     1      44.830 -22.309   4.837  1.00  0.00     0.210 C 
ENDBRANCH  14  17
ENDBRANCH   9  11
ENDBRANCH   1   5
BRANCH   2  19
HETATM   19  N   UNL     1      38.960 -13.609  -1.549  1.00  0.00    -0.267 N 
HETATM   20  C   UNL     1      38.391 -13.987  -2.741  1.00  0.00     0.240 C 
HETATM   21  O   UNL     1      38.215 -15.150  -3.084  1.00  0.00    -0.271 OA
HETATM   22  H   UNL     1      39.153 -12.639  -1.303  1.00  0.00     0.190 HD
BRANCH  20  23
HETATM   23  C   UNL     1      38.026 -12.844  -3.609  1.00  0.00     0.089 A 
HETATM   24  C   UNL     1      36.554 -12.464  -3.701  1.00  0.00     0.036 A 
HETATM   25  C   UNL     1      37.545 -11.529  -3.057  1.00  0.00     0.025 A 
BRANCH  24  26
HETATM   26  C   UNL     1      35.972 -12.215  -5.071  1.00  0.00    -0.015 A 
HETATM   27  C   UNL     1      35.324 -13.245  -5.772  1.00  0.00     0.123 A 
HETATM   28  F   UNL     1      35.252 -14.468  -5.222  1.00  0.00    -0.206 F 
HETATM   29  C   UNL     1      34.753 -13.047  -7.027  1.00  0.00     0.043 A 
HETATM   30  C   UNL     1      34.823 -11.791  -7.622  1.00  0.00     0.003 A 
HETATM   31  C   UNL     1      35.457 -10.745  -6.953  1.00  0.00     0.001 A 
HETATM   32  C   UNL     1      36.020 -10.956  -5.689  1.00  0.00     0.011 A 
ENDBRANCH  24  26
ENDBRANCH  20  23
ENDBRANCH   2  19
TORSDOF 6
ENDMDL
