MODEL 1
REMARK VINA RESULT:      -8.0      0.000      0.000
REMARK  3 active torsions:
REMARK  status: ('A' for Active; 'I' for Inactive)
REMARK    1  A    between atoms: C_6  and  C_7 
REMARK       I    between atoms: C_7  and  N_8 
REMARK    2  A    between atoms: N_8  and  C_9 
REMARK    3  A    between atoms: C_11  and  C_12 
REMARK       I    between atoms: C_12  and  N_13 
ROOT
HETATM    1  C   UNL     1      42.582 -17.443   4.520  1.00  0.00     0.258 C 
HETATM    2  N   UNL     1      43.312 -16.286   4.334  1.00  0.00    -0.307 N 
HETATM    3  O   UNL     1      41.563 -17.602   5.178  1.00  0.00    -0.267 OA
HETATM    4  H   UNL     1      44.118 -16.333   3.730  1.00  0.00     0.170 HD
ENDROOT
BRANCH   2   5
HETATM    5  C   UNL     1      43.022 -15.052   4.928  1.00  0.00     0.131 A 
HETATM    6  N   UNL     1      43.707 -14.645   6.005  1.00  0.00    -0.226 NA
HETATM    7  C   UNL     1      43.391 -13.437   6.539  1.00  0.00     0.126 A 
HETATM    8  C   UNL     1      42.410 -12.602   6.031  1.00  0.00     0.037 A 
HETATM    9  C   UNL     1      41.709 -13.036   4.913  1.00  0.00     0.006 A 
HETATM   10  C   UNL     1      42.015 -14.279   4.356  1.00  0.00     0.050 A 
BRANCH   7  11
HETATM   11  C   UNL     1      44.178 -13.040   7.746  1.00  0.00     0.268 C 
HETATM   12  N   UNL     1      43.619 -12.036   8.491  1.00  0.00    -0.365 N 
HETATM   13  H   UNL     1      42.727 -11.641   8.195  1.00  0.00     0.159 HD
HETATM   14  H   UNL     1      44.074 -11.702   9.326  1.00  0.00     0.159 HD
HETATM   15  O   UNL     1      45.242 -13.566   8.046  1.00  0.00    -0.266 OA
ENDBRANCH   7  11
ENDBRANCH   2   5
BRANCH   1  16
HETATM   16  C   UNL     1      43.147 -18.607   3.785  1.00  0.00     0.044 A 
HETATM   17  C   UNL     1      42.770 -18.847   2.447  1.00  0.00    -0.045 A 
HETATM   18  C   UNL     1      43.272 -19.986   1.798  1.00  0.00     0.014 A 
HETATM   19  C   UNL     1      41.843 -17.932   1.694  1.00  0.00     0.049 C 
HETATM   20  C   UNL     1      44.154 -20.857   2.449  1.00  0.00    -0.061 A 
HETATM   21  C   UNL     1      44.723 -22.040   1.719  1.00  0.00     0.048 C 
HETATM   22  C   UNL     1      44.558 -20.574   3.759  1.00  0.00     0.014 A 
HETATM   23  C   UNL     1      44.055 -19.459   4.446  1.00  0.00    -0.045 A 
HETATM   24  C   UNL     1      44.521 -19.187   5.850  1.00  0.00     0.049 C 
ENDBRANCH   1  16
TORSDOF 3
ENDMDL
MODEL 2
REMARK VINA RESULT:      -7.9      2.742      3.712
REMARK  3 active torsions:
REMARK  status: ('A' for Active; 'I' for Inactive)
REMARK    1  A    between atoms: C_6  and  C_7 
REMARK       I    between atoms: C_7  and  N_8 
REMARK    2  A    between atoms: N_8  and  C_9 
REMARK    3  A    between atoms: C_11  and  C_12 
REMARK       I    between atoms: C_12  and  N_13 
ROOT
HETATM    1  C   UNL     1      43.022 -17.286   3.938  1.00  0.00     0.258 C 
HETATM    2  N   UNL     1      41.642 -17.271   3.890  1.00  0.00    -0.307 N 
HETATM    3  O   UNL     1      43.799 -16.355   3.778  1.00  0.00    -0.267 OA
HETATM    4  H   UNL     1      41.157 -18.136   4.077  1.00  0.00     0.170 HD
ENDROOT
BRANCH   2   5
HETATM    5  C   UNL     1      40.863 -16.147   3.593  1.00  0.00     0.131 A 
HETATM    6  N   UNL     1      40.584 -15.250   4.548  1.00  0.00    -0.226 NA
HETATM    7  C   UNL     1      39.829 -14.173   4.207  1.00  0.00     0.126 A 
HETATM    8  C   UNL     1      39.340 -13.947   2.931  1.00  0.00     0.037 A 
HETATM    9  C   UNL     1      39.639 -14.884   1.951  1.00  0.00     0.006 A 
HETATM   10  C   UNL     1      40.407 -16.001   2.286  1.00  0.00     0.050 A 
BRANCH   7  11
HETATM   11  C   UNL     1      39.538 -13.213   5.315  1.00  0.00     0.268 C 
HETATM   12  N   UNL     1      39.906 -13.645   6.561  1.00  0.00    -0.365 N 
HETATM   13  H   UNL     1      40.350 -14.558   6.654  1.00  0.00     0.159 HD
HETATM   14  H   UNL     1      39.753 -13.066   7.371  1.00  0.00     0.159 HD
HETATM   15  O   UNL     1      39.007 -12.125   5.128  1.00  0.00    -0.266 OA
ENDBRANCH   7  11
ENDBRANCH   2   5
BRANCH   1  16
HETATM   16  C   UNL     1      43.574 -18.632   4.249  1.00  0.00     0.044 A 
HETATM   17  C   UNL     1      43.718 -19.044   5.590  1.00  0.00    -0.045 A 
HETATM   18  C   UNL     1      44.298 -20.294   5.854  1.00  0.00     0.014 A 
HETATM   19  C   UNL     1      43.281 -18.188   6.748  1.00  0.00     0.049 C 
HETATM   20  C   UNL     1      44.702 -21.137   4.812  1.00  0.00    -0.061 A 
HETATM   21  C   UNL     1      45.270 -22.494   5.114  1.00  0.00     0.048 C 
HETATM   22  C   UNL     1      44.503 -20.734   3.486  1.00  0.00     0.014 A 
HETATM   23  C   UNL     1      43.951 -19.479   3.187  1.00  0.00    -0.045 A 
HETATM   24  C   UNL     1      43.747 -19.087   1.749  1.00  0.00     0.049 C 
ENDBRANCH   1  16
TORSDOF 3
ENDMDL
MODEL 3
REMARK VINA RESULT:      -7.8      2.722      3.291
REMARK  3 active torsions:
REMARK  status: ('A' for Active; 'I' for Inactive)
REMARK    1  A    between atoms: C_6  and  C_7 
REMARK       I    between atoms: C_7  and  N_8 
REMARK    2  A    between atoms: N_8  and  C_9 
REMARK    3  A    between atoms: C_11  and  C_12 
REMARK       I    between atoms: C_12  and  N_13 
ROOT
HETATM    1  C   UNL     1      43.089 -17.085   3.744  1.00  0.00     0.258 C 
HETATM    2  N   UNL     1      41.721 -17.034   3.923  1.00  0.00    -0.307 N 
HETATM    3  O   UNL     1      43.843 -16.193   3.381  1.00  0.00    -0.267 OA
HETATM    4  H   UNL     1      41.260 -17.866   4.259  1.00  0.00     0.170 HD
ENDROOT
BRANCH   2   5
HETATM    5  C   UNL     1      40.921 -15.914   3.667  1.00  0.00     0.131 A 
HETATM    6  N   UNL     1      40.566 -15.097   4.667  1.00  0.00    -0.226 NA
HETATM    7  C   UNL     1      39.794 -14.021   4.364  1.00  0.00     0.126 A 
HETATM    8  C   UNL     1      39.362 -13.717   3.084  1.00  0.00     0.037 A 
HETATM    9  C   UNL     1      39.740 -14.571   2.056  1.00  0.00     0.006 A 
HETATM   10  C   UNL     1      40.526 -15.687   2.351  1.00  0.00     0.050 A 
BRANCH   7  11
HETATM   11  C   UNL     1      39.417 -13.151   5.520  1.00  0.00     0.268 C 
HETATM   12  N   UNL     1      39.853 -13.597   6.739  1.00  0.00    -0.365 N 
HETATM   13  H   UNL     1      40.399 -14.457   6.783  1.00  0.00     0.159 HD
HETATM   14  H   UNL     1      39.651 -13.077   7.578  1.00  0.00     0.159 HD
HETATM   15  O   UNL     1      38.766 -12.123   5.392  1.00  0.00    -0.266 OA
ENDBRANCH   7  11
ENDBRANCH   2   5
BRANCH   1  16
HETATM   16  C   UNL     1      43.664 -18.419   4.070  1.00  0.00     0.044 A 
HETATM   17  C   UNL     1      43.817 -19.388   3.057  1.00  0.00    -0.045 A 
HETATM   18  C   UNL     1      44.305 -20.657   3.405  1.00  0.00     0.014 A 
HETATM   19  C   UNL     1      43.469 -19.113   1.619  1.00  0.00     0.049 C 
HETATM   20  C   UNL     1      44.663 -20.955   4.725  1.00  0.00    -0.061 A 
HETATM   21  C   UNL     1      45.234 -22.301   5.067  1.00  0.00     0.048 C 
HETATM   22  C   UNL     1      44.553 -19.964   5.707  1.00  0.00     0.014 A 
HETATM   23  C   UNL     1      44.044 -18.694   5.400  1.00  0.00    -0.045 A 
HETATM   24  C   UNL     1      43.949 -17.654   6.483  1.00  0.00     0.049 C 
ENDBRANCH   1  16
TORSDOF 3
ENDMDL
MODEL 4
REMARK VINA RESULT:      -7.7      4.293      6.419
REMARK  3 active torsions:
REMARK  status: ('A' for Active; 'I' for Inactive)
REMARK    1  A    between atoms: C_6  and  C_7 
REMARK       I    between atoms: C_7  and  N_8 
REMARK    2  A    between atoms: N_8  and  C_9 
REMARK    3  A    between atoms: C_11  and  C_12 
REMARK       I    between atoms: C_12  and  N_13 
ROOT
HETATM    1  C   UNL     1      42.224 -15.683   2.327  1.00  0.00     0.258 C 
HETATM    2  N   UNL     1      41.198 -16.102   1.503  1.00  0.00    -0.307 N 
HETATM    3  O   UNL     1      42.769 -14.589   2.367  1.00  0.00    -0.267 OA
HETATM    4  H   UNL     1      40.848 -17.040   1.629  1.00  0.00     0.170 HD
ENDROOT
BRANCH   2   5
HETATM    5  C   UNL     1      40.610 -15.325   0.498  1.00  0.00     0.131 A 
HETATM    6  N   UNL     1      41.057 -15.404  -0.763  1.00  0.00    -0.226 NA
HETATM    7  C   UNL     1      40.448 -14.633  -1.701  1.00  0.00     0.126 A 
HETATM    8  C   UNL     1      39.391 -13.781  -1.432  1.00  0.00     0.037 A 
HETATM    9  C   UNL     1      38.937 -13.711  -0.121  1.00  0.00     0.006 A 
HETATM   10  C   UNL     1      39.556 -14.490   0.858  1.00  0.00     0.050 A 
BRANCH   7  11
HETATM   11  C   UNL     1      40.997 -14.752  -3.087  1.00  0.00     0.268 C 
HETATM   12  N   UNL     1      42.265 -14.263  -3.245  1.00  0.00    -0.365 N 
HETATM   13  H   UNL     1      42.748 -13.872  -2.437  1.00  0.00     0.159 HD
HETATM   14  H   UNL     1      42.722 -14.301  -4.144  1.00  0.00     0.159 HD
HETATM   15  O   UNL     1      40.362 -15.243  -4.012  1.00  0.00    -0.266 OA
ENDBRANCH   7  11
ENDBRANCH   2   5
BRANCH   1  16
HETATM   16  C   UNL     1      42.665 -16.738   3.280  1.00  0.00     0.044 A 
HETATM   17  C   UNL     1      43.631 -17.687   2.885  1.00  0.00    -0.045 A 
HETATM   18  C   UNL     1      43.983 -18.705   3.783  1.00  0.00     0.014 A 
HETATM   19  C   UNL     1      44.290 -17.651   1.532  1.00  0.00     0.049 C 
HETATM   20  C   UNL     1      43.415 -18.770   5.061  1.00  0.00    -0.061 A 
HETATM   21  C   UNL     1      43.845 -19.835   6.027  1.00  0.00     0.048 C 
HETATM   22  C   UNL     1      42.497 -17.788   5.454  1.00  0.00     0.014 A 
HETATM   23  C   UNL     1      42.102 -16.772   4.572  1.00  0.00    -0.045 A 
HETATM   24  C   UNL     1      41.119 -15.733   5.036  1.00  0.00     0.049 C 
ENDBRANCH   1  16
TORSDOF 3
ENDMDL
MODEL 5
REMARK VINA RESULT:      -7.7      2.888      4.457
REMARK  3 active torsions:
REMARK  status: ('A' for Active; 'I' for Inactive)
REMARK    1  A    between atoms: C_6  and  C_7 
REMARK       I    between atoms: C_7  and  N_8 
REMARK    2  A    between atoms: N_8  and  C_9 
REMARK    3  A    between atoms: C_11  and  C_12 
REMARK       I    between atoms: C_12  and  N_13 
ROOT
HETATM    1  C   UNL     1      43.160 -17.056   3.488  1.00  0.00     0.258 C 
HETATM    2  N   UNL     1      41.851 -16.892   3.895  1.00  0.00    -0.307 N 
HETATM    3  O   UNL     1      43.876 -16.264   2.891  1.00  0.00    -0.267 OA
HETATM    4  H   UNL     1      41.421 -17.648   4.407  1.00  0.00     0.170 HD
ENDROOT
BRANCH   2   5
HETATM    5  C   UNL     1      41.071 -15.757   3.645  1.00  0.00     0.131 A 
HETATM    6  N   UNL     1      40.316 -15.689   2.541  1.00  0.00    -0.226 NA
HETATM    7  C   UNL     1      39.573 -14.569   2.348  1.00  0.00     0.126 A 
HETATM    8  C   UNL     1      39.545 -13.500   3.228  1.00  0.00     0.037 A 
HETATM    9  C   UNL     1      40.331 -13.586   4.370  1.00  0.00     0.006 A 
HETATM   10  C   UNL     1      41.108 -14.726   4.581  1.00  0.00     0.050 A 
BRANCH   7  11
HETATM   11  C   UNL     1      38.760 -14.542   1.093  1.00  0.00     0.268 C 
HETATM   12  N   UNL     1      39.480 -14.709  -0.060  1.00  0.00    -0.365 N 
HETATM   13  H   UNL     1      40.488 -14.848   0.004  1.00  0.00     0.159 HD
HETATM   14  H   UNL     1      39.020 -14.709  -0.957  1.00  0.00     0.159 HD
HETATM   15  O   UNL     1      37.547 -14.379   1.092  1.00  0.00    -0.266 OA
ENDBRANCH   7  11
ENDBRANCH   2   5
BRANCH   1  16
HETATM   16  C   UNL     1      43.723 -18.379   3.872  1.00  0.00     0.044 A 
HETATM   17  C   UNL     1      43.768 -19.428   2.929  1.00  0.00    -0.045 A 
HETATM   18  C   UNL     1      44.247 -20.682   3.337  1.00  0.00     0.014 A 
HETATM   19  C   UNL     1      43.313 -19.252   1.506  1.00  0.00     0.049 C 
HETATM   20  C   UNL     1      44.702 -20.891   4.644  1.00  0.00    -0.061 A 
HETATM   21  C   UNL     1      45.261 -22.225   5.046  1.00  0.00     0.048 C 
HETATM   22  C   UNL     1      44.698 -19.825   5.552  1.00  0.00     0.014 A 
HETATM   23  C   UNL     1      44.200 -18.565   5.185  1.00  0.00    -0.045 A 
HETATM   24  C   UNL     1      44.221 -17.444   6.188  1.00  0.00     0.049 C 
ENDBRANCH   1  16
TORSDOF 3
ENDMDL
MODEL 6
REMARK VINA RESULT:      -7.6      4.209      6.517
REMARK  3 active torsions:
REMARK  status: ('A' for Active; 'I' for Inactive)
REMARK    1  A    between atoms: C_6  and  C_7 
REMARK       I    between atoms: C_7  and  N_8 
REMARK    2  A    between atoms: N_8  and  C_9 
REMARK    3  A    between atoms: C_11  and  C_12 
REMARK       I    between atoms: C_12  and  N_13 
ROOT
HETATM    1  C   UNL     1      41.167 -16.759   2.291  1.00  0.00     0.258 C 
HETATM    2  N   UNL     1      41.563 -15.644   1.578  1.00  0.00    -0.307 N 
HETATM    3  O   UNL     1      40.171 -17.450   2.130  1.00  0.00    -0.267 OA
HETATM    4  H   UNL     1      42.438 -15.211   1.833  1.00  0.00     0.170 HD
ENDROOT
BRANCH   2   5
HETATM    5  C   UNL     1      40.837 -15.063   0.532  1.00  0.00     0.131 A 
HETATM    6  N   UNL     1      41.246 -15.212  -0.735  1.00  0.00    -0.226 NA
HETATM    7  C   UNL     1      40.502 -14.633  -1.713  1.00  0.00     0.126 A 
HETATM    8  C   UNL     1      39.347 -13.908  -1.478  1.00  0.00     0.037 A 
HETATM    9  C   UNL     1      38.934 -13.764  -0.160  1.00  0.00     0.006 A 
HETATM   10  C   UNL     1      39.690 -14.344   0.860  1.00  0.00     0.050 A 
BRANCH   7  11
HETATM   11  C   UNL     1      41.012 -14.820  -3.106  1.00  0.00     0.268 C 
HETATM   12  N   UNL     1      42.266 -14.319  -3.330  1.00  0.00    -0.365 N 
HETATM   13  H   UNL     1      42.765 -13.874  -2.560  1.00  0.00     0.159 HD
HETATM   14  H   UNL     1      42.697 -14.400  -4.238  1.00  0.00     0.159 HD
HETATM   15  O   UNL     1      40.361 -15.374  -3.982  1.00  0.00    -0.266 OA
ENDBRANCH   7  11
ENDBRANCH   2   5
BRANCH   1  16
HETATM   16  C   UNL     1      42.128 -17.128   3.365  1.00  0.00     0.044 A 
HETATM   17  C   UNL     1      42.002 -16.560   4.650  1.00  0.00    -0.045 A 
HETATM   18  C   UNL     1      42.959 -16.880   5.626  1.00  0.00     0.014 A 
HETATM   19  C   UNL     1      40.886 -15.617   5.009  1.00  0.00     0.049 C 
HETATM   20  C   UNL     1      44.005 -17.768   5.348  1.00  0.00    -0.061 A 
HETATM   21  C   UNL     1      44.986 -18.139   6.422  1.00  0.00     0.048 C 
HETATM   22  C   UNL     1      44.083 -18.362   4.083  1.00  0.00     0.014 A 
HETATM   23  C   UNL     1      43.160 -18.044   3.076  1.00  0.00    -0.045 A 
HETATM   24  C   UNL     1      43.275 -18.711   1.733  1.00  0.00     0.049 C 
ENDBRANCH   1  16
TORSDOF 3
ENDMDL
MODEL 7
REMARK VINA RESULT:      -7.5      1.832      3.039
REMARK  3 active torsions:
REMARK  status: ('A' for Active; 'I' for Inactive)
REMARK    1  A    between atoms: C_6  and  C_7 
REMARK       I    between atoms: C_7  and  N_8 
REMARK    2  A    between atoms: N_8  and  C_9 
REMARK    3  A    between atoms: C_11  and  C_12 
REMARK       I    between atoms: C_12  and  N_13 
ROOT
HETATM    1  C   UNL     1      42.656 -17.511   4.523  1.00  0.00     0.258 C 
HETATM    2  N   UNL     1      43.452 -16.397   4.353  1.00  0.00    -0.307 N 
HETATM    3  O   UNL     1      41.611 -17.611   5.152  1.00  0.00    -0.267 OA
HETATM    4  H   UNL     1      44.271 -16.490   3.771  1.00  0.00     0.170 HD
ENDROOT
BRANCH   2   5
HETATM    5  C   UNL     1      43.213 -15.146   4.932  1.00  0.00     0.131 A 
HETATM    6  N   UNL     1      42.345 -14.296   4.367  1.00  0.00    -0.226 NA
HETATM    7  C   UNL     1      42.145 -13.097   4.973  1.00  0.00     0.126 A 
HETATM    8  C   UNL     1      42.778 -12.707   6.141  1.00  0.00     0.037 A 
HETATM    9  C   UNL     1      43.673 -13.599   6.717  1.00  0.00     0.006 A 
HETATM   10  C   UNL     1      43.898 -14.832   6.104  1.00  0.00     0.050 A 
BRANCH   7  11
HETATM   11  C   UNL     1      41.177 -12.184   4.291  1.00  0.00     0.268 C 
HETATM   12  N   UNL     1      41.666 -11.558   3.176  1.00  0.00    -0.365 N 
HETATM   13  H   UNL     1      42.622 -11.752   2.881  1.00  0.00     0.159 HD
HETATM   14  H   UNL     1      41.086 -10.925   2.647  1.00  0.00     0.159 HD
HETATM   15  O   UNL     1      40.036 -12.004   4.698  1.00  0.00    -0.266 OA
ENDBRANCH   7  11
ENDBRANCH   2   5
BRANCH   1  16
HETATM   16  C   UNL     1      43.177 -18.708   3.809  1.00  0.00     0.044 A 
HETATM   17  C   UNL     1      44.041 -19.605   4.471  1.00  0.00    -0.045 A 
HETATM   18  C   UNL     1      44.565 -20.691   3.754  1.00  0.00     0.014 A 
HETATM   19  C   UNL     1      44.427 -19.434   5.915  1.00  0.00     0.049 C 
HETATM   20  C   UNL     1      44.220 -20.906   2.414  1.00  0.00    -0.061 A 
HETATM   21  C   UNL     1      44.749 -22.105   1.681  1.00  0.00     0.048 C 
HETATM   22  C   UNL     1      43.320 -20.035   1.789  1.00  0.00     0.014 A 
HETATM   23  C   UNL     1      42.798 -18.924   2.468  1.00  0.00    -0.045 A 
HETATM   24  C   UNL     1      41.828 -18.017   1.762  1.00  0.00     0.049 C 
ENDBRANCH   1  16
TORSDOF 3
ENDMDL
MODEL 8
REMARK VINA RESULT:      -7.4      3.280      5.210
REMARK  3 active torsions:
REMARK  status: ('A' for Active; 'I' for Inactive)
REMARK    1  A    between atoms: C_6  and  C_7 
REMARK       I    between atoms: C_7  and  N_8 
REMARK    2  A    between atoms: N_8  and  C_9 
REMARK    3  A    between atoms: C_11  and  C_12 
REMARK       I    between atoms: C_12  and  N_13 
ROOT
HETATM    1  C   UNL     1      43.057 -17.083   3.153  1.00  0.00     0.258 C 
HETATM    2  N   UNL     1      41.684 -17.059   3.008  1.00  0.00    -0.307 N 
HETATM    3  O   UNL     1      43.865 -16.201   2.895  1.00  0.00    -0.267 OA
HETATM    4  H   UNL     1      41.167 -17.875   3.302  1.00  0.00     0.170 HD
ENDROOT
BRANCH   2   5
HETATM    5  C   UNL     1      40.953 -15.990   2.477  1.00  0.00     0.131 A 
HETATM    6  N   UNL     1      40.956 -15.762   1.157  1.00  0.00    -0.226 NA
HETATM    7  C   UNL     1      40.225 -14.716   0.693  1.00  0.00     0.126 A 
HETATM    8  C   UNL     1      39.475 -13.879   1.501  1.00  0.00     0.037 A 
HETATM    9  C   UNL     1      39.480 -14.128   2.867  1.00  0.00     0.006 A 
HETATM   10  C   UNL     1      40.232 -15.194   3.364  1.00  0.00     0.050 A 
BRANCH   7  11
HETATM   11  C   UNL     1      40.275 -14.501  -0.786  1.00  0.00     0.268 C 
HETATM   12  N   UNL     1      40.595 -15.613  -1.517  1.00  0.00    -0.365 N 
HETATM   13  H   UNL     1      40.762 -16.492  -1.029  1.00  0.00     0.159 HD
HETATM   14  H   UNL     1      40.650 -15.569  -2.523  1.00  0.00     0.159 HD
HETATM   15  O   UNL     1      40.053 -13.415  -1.307  1.00  0.00    -0.266 OA
ENDBRANCH   7  11
ENDBRANCH   2   5
BRANCH   1  16
HETATM   16  C   UNL     1      43.555 -18.366   3.719  1.00  0.00     0.044 A 
HETATM   17  C   UNL     1      43.737 -18.500   5.111  1.00  0.00    -0.045 A 
HETATM   18  C   UNL     1      44.266 -19.700   5.610  1.00  0.00     0.014 A 
HETATM   19  C   UNL     1      43.394 -17.400   6.079  1.00  0.00     0.049 C 
HETATM   20  C   UNL     1      44.583 -20.761   4.753  1.00  0.00    -0.061 A 
HETATM   21  C   UNL     1      45.096 -22.057   5.312  1.00  0.00     0.048 C 
HETATM   22  C   UNL     1      44.346 -20.629   3.380  1.00  0.00     0.014 A 
HETATM   23  C   UNL     1      43.844 -19.434   2.844  1.00  0.00    -0.045 A 
HETATM   24  C   UNL     1      43.597 -19.335   1.364  1.00  0.00     0.049 C 
ENDBRANCH   1  16
TORSDOF 3
ENDMDL
MODEL 9
REMARK VINA RESULT:      -7.4      2.838      4.526
REMARK  3 active torsions:
REMARK  status: ('A' for Active; 'I' for Inactive)
REMARK    1  A    between atoms: C_6  and  C_7 
REMARK       I    between atoms: C_7  and  N_8 
REMARK    2  A    between atoms: N_8  and  C_9 
REMARK    3  A    between atoms: C_11  and  C_12 
REMARK       I    between atoms: C_12  and  N_13 
ROOT
HETATM    1  C   UNL     1      43.111 -17.130   4.247  1.00  0.00     0.258 C 
HETATM    2  N   UNL     1      41.732 -17.067   4.270  1.00  0.00    -0.307 N 
HETATM    3  O   UNL     1      43.912 -16.218   4.098  1.00  0.00    -0.267 OA
HETATM    4  H   UNL     1      41.225 -17.924   4.434  1.00  0.00     0.170 HD
ENDROOT
BRANCH   2   5
HETATM    5  C   UNL     1      40.981 -15.902   4.076  1.00  0.00     0.131 A 
HETATM    6  N   UNL     1      40.562 -15.567   2.848  1.00  0.00    -0.226 NA
HETATM    7  C   UNL     1      39.831 -14.430   2.716  1.00  0.00     0.126 A 
HETATM    8  C   UNL     1      39.489 -13.604   3.773  1.00  0.00     0.037 A 
HETATM    9  C   UNL     1      39.928 -13.965   5.040  1.00  0.00     0.006 A 
HETATM   10  C   UNL     1      40.688 -15.126   5.195  1.00  0.00     0.050 A 
BRANCH   7  11
HETATM   11  C   UNL     1      39.401 -14.098   1.322  1.00  0.00     0.268 C 
HETATM   12  N   UNL     1      39.695 -15.056   0.389  1.00  0.00    -0.365 N 
HETATM   13  H   UNL     1      40.161 -15.911   0.689  1.00  0.00     0.159 HD
HETATM   14  H   UNL     1      39.442 -14.925  -0.578  1.00  0.00     0.159 HD
HETATM   15  O   UNL     1      38.835 -13.052   1.034  1.00  0.00    -0.266 OA
ENDBRANCH   7  11
ENDBRANCH   2   5
BRANCH   1  16
HETATM   16  C   UNL     1      43.628 -18.510   4.453  1.00  0.00     0.044 A 
HETATM   17  C   UNL     1      43.751 -19.030   5.759  1.00  0.00    -0.045 A 
HETATM   18  C   UNL     1      44.298 -20.311   5.927  1.00  0.00     0.014 A 
HETATM   19  C   UNL     1      43.323 -18.257   6.978  1.00  0.00     0.049 C 
HETATM   20  C   UNL     1      44.692 -21.078   4.824  1.00  0.00    -0.061 A 
HETATM   21  C   UNL     1      45.225 -22.468   5.022  1.00  0.00     0.048 C 
HETATM   22  C   UNL     1      44.514 -20.567   3.533  1.00  0.00     0.014 A 
HETATM   23  C   UNL     1      43.995 -19.280   3.330  1.00  0.00    -0.045 A 
HETATM   24  C   UNL     1      43.813 -18.770   1.927  1.00  0.00     0.049 C 
ENDBRANCH   1  16
TORSDOF 3
ENDMDL
MODEL 10
REMARK VINA RESULT:      -7.3      2.160      2.791
REMARK  3 active torsions:
REMARK  status: ('A' for Active; 'I' for Inactive)
REMARK    1  A    between atoms: C_6  and  C_7 
REMARK       I    between atoms: C_7  and  N_8 
REMARK    2  A    between atoms: N_8  and  C_9 
REMARK    3  A    between atoms: C_11  and  C_12 
REMARK       I    between atoms: C_12  and  N_13 
ROOT
HETATM    1  C   UNL     1      42.429 -17.169   4.232  1.00  0.00     0.258 C 
HETATM    2  N   UNL     1      43.096 -16.006   3.902  1.00  0.00    -0.307 N 
HETATM    3  O   UNL     1      41.423 -17.301   4.917  1.00  0.00    -0.267 OA
HETATM    4  H   UNL     1      43.900 -16.082   3.297  1.00  0.00     0.170 HD
ENDROOT
BRANCH   2   5
HETATM    5  C   UNL     1      42.744 -14.727   4.348  1.00  0.00     0.131 A 
HETATM    6  N   UNL     1      42.109 -13.878   3.529  1.00  0.00    -0.226 NA
HETATM    7  C   UNL     1      41.785 -12.651   4.014  1.00  0.00     0.126 A 
HETATM    8  C   UNL     1      42.066 -12.231   5.303  1.00  0.00     0.037 A 
HETATM    9  C   UNL     1      42.723 -13.122   6.142  1.00  0.00     0.006 A 
HETATM   10  C   UNL     1      43.071 -14.385   5.658  1.00  0.00     0.050 A 
BRANCH   7  11
HETATM   11  C   UNL     1      41.089 -11.742   3.052  1.00  0.00     0.268 C 
HETATM   12  N   UNL     1      40.858 -12.282   1.816  1.00  0.00    -0.365 N 
HETATM   13  H   UNL     1      41.153 -13.241   1.634  1.00  0.00     0.159 HD
HETATM   14  H   UNL     1      40.392 -11.747   1.100  1.00  0.00     0.159 HD
HETATM   15  O   UNL     1      40.754 -10.600   3.343  1.00  0.00    -0.266 OA
ENDBRANCH   7  11
ENDBRANCH   2   5
BRANCH   1  16
HETATM   16  C   UNL     1      43.050 -18.381   3.633  1.00  0.00     0.044 A 
HETATM   17  C   UNL     1      42.684 -18.793   2.334  1.00  0.00    -0.045 A 
HETATM   18  C   UNL     1      43.241 -19.973   1.819  1.00  0.00     0.014 A 
HETATM   19  C   UNL     1      41.712 -18.018   1.487  1.00  0.00     0.049 C 
HETATM   20  C   UNL     1      44.167 -20.719   2.560  1.00  0.00    -0.061 A 
HETATM   21  C   UNL     1      44.792 -21.949   1.969  1.00  0.00     0.048 C 
HETATM   22  C   UNL     1      44.557 -20.265   3.826  1.00  0.00     0.014 A 
HETATM   23  C   UNL     1      44.000 -19.105   4.382  1.00  0.00    -0.045 A 
HETATM   24  C   UNL     1      44.453 -18.648   5.742  1.00  0.00     0.049 C 
ENDBRANCH   1  16
TORSDOF 3
ENDMDL
