MODEL 1
REMARK VINA RESULT:      -8.8      0.000      0.000
REMARK  5 active torsions:
REMARK  status: ('A' for Active; 'I' for Inactive)
REMARK    1  A    between atoms: C_2  and  C_3 
REMARK    2  A    between atoms: C_8  and  C_9 
REMARK       I    between atoms: C_9  and  N_10 
REMARK    3  A    between atoms: N_10  and  C_11 
REMARK    4  A    between atoms: C_11  and  C_12 
REMARK    5  A    between atoms: C_19  and  C_20 
ROOT
HETATM    1  C   UNL     1      43.987 -16.637   3.748  1.00  0.00     0.118 C 
HETATM    2  N   UNL     1      43.339 -16.381   2.468  1.00  0.00    -0.366 N 
HETATM    3  C   UNL     1      42.071 -15.936   2.365  1.00  0.00     0.123 A 
HETATM    4  N   UNL     1      41.301 -15.688   3.466  1.00  0.00    -0.240 N 
HETATM    5  N   UNL     1      40.090 -15.179   3.184  1.00  0.00    -0.165 NA
HETATM    6  C   UNL     1      40.058 -15.166   1.831  1.00  0.00     0.148 A 
HETATM    7  C   UNL     1      41.287 -15.632   1.285  1.00  0.00     0.088 A 
HETATM    8  C   UNL     1      41.754 -15.872   4.829  1.00  0.00     0.221 C 
HETATM    9  C   UNL     1      43.293 -15.863   4.885  1.00  0.00     0.066 C 
HETATM   10  H   UNL     1      43.888 -16.609   1.638  1.00  0.00     0.161 HD
ENDROOT
BRANCH   6  11
HETATM   11  C   UNL     1      38.889 -14.697   1.071  1.00  0.00     0.272 C 
HETATM   12  N   UNL     1      39.206 -14.151  -0.152  1.00  0.00    -0.353 N 
HETATM   13  H   UNL     1      40.174 -14.263  -0.448  1.00  0.00     0.162 HD
HETATM   14  O   UNL     1      37.740 -14.800   1.492  1.00  0.00    -0.266 OA
BRANCH  12  15
HETATM   15  C   UNL     1      38.199 -13.852  -1.147  1.00  0.00     0.155 C 
BRANCH  15  16
HETATM   16  C   UNL     1      38.665 -14.228  -2.552  1.00  0.00     0.139 C 
HETATM   17  O   UNL     1      39.902 -14.968  -2.494  1.00  0.00    -0.384 OA
HETATM   18  C   UNL     1      39.852 -16.010  -3.482  1.00  0.00     0.168 C 
HETATM   19  C   UNL     1      38.583 -15.806  -4.283  1.00  0.00     0.029 C 
HETATM   20  C   UNL     1      37.682 -15.127  -3.283  1.00  0.00     0.035 C 
ENDBRANCH  15  16
ENDBRANCH  12  15
ENDBRANCH   6  11
BRANCH   8  21
HETATM   21  C   UNL     1      41.125 -17.111   5.426  1.00  0.00     0.409 C 
HETATM   22  F   UNL     1      40.919 -18.099   4.536  1.00  0.00    -0.169 F 
HETATM   23  F   UNL     1      41.927 -17.615   6.399  1.00  0.00    -0.169 F 
HETATM   24  F   UNL     1      39.938 -16.843   6.016  1.00  0.00    -0.169 F 
ENDBRANCH   8  21
BRANCH   1  25
HETATM   25  C   UNL     1      44.192 -18.121   4.008  1.00  0.00    -0.034 A 
HETATM   26  C   UNL     1      44.544 -18.637   5.266  1.00  0.00     0.011 A 
HETATM   27  C   UNL     1      44.705 -20.012   5.463  1.00  0.00     0.026 A 
HETATM   28  C   UNL     1      44.504 -20.904   4.410  1.00  0.00     0.055 A 
HETATM   29  C   UNL     1      44.143 -20.414   3.153  1.00  0.00     0.056 A 
HETATM   30 CL   UNL     1      44.712 -22.588   4.727  1.00  0.00    -0.083 Cl
HETATM   31  C   UNL     1      43.990 -19.035   2.957  1.00  0.00     0.034 A 
HETATM   32 CL   UNL     1      43.861 -21.451   1.799  1.00  0.00    -0.083 Cl
ENDBRANCH   1  25
TORSDOF 5
ENDMDL
MODEL 2
REMARK VINA RESULT:      -8.6      4.426      7.293
REMARK  5 active torsions:
REMARK  status: ('A' for Active; 'I' for Inactive)
REMARK    1  A    between atoms: C_2  and  C_3 
REMARK    2  A    between atoms: C_8  and  C_9 
REMARK       I    between atoms: C_9  and  N_10 
REMARK    3  A    between atoms: N_10  and  C_11 
REMARK    4  A    between atoms: C_11  and  C_12 
REMARK    5  A    between atoms: C_19  and  C_20 
ROOT
HETATM    1  C   UNL     1      41.074 -16.954   3.262  1.00  0.00     0.118 C 
HETATM    2  N   UNL     1      40.408 -16.427   4.446  1.00  0.00    -0.366 N 
HETATM    3  C   UNL     1      40.577 -15.160   4.878  1.00  0.00     0.123 A 
HETATM    4  N   UNL     1      41.389 -14.277   4.225  1.00  0.00    -0.240 N 
HETATM    5  N   UNL     1      41.383 -13.039   4.748  1.00  0.00    -0.165 NA
HETATM    6  C   UNL     1      40.581 -13.155   5.831  1.00  0.00     0.148 A 
HETATM    7  C   UNL     1      40.056 -14.473   5.941  1.00  0.00     0.088 A 
HETATM    8  C   UNL     1      42.137 -14.597   3.027  1.00  0.00     0.221 C 
HETATM    9  C   UNL     1      41.515 -15.816   2.321  1.00  0.00     0.066 C 
HETATM   10  H   UNL     1      39.838 -17.091   4.969  1.00  0.00     0.161 HD
ENDROOT
BRANCH   6  11
HETATM   11  C   UNL     1      40.300 -12.028   6.733  1.00  0.00     0.272 C 
HETATM   12  N   UNL     1      41.414 -11.543   7.379  1.00  0.00    -0.353 N 
HETATM   13  H   UNL     1      42.307 -11.913   7.058  1.00  0.00     0.162 HD
HETATM   14  O   UNL     1      39.173 -11.562   6.881  1.00  0.00    -0.266 OA
BRANCH  12  15
HETATM   15  C   UNL     1      41.397 -10.299   8.118  1.00  0.00     0.155 C 
BRANCH  15  16
HETATM   16  C   UNL     1      42.478 -10.269   9.197  1.00  0.00     0.139 C 
HETATM   17  O   UNL     1      41.909 -10.560  10.491  1.00  0.00    -0.384 OA
HETATM   18  C   UNL     1      42.834 -11.387  11.216  1.00  0.00     0.168 C 
HETATM   19  C   UNL     1      44.094 -11.487  10.381  1.00  0.00     0.029 C 
HETATM   20  C   UNL     1      43.561 -11.312   8.980  1.00  0.00     0.035 C 
ENDBRANCH  15  16
ENDBRANCH  12  15
ENDBRANCH   6  11
BRANCH   8  21
HETATM   21  C   UNL     1      43.604 -14.759   3.355  1.00  0.00     0.409 C 
HETATM   22  F   UNL     1      44.293 -13.602   3.353  1.00  0.00    -0.169 F 
HETATM   23  F   UNL     1      43.746 -15.303   4.590  1.00  0.00    -0.169 F 
HETATM   24  F   UNL     1      44.225 -15.601   2.498  1.00  0.00    -0.169 F 
ENDBRANCH   8  21
BRANCH   1  25
HETATM   25  C   UNL     1      42.157 -17.965   3.606  1.00  0.00    -0.034 A 
HETATM   26  C   UNL     1      42.922 -18.629   2.634  1.00  0.00     0.011 A 
HETATM   27  C   UNL     1      43.920 -19.537   2.998  1.00  0.00     0.026 A 
HETATM   28  C   UNL     1      44.185 -19.793   4.343  1.00  0.00     0.055 A 
HETATM   29  C   UNL     1      43.443 -19.136   5.327  1.00  0.00     0.056 A 
HETATM   30 CL   UNL     1      45.437 -20.921   4.720  1.00  0.00    -0.083 Cl
HETATM   31  C   UNL     1      42.439 -18.231   4.959  1.00  0.00     0.034 A 
HETATM   32 CL   UNL     1      43.717 -19.384   7.016  1.00  0.00    -0.083 Cl
ENDBRANCH   1  25
TORSDOF 5
ENDMDL
MODEL 3
REMARK VINA RESULT:      -8.1      4.277      7.978
REMARK  5 active torsions:
REMARK  status: ('A' for Active; 'I' for Inactive)
REMARK    1  A    between atoms: C_2  and  C_3 
REMARK    2  A    between atoms: C_8  and  C_9 
REMARK       I    between atoms: C_9  and  N_10 
REMARK    3  A    between atoms: N_10  and  C_11 
REMARK    4  A    between atoms: C_11  and  C_12 
REMARK    5  A    between atoms: C_19  and  C_20 
ROOT
HETATM    1  C   UNL     1      38.724 -13.932   1.087  1.00  0.00     0.118 C 
HETATM    2  N   UNL     1      39.083 -15.335   1.252  1.00  0.00    -0.366 N 
HETATM    3  C   UNL     1      39.984 -15.758   2.161  1.00  0.00     0.123 A 
HETATM    4  N   UNL     1      40.624 -14.891   3.001  1.00  0.00    -0.240 N 
HETATM    5  N   UNL     1      41.432 -15.489   3.893  1.00  0.00    -0.165 NA
HETATM    6  C   UNL     1      41.358 -16.798   3.561  1.00  0.00     0.148 A 
HETATM    7  C   UNL     1      40.456 -17.003   2.480  1.00  0.00     0.088 A 
HETATM    8  C   UNL     1      40.408 -13.459   3.006  1.00  0.00     0.221 C 
HETATM    9  C   UNL     1      39.052 -13.123   2.356  1.00  0.00     0.066 C 
HETATM   10  H   UNL     1      38.648 -15.985   0.598  1.00  0.00     0.161 HD
ENDROOT
BRANCH   6  11
HETATM   11  C   UNL     1      42.114 -17.840   4.273  1.00  0.00     0.272 C 
HETATM   12  N   UNL     1      43.240 -18.264   3.604  1.00  0.00    -0.353 N 
HETATM   13  H   UNL     1      43.496 -17.720   2.782  1.00  0.00     0.162 HD
HETATM   14  O   UNL     1      41.771 -18.276   5.369  1.00  0.00    -0.266 OA
BRANCH  12  15
HETATM   15  C   UNL     1      44.241 -19.100   4.231  1.00  0.00     0.155 C 
BRANCH  15  16
HETATM   16  C   UNL     1      44.740 -20.189   3.284  1.00  0.00     0.139 C 
HETATM   17  O   UNL     1      44.858 -21.448   3.978  1.00  0.00    -0.384 OA
HETATM   18  C   UNL     1      44.421 -22.494   3.095  1.00  0.00     0.168 C 
HETATM   19  C   UNL     1      44.160 -21.859   1.745  1.00  0.00     0.029 C 
HETATM   20  C   UNL     1      43.793 -20.446   2.124  1.00  0.00     0.035 C 
ENDBRANCH  15  16
ENDBRANCH  12  15
ENDBRANCH   6  11
BRANCH   8  21
HETATM   21  C   UNL     1      41.584 -12.751   2.372  1.00  0.00     0.409 C 
HETATM   22  F   UNL     1      42.609 -12.534   3.217  1.00  0.00    -0.169 F 
HETATM   23  F   UNL     1      42.070 -13.490   1.341  1.00  0.00    -0.169 F 
HETATM   24  F   UNL     1      41.233 -11.555   1.847  1.00  0.00    -0.169 F 
ENDBRANCH   8  21
BRANCH   1  25
HETATM   25  C   UNL     1      39.257 -13.344  -0.210  1.00  0.00    -0.034 A 
HETATM   26  C   UNL     1      39.077 -12.000  -0.573  1.00  0.00     0.011 A 
HETATM   27  C   UNL     1      39.601 -11.499  -1.769  1.00  0.00     0.026 A 
HETATM   28  C   UNL     1      40.328 -12.327  -2.623  1.00  0.00     0.055 A 
HETATM   29  C   UNL     1      40.529 -13.665  -2.276  1.00  0.00     0.056 A 
HETATM   30 CL   UNL     1      40.953 -11.639  -4.077  1.00  0.00    -0.083 Cl
HETATM   31  C   UNL     1      39.997 -14.166  -1.081  1.00  0.00     0.034 A 
HETATM   32 CL   UNL     1      41.431 -14.755  -3.269  1.00  0.00    -0.083 Cl
ENDBRANCH   1  25
TORSDOF 5
ENDMDL
MODEL 4
REMARK VINA RESULT:      -8.1      4.849      8.321
REMARK  5 active torsions:
REMARK  status: ('A' for Active; 'I' for Inactive)
REMARK    1  A    between atoms: C_2  and  C_3 
REMARK    2  A    between atoms: C_8  and  C_9 
REMARK       I    between atoms: C_9  and  N_10 
REMARK    3  A    between atoms: N_10  and  C_11 
REMARK    4  A    between atoms: C_11  and  C_12 
REMARK    5  A    between atoms: C_19  and  C_20 
ROOT
HETATM    1  C   UNL     1      39.771 -14.315  -0.636  1.00  0.00     0.118 C 
HETATM    2  N   UNL     1      40.601 -15.477  -0.344  1.00  0.00    -0.366 N 
HETATM    3  C   UNL     1      40.857 -15.898   0.911  1.00  0.00     0.123 A 
HETATM    4  N   UNL     1      40.348 -15.258   2.005  1.00  0.00    -0.240 N 
HETATM    5  N   UNL     1      40.642 -15.853   3.173  1.00  0.00    -0.165 NA
HETATM    6  C   UNL     1      41.436 -16.886   2.812  1.00  0.00     0.148 A 
HETATM    7  C   UNL     1      41.591 -16.945   1.399  1.00  0.00     0.088 A 
HETATM    8  C   UNL     1      39.497 -14.087   1.936  1.00  0.00     0.221 C 
HETATM    9  C   UNL     1      38.839 -13.988   0.547  1.00  0.00     0.066 C 
HETATM   10  H   UNL     1      41.026 -15.934  -1.151  1.00  0.00     0.161 HD
ENDROOT
BRANCH   6  11
HETATM   11  C   UNL     1      42.021 -17.815   3.792  1.00  0.00     0.272 C 
HETATM   12  N   UNL     1      43.192 -18.403   3.368  1.00  0.00    -0.353 N 
HETATM   13  H   UNL     1      43.588 -18.028   2.508  1.00  0.00     0.162 HD
HETATM   14  O   UNL     1      41.512 -18.029   4.888  1.00  0.00    -0.266 OA
BRANCH  12  15
HETATM   15  C   UNL     1      44.045 -19.155   4.262  1.00  0.00     0.155 C 
BRANCH  15  16
HETATM   16  C   UNL     1      44.750 -20.300   3.539  1.00  0.00     0.139 C 
HETATM   17  O   UNL     1      44.770 -21.484   4.363  1.00  0.00    -0.384 OA
HETATM   18  C   UNL     1      44.543 -22.626   3.520  1.00  0.00     0.168 C 
HETATM   19  C   UNL     1      44.528 -22.129   2.089  1.00  0.00     0.029 C 
HETATM   20  C   UNL     1      44.053 -20.707   2.251  1.00  0.00     0.035 C 
ENDBRANCH  15  16
ENDBRANCH  12  15
ENDBRANCH   6  11
BRANCH   8  21
HETATM   21  C   UNL     1      40.272 -12.853   2.337  1.00  0.00     0.409 C 
HETATM   22  F   UNL     1      39.819 -11.718   1.774  1.00  0.00    -0.169 F 
HETATM   23  F   UNL     1      40.207 -12.681   3.683  1.00  0.00    -0.169 F 
HETATM   24  F   UNL     1      41.586 -12.959   2.034  1.00  0.00    -0.169 F 
ENDBRANCH   8  21
BRANCH   1  25
HETATM   25  C   UNL     1      40.581 -13.141  -1.164  1.00  0.00    -0.034 A 
HETATM   26  C   UNL     1      41.977 -13.177  -1.309  1.00  0.00     0.011 A 
HETATM   27  C   UNL     1      42.679 -12.079  -1.816  1.00  0.00     0.026 A 
HETATM   28  C   UNL     1      41.999 -10.924  -2.202  1.00  0.00     0.055 A 
HETATM   29  C   UNL     1      40.609 -10.870  -2.075  1.00  0.00     0.056 A 
HETATM   30 CL   UNL     1      42.928  -9.610  -2.826  1.00  0.00    -0.083 Cl
HETATM   31  C   UNL     1      39.910 -11.969  -1.561  1.00  0.00     0.034 A 
HETATM   32 CL   UNL     1      39.688  -9.484  -2.544  1.00  0.00    -0.083 Cl
ENDBRANCH   1  25
TORSDOF 5
ENDMDL
MODEL 5
REMARK VINA RESULT:      -8.1      3.503      4.887
REMARK  5 active torsions:
REMARK  status: ('A' for Active; 'I' for Inactive)
REMARK    1  A    between atoms: C_2  and  C_3 
REMARK    2  A    between atoms: C_8  and  C_9 
REMARK       I    between atoms: C_9  and  N_10 
REMARK    3  A    between atoms: N_10  and  C_11 
REMARK    4  A    between atoms: C_11  and  C_12 
REMARK    5  A    between atoms: C_19  and  C_20 
ROOT
HETATM    1  C   UNL     1      40.925 -16.280   3.660  1.00  0.00     0.118 C 
HETATM    2  N   UNL     1      40.427 -15.326   2.677  1.00  0.00    -0.366 N 
HETATM    3  C   UNL     1      40.735 -15.397   1.367  1.00  0.00     0.123 A 
HETATM    4  N   UNL     1      41.540 -16.380   0.866  1.00  0.00    -0.240 N 
HETATM    5  N   UNL     1      41.683 -16.344  -0.469  1.00  0.00    -0.165 NA
HETATM    6  C   UNL     1      40.990 -15.241  -0.833  1.00  0.00     0.148 A 
HETATM    7  C   UNL     1      40.379 -14.624   0.294  1.00  0.00     0.088 A 
HETATM    8  C   UNL     1      42.135 -17.428   1.670  1.00  0.00     0.221 C 
HETATM    9  C   UNL     1      41.354 -17.598   2.986  1.00  0.00     0.066 C 
HETATM   10  H   UNL     1      39.864 -14.560   3.047  1.00  0.00     0.161 HD
ENDROOT
BRANCH   6  11
HETATM   11  C   UNL     1      40.889 -14.794  -2.231  1.00  0.00     0.272 C 
HETATM   12  N   UNL     1      40.146 -13.647  -2.394  1.00  0.00    -0.353 N 
HETATM   13  H   UNL     1      39.878 -13.168  -1.536  1.00  0.00     0.162 HD
HETATM   14  O   UNL     1      41.432 -15.389  -3.158  1.00  0.00    -0.266 OA
BRANCH  12  15
HETATM   15  C   UNL     1      40.122 -12.914  -3.642  1.00  0.00     0.155 C 
BRANCH  15  16
HETATM   16  C   UNL     1      40.782 -11.544  -3.503  1.00  0.00     0.139 C 
HETATM   17  O   UNL     1      40.532 -10.991  -2.194  1.00  0.00    -0.384 OA
HETATM   18  C   UNL     1      41.726 -10.329  -1.747  1.00  0.00     0.168 C 
HETATM   19  C   UNL     1      42.708 -10.352  -2.899  1.00  0.00     0.029 C 
HETATM   20  C   UNL     1      42.294 -11.596  -3.645  1.00  0.00     0.035 C 
ENDBRANCH  15  16
ENDBRANCH  12  15
ENDBRANCH   6  11
BRANCH   8  21
HETATM   21  C   UNL     1      43.612 -17.164   1.863  1.00  0.00     0.409 C 
HETATM   22  F   UNL     1      43.924 -15.859   1.962  1.00  0.00    -0.169 F 
HETATM   23  F   UNL     1      44.045 -17.763   3.002  1.00  0.00    -0.169 F 
HETATM   24  F   UNL     1      44.355 -17.682   0.859  1.00  0.00    -0.169 F 
ENDBRANCH   8  21
BRANCH   1  25
HETATM   25  C   UNL     1      41.958 -15.666   4.593  1.00  0.00    -0.034 A 
HETATM   26  C   UNL     1      42.568 -14.426   4.350  1.00  0.00     0.011 A 
HETATM   27  C   UNL     1      43.500 -13.892   5.246  1.00  0.00     0.026 A 
HETATM   28  C   UNL     1      43.832 -14.581   6.413  1.00  0.00     0.055 A 
HETATM   29  C   UNL     1      43.228 -15.812   6.680  1.00  0.00     0.056 A 
HETATM   30 CL   UNL     1      44.983 -13.858   7.477  1.00  0.00    -0.083 Cl
HETATM   31  C   UNL     1      42.301 -16.347   5.777  1.00  0.00     0.034 A 
HETATM   32 CL   UNL     1      43.572 -16.723   8.108  1.00  0.00    -0.083 Cl
ENDBRANCH   1  25
TORSDOF 5
ENDMDL
MODEL 6
REMARK VINA RESULT:      -8.0      4.725      7.335
REMARK  5 active torsions:
REMARK  status: ('A' for Active; 'I' for Inactive)
REMARK    1  A    between atoms: C_2  and  C_3 
REMARK    2  A    between atoms: C_8  and  C_9 
REMARK       I    between atoms: C_9  and  N_10 
REMARK    3  A    between atoms: N_10  and  C_11 
REMARK    4  A    between atoms: C_11  and  C_12 
REMARK    5  A    between atoms: C_19  and  C_20 
ROOT
HETATM    1  C   UNL     1      42.576 -15.912   3.860  1.00  0.00     0.118 C 
HETATM    2  N   UNL     1      41.265 -15.421   4.264  1.00  0.00    -0.366 N 
HETATM    3  C   UNL     1      41.098 -14.323   5.029  1.00  0.00     0.123 A 
HETATM    4  N   UNL     1      42.158 -13.587   5.477  1.00  0.00    -0.240 N 
HETATM    5  N   UNL     1      41.809 -12.485   6.163  1.00  0.00    -0.165 NA
HETATM    6  C   UNL     1      40.460 -12.558   6.213  1.00  0.00     0.148 A 
HETATM    7  C   UNL     1      39.979 -13.697   5.510  1.00  0.00     0.088 A 
HETATM    8  C   UNL     1      43.543 -13.900   5.186  1.00  0.00     0.221 C 
HETATM    9  C   UNL     1      43.635 -14.795   3.936  1.00  0.00     0.066 C 
HETATM   10  H   UNL     1      40.469 -15.989   3.976  1.00  0.00     0.161 HD
ENDROOT
BRANCH   6  11
HETATM   11  C   UNL     1      39.638 -11.549   6.900  1.00  0.00     0.272 C 
HETATM   12  N   UNL     1      39.630 -11.680   8.271  1.00  0.00    -0.353 N 
HETATM   13  H   UNL     1      40.293 -12.351   8.654  1.00  0.00     0.162 HD
HETATM   14  O   UNL     1      39.029 -10.669   6.299  1.00  0.00    -0.266 OA
BRANCH  12  15
HETATM   15  C   UNL     1      39.085 -10.659   9.140  1.00  0.00     0.155 C 
BRANCH  15  16
HETATM   16  C   UNL     1      40.129 -10.143  10.127  1.00  0.00     0.139 C 
HETATM   17  O   UNL     1      40.463 -11.163  11.091  1.00  0.00    -0.384 OA
HETATM   18  C   UNL     1      41.876 -11.102  11.344  1.00  0.00     0.168 C 
HETATM   19  C   UNL     1      42.409  -9.890  10.609  1.00  0.00     0.029 C 
HETATM   20  C   UNL     1      41.440  -9.763   9.460  1.00  0.00     0.035 C 
ENDBRANCH  15  16
ENDBRANCH  12  15
ENDBRANCH   6  11
BRANCH   8  21
HETATM   21  C   UNL     1      44.215 -14.481   6.409  1.00  0.00     0.409 C 
HETATM   22  F   UNL     1      45.107 -15.450   6.131  1.00  0.00    -0.169 F 
HETATM   23  F   UNL     1      44.884 -13.507   7.078  1.00  0.00    -0.169 F 
HETATM   24  F   UNL     1      43.321 -14.994   7.284  1.00  0.00    -0.169 F 
ENDBRANCH   8  21
BRANCH   1  25
HETATM   25  C   UNL     1      42.953 -17.208   4.562  1.00  0.00    -0.034 A 
HETATM   26  C   UNL     1      42.529 -17.525   5.863  1.00  0.00     0.011 A 
HETATM   27  C   UNL     1      42.886 -18.737   6.462  1.00  0.00     0.026 A 
HETATM   28  C   UNL     1      43.663 -19.665   5.770  1.00  0.00     0.055 A 
HETATM   29  C   UNL     1      44.087 -19.374   4.471  1.00  0.00     0.056 A 
HETATM   30 CL   UNL     1      44.058 -21.144   6.568  1.00  0.00    -0.083 Cl
HETATM   31  C   UNL     1      43.734 -18.156   3.876  1.00  0.00     0.034 A 
HETATM   32 CL   UNL     1      45.039 -20.474   3.538  1.00  0.00    -0.083 Cl
ENDBRANCH   1  25
TORSDOF 5
ENDMDL
MODEL 7
REMARK VINA RESULT:      -8.0      4.407      6.511
REMARK  5 active torsions:
REMARK  status: ('A' for Active; 'I' for Inactive)
REMARK    1  A    between atoms: C_2  and  C_3 
REMARK    2  A    between atoms: C_8  and  C_9 
REMARK       I    between atoms: C_9  and  N_10 
REMARK    3  A    between atoms: N_10  and  C_11 
REMARK    4  A    between atoms: C_11  and  C_12 
REMARK    5  A    between atoms: C_19  and  C_20 
ROOT
HETATM    1  C   UNL     1      41.158 -16.764   2.821  1.00  0.00     0.118 C 
HETATM    2  N   UNL     1      40.346 -16.307   3.942  1.00  0.00    -0.366 N 
HETATM    3  C   UNL     1      40.463 -15.075   4.478  1.00  0.00     0.123 A 
HETATM    4  N   UNL     1      41.357 -14.161   3.997  1.00  0.00    -0.240 N 
HETATM    5  N   UNL     1      41.290 -12.961   4.597  1.00  0.00    -0.165 NA
HETATM    6  C   UNL     1      40.353 -13.139   5.556  1.00  0.00     0.148 A 
HETATM    7  C   UNL     1      39.811 -14.453   5.508  1.00  0.00     0.088 A 
HETATM    8  C   UNL     1      42.254 -14.411   2.886  1.00  0.00     0.221 C 
HETATM    9  C   UNL     1      41.724 -15.572   2.025  1.00  0.00     0.066 C 
HETATM   10  H   UNL     1      39.710 -16.997   4.341  1.00  0.00     0.161 HD
ENDROOT
BRANCH   6  11
HETATM   11  C   UNL     1      39.962 -12.070   6.489  1.00  0.00     0.272 C 
HETATM   12  N   UNL     1      40.915 -11.790   7.442  1.00  0.00    -0.353 N 
HETATM   13  H   UNL     1      41.818 -12.240   7.309  1.00  0.00     0.162 HD
HETATM   14  O   UNL     1      38.888 -11.480   6.409  1.00  0.00    -0.266 OA
BRANCH  12  15
HETATM   15  C   UNL     1      40.832 -10.625   8.297  1.00  0.00     0.155 C 
BRANCH  15  16
HETATM   16  C   UNL     1      41.566  -9.430   7.695  1.00  0.00     0.139 C 
HETATM   17  O   UNL     1      41.914  -9.691   6.319  1.00  0.00    -0.384 OA
HETATM   18  C   UNL     1      41.721  -8.482   5.566  1.00  0.00     0.168 C 
HETATM   19  C   UNL     1      41.377  -7.389   6.557  1.00  0.00     0.029 C 
HETATM   20  C   UNL     1      40.724  -8.165   7.673  1.00  0.00     0.035 C 
ENDBRANCH  15  16
ENDBRANCH  12  15
ENDBRANCH   6  11
BRANCH   8  21
HETATM   21  C   UNL     1      43.665 -14.614   3.390  1.00  0.00     0.409 C 
HETATM   22  F   UNL     1      43.732 -15.156   4.620  1.00  0.00    -0.169 F 
HETATM   23  F   UNL     1      44.341 -15.443   2.553  1.00  0.00    -0.169 F 
HETATM   24  F   UNL     1      44.364 -13.457   3.419  1.00  0.00    -0.169 F 
ENDBRANCH   8  21
BRANCH   1  25
HETATM   25  C   UNL     1      42.182 -17.810   3.234  1.00  0.00    -0.034 A 
HETATM   26  C   UNL     1      42.951 -18.535   2.309  1.00  0.00     0.011 A 
HETATM   27  C   UNL     1      43.894 -19.475   2.735  1.00  0.00     0.026 A 
HETATM   28  C   UNL     1      44.100 -19.702   4.096  1.00  0.00     0.055 A 
HETATM   29  C   UNL     1      43.354 -18.983   5.033  1.00  0.00     0.056 A 
HETATM   30 CL   UNL     1      45.287 -20.871   4.550  1.00  0.00    -0.083 Cl
HETATM   31  C   UNL     1      42.405 -18.048   4.603  1.00  0.00     0.034 A 
HETATM   32 CL   UNL     1      43.557 -19.192   6.737  1.00  0.00    -0.083 Cl
ENDBRANCH   1  25
TORSDOF 5
ENDMDL
MODEL 8
REMARK VINA RESULT:      -7.7      4.573      8.574
REMARK  5 active torsions:
REMARK  status: ('A' for Active; 'I' for Inactive)
REMARK    1  A    between atoms: C_2  and  C_3 
REMARK    2  A    between atoms: C_8  and  C_9 
REMARK       I    between atoms: C_9  and  N_10 
REMARK    3  A    between atoms: N_10  and  C_11 
REMARK    4  A    between atoms: C_11  and  C_12 
REMARK    5  A    between atoms: C_19  and  C_20 
ROOT
HETATM    1  C   UNL     1      38.474 -14.188   1.995  1.00  0.00     0.118 C 
HETATM    2  N   UNL     1      38.906 -15.555   1.731  1.00  0.00    -0.366 N 
HETATM    3  C   UNL     1      40.198 -15.938   1.786  1.00  0.00     0.123 A 
HETATM    4  N   UNL     1      41.198 -15.062   2.101  1.00  0.00    -0.240 N 
HETATM    5  N   UNL     1      42.415 -15.627   2.183  1.00  0.00    -0.165 NA
HETATM    6  C   UNL     1      42.191 -16.915   1.836  1.00  0.00     0.148 A 
HETATM    7  C   UNL     1      40.810 -17.146   1.582  1.00  0.00     0.088 A 
HETATM    8  C   UNL     1      40.984 -13.662   2.403  1.00  0.00     0.221 C 
HETATM    9  C   UNL     1      39.522 -13.427   2.829  1.00  0.00     0.066 C 
HETATM   10  H   UNL     1      38.175 -16.206   1.447  1.00  0.00     0.161 HD
ENDROOT
BRANCH   6  11
HETATM   11  C   UNL     1      43.267 -17.916   1.768  1.00  0.00     0.272 C 
HETATM   12  N   UNL     1      42.891 -19.166   2.205  1.00  0.00    -0.353 N 
HETATM   13  H   UNL     1      41.896 -19.290   2.384  1.00  0.00     0.162 HD
HETATM   14  O   UNL     1      44.390 -17.653   1.347  1.00  0.00    -0.266 OA
BRANCH  12  15
HETATM   15  C   UNL     1      43.717 -20.336   1.999  1.00  0.00     0.155 C 
BRANCH  15  16
HETATM   16  C   UNL     1      44.618 -20.608   3.202  1.00  0.00     0.139 C 
HETATM   17  O   UNL     1      44.197 -19.823   4.337  1.00  0.00    -0.384 OA
HETATM   18  C   UNL     1      44.326 -20.631   5.518  1.00  0.00     0.168 C 
HETATM   19  C   UNL     1      44.996 -21.925   5.104  1.00  0.00     0.029 C 
HETATM   20  C   UNL     1      44.572 -22.055   3.663  1.00  0.00     0.035 C 
ENDBRANCH  15  16
ENDBRANCH  12  15
ENDBRANCH   6  11
BRANCH   8  21
HETATM   21  C   UNL     1      41.431 -12.803   1.242  1.00  0.00     0.409 C 
HETATM   22  F   UNL     1      40.672 -11.707   1.051  1.00  0.00    -0.169 F 
HETATM   23  F   UNL     1      42.703 -12.374   1.445  1.00  0.00    -0.169 F 
HETATM   24  F   UNL     1      41.446 -13.491   0.078  1.00  0.00    -0.169 F 
ENDBRANCH   8  21
BRANCH   1  25
HETATM   25  C   UNL     1      38.006 -13.474   0.737  1.00  0.00    -0.034 A 
HETATM   26  C   UNL     1      37.274 -12.276   0.764  1.00  0.00     0.011 A 
HETATM   27  C   UNL     1      36.879 -11.645  -0.420  1.00  0.00     0.026 A 
HETATM   28  C   UNL     1      37.220 -12.190  -1.658  1.00  0.00     0.055 A 
HETATM   29  C   UNL     1      37.957 -13.375  -1.708  1.00  0.00     0.056 A 
HETATM   30 CL   UNL     1      36.707 -11.352  -3.077  1.00  0.00    -0.083 Cl
HETATM   31  C   UNL     1      38.344 -14.009  -0.520  1.00  0.00     0.034 A 
HETATM   32 CL   UNL     1      38.433 -14.108  -3.199  1.00  0.00    -0.083 Cl
ENDBRANCH   1  25
TORSDOF 5
ENDMDL
MODEL 9
REMARK VINA RESULT:      -7.6      2.539      3.254
REMARK  5 active torsions:
REMARK  status: ('A' for Active; 'I' for Inactive)
REMARK    1  A    between atoms: C_2  and  C_3 
REMARK    2  A    between atoms: C_8  and  C_9 
REMARK       I    between atoms: C_9  and  N_10 
REMARK    3  A    between atoms: N_10  and  C_11 
REMARK    4  A    between atoms: C_11  and  C_12 
REMARK    5  A    between atoms: C_19  and  C_20 
ROOT
HETATM    1  C   UNL     1      43.840 -16.070   4.213  1.00  0.00     0.118 C 
HETATM    2  N   UNL     1      43.183 -15.051   3.406  1.00  0.00    -0.366 N 
HETATM    3  C   UNL     1      42.036 -14.448   3.779  1.00  0.00     0.123 A 
HETATM    4  N   UNL     1      41.409 -14.753   4.954  1.00  0.00    -0.240 N 
HETATM    5  N   UNL     1      40.320 -14.007   5.204  1.00  0.00    -0.165 NA
HETATM    6  C   UNL     1      40.206 -13.233   4.101  1.00  0.00     0.148 A 
HETATM    7  C   UNL     1      41.268 -13.482   3.187  1.00  0.00     0.088 A 
HETATM    8  C   UNL     1      41.898 -15.733   5.903  1.00  0.00     0.221 C 
HETATM    9  C   UNL     1      43.403 -15.977   5.688  1.00  0.00     0.066 C 
HETATM   10  H   UNL     1      43.615 -14.850   2.505  1.00  0.00     0.161 HD
ENDROOT
BRANCH   6  11
HETATM   11  C   UNL     1      39.119 -12.257   3.927  1.00  0.00     0.272 C 
HETATM   12  N   UNL     1      38.851 -11.954   2.611  1.00  0.00    -0.353 N 
HETATM   13  H   UNL     1      39.324 -12.533   1.919  1.00  0.00     0.162 HD
HETATM   14  O   UNL     1      38.505 -11.773   4.873  1.00  0.00    -0.266 OA
BRANCH  12  15
HETATM   15  C   UNL     1      37.676 -11.208   2.215  1.00  0.00     0.155 C 
BRANCH  15  16
HETATM   16  C   UNL     1      37.086 -11.736   0.909  1.00  0.00     0.139 C 
HETATM   17  O   UNL     1      36.436 -10.674   0.181  1.00  0.00    -0.384 OA
HETATM   18  C   UNL     1      36.712 -10.849  -1.218  1.00  0.00     0.168 C 
HETATM   19  C   UNL     1      37.446 -12.166  -1.367  1.00  0.00     0.029 C 
HETATM   20  C   UNL     1      38.138 -12.296  -0.033  1.00  0.00     0.035 C 
ENDBRANCH  15  16
ENDBRANCH  12  15
ENDBRANCH   6  11
BRANCH   8  21
HETATM   21  C   UNL     1      41.057 -16.988   5.838  1.00  0.00     0.409 C 
HETATM   22  F   UNL     1      39.949 -16.942   6.601  1.00  0.00    -0.169 F 
HETATM   23  F   UNL     1      40.650 -17.208   4.561  1.00  0.00    -0.169 F 
HETATM   24  F   UNL     1      41.756 -18.086   6.206  1.00  0.00    -0.169 F 
ENDBRANCH   8  21
BRANCH   1  25
HETATM   25  C   UNL     1      43.738 -17.456   3.595  1.00  0.00    -0.034 A 
HETATM   26  C   UNL     1      43.157 -17.693   2.339  1.00  0.00     0.011 A 
HETATM   27  C   UNL     1      43.101 -18.983   1.802  1.00  0.00     0.026 A 
HETATM   28  C   UNL     1      43.636 -20.064   2.504  1.00  0.00     0.055 A 
HETATM   29  C   UNL     1      44.228 -19.848   3.750  1.00  0.00     0.056 A 
HETATM   30 CL   UNL     1      43.539 -21.626   1.777  1.00  0.00    -0.083 Cl
HETATM   31  C   UNL     1      44.277 -18.556   4.288  1.00  0.00     0.034 A 
HETATM   32 CL   UNL     1      44.929 -21.128   4.677  1.00  0.00    -0.083 Cl
ENDBRANCH   1  25
TORSDOF 5
ENDMDL
MODEL 10
REMARK VINA RESULT:      -7.6      5.099      8.831
REMARK  5 active torsions:
REMARK  status: ('A' for Active; 'I' for Inactive)
REMARK    1  A    between atoms: C_2  and  C_3 
REMARK    2  A    between atoms: C_8  and  C_9 
REMARK       I    between atoms: C_9  and  N_10 
REMARK    3  A    between atoms: N_10  and  C_11 
REMARK    4  A    between atoms: C_11  and  C_12 
REMARK    5  A    between atoms: C_19  and  C_20 
ROOT
HETATM    1  C   UNL     1      40.844 -14.037  -2.581  1.00  0.00     0.118 C 
HETATM    2  N   UNL     1      41.721 -14.704  -1.626  1.00  0.00    -0.366 N 
HETATM    3  C   UNL     1      41.345 -14.995  -0.365  1.00  0.00     0.123 A 
HETATM    4  N   UNL     1      40.101 -14.684   0.107  1.00  0.00    -0.240 N 
HETATM    5  N   UNL     1      39.868 -15.110   1.360  1.00  0.00    -0.165 NA
HETATM    6  C   UNL     1      41.047 -15.661   1.732  1.00  0.00     0.148 A 
HETATM    7  C   UNL     1      41.995 -15.608   0.672  1.00  0.00     0.088 A 
HETATM    8  C   UNL     1      39.077 -14.025  -0.678  1.00  0.00     0.221 C 
HETATM    9  C   UNL     1      39.365 -14.199  -2.181  1.00  0.00     0.066 C 
HETATM   10  H   UNL     1      42.668 -14.898  -1.952  1.00  0.00     0.161 HD
ENDROOT
BRANCH   6  11
HETATM   11  C   UNL     1      41.261 -16.248   3.063  1.00  0.00     0.272 C 
HETATM   12  N   UNL     1      41.827 -17.503   3.031  1.00  0.00    -0.353 N 
HETATM   13  H   UNL     1      42.158 -17.815   2.120  1.00  0.00     0.162 HD
HETATM   14  O   UNL     1      40.971 -15.661   4.102  1.00  0.00    -0.266 OA
BRANCH  12  15
HETATM   15  C   UNL     1      42.335 -18.151   4.222  1.00  0.00     0.155 C 
BRANCH  15  16
HETATM   16  C   UNL     1      43.712 -18.767   3.984  1.00  0.00     0.139 C 
HETATM   17  O   UNL     1      44.053 -19.672   5.054  1.00  0.00    -0.384 OA
HETATM   18  C   UNL     1      44.721 -20.811   4.487  1.00  0.00     0.168 C 
HETATM   19  C   UNL     1      44.929 -20.521   3.015  1.00  0.00     0.029 C 
HETATM   20  C   UNL     1      43.781 -19.592   2.710  1.00  0.00     0.035 C 
ENDBRANCH  15  16
ENDBRANCH  12  15
ENDBRANCH   6  11
BRANCH   8  21
HETATM   21  C   UNL     1      38.932 -12.584  -0.244  1.00  0.00     0.409 C 
HETATM   22  F   UNL     1      38.579 -11.748  -1.238  1.00  0.00    -0.169 F 
HETATM   23  F   UNL     1      37.978 -12.482   0.717  1.00  0.00    -0.169 F 
HETATM   24  F   UNL     1      40.071 -12.102   0.303  1.00  0.00    -0.169 F 
ENDBRANCH   8  21
BRANCH   1  25
HETATM   25  C   UNL     1      41.282 -12.611  -2.873  1.00  0.00    -0.034 A 
HETATM   26  C   UNL     1      40.705 -11.824  -3.882  1.00  0.00     0.011 A 
HETATM   27  C   UNL     1      41.128 -10.509  -4.103  1.00  0.00     0.026 A 
HETATM   28  C   UNL     1      42.130  -9.948  -3.312  1.00  0.00     0.055 A 
HETATM   29  C   UNL     1      42.710 -10.709  -2.295  1.00  0.00     0.056 A 
HETATM   30 CL   UNL     1      42.596  -8.318  -3.636  1.00  0.00    -0.083 Cl
HETATM   31  C   UNL     1      42.289 -12.028  -2.081  1.00  0.00     0.034 A 
HETATM   32 CL   UNL     1      43.946 -10.085  -1.260  1.00  0.00    -0.083 Cl
ENDBRANCH   1  25
TORSDOF 5
ENDMDL
