MODEL 1
REMARK VINA RESULT:      -8.1      0.000      0.000
REMARK  3 active torsions:
REMARK  status: ('A' for Active; 'I' for Inactive)
REMARK    1  A    between atoms: C_6  and  N_7 
REMARK       I    between atoms: N_7  and  C_8 
REMARK    2  A    between atoms: C_8  and  C_9 
REMARK    3  A    between atoms: C_9  and  C_10 
ROOT
HETATM    1  C   UNL     1      42.358 -14.946   4.746  1.00  0.00     0.286 C 
HETATM    2  N   UNL     1      41.427 -15.892   3.990  1.00  0.00    -0.056 N 
HETATM    3  H   UNL     1      41.999 -16.717   3.707  1.00  0.00     0.278 HD
HETATM    4  H   UNL     1      40.714 -16.271   4.626  1.00  0.00     0.278 HD
HETATM    5  C   UNL     1      40.790 -15.259   2.779  1.00  0.00     0.209 C 
HETATM    6  C   UNL     1      41.900 -14.717   1.842  1.00  0.00     0.115 C 
HETATM    7  N   UNL     1      42.852 -13.867   2.557  1.00  0.00    -0.353 N 
HETATM    8  C   UNL     1      43.284 -14.114   3.834  1.00  0.00     0.249 C 
HETATM    9  O   UNL     1      44.323 -13.610   4.247  1.00  0.00    -0.271 OA
HETATM   10  C   UNL     1      39.890 -16.283   2.088  1.00  0.00     0.035 C 
HETATM   11  C   UNL     1      40.666 -17.382   1.366  1.00  0.00     0.002 C 
HETATM   12  C   UNL     1      41.701 -16.802   0.410  1.00  0.00     0.002 C 
HETATM   13  C   UNL     1      42.653 -15.842   1.116  1.00  0.00     0.027 C 
HETATM   14  H   UNL     1      43.503 -13.310   2.005  1.00  0.00     0.163 HD
ENDROOT
BRANCH   1  15
HETATM   15  C   UNL     1      43.195 -15.708   5.781  1.00  0.00     0.146 C 
BRANCH  15  16
HETATM   16  C   UNL     1      43.123 -17.184   5.463  1.00  0.00     0.224 C 
HETATM   17  N   UNL     1      43.988 -17.613   4.488  1.00  0.00    -0.327 N 
HETATM   18  H   UNL     1      44.511 -16.913   3.970  1.00  0.00     0.169 HD
HETATM   19  O   UNL     1      42.275 -17.851   6.059  1.00  0.00    -0.273 OA
BRANCH  17  20
HETATM   20  C   UNL     1      44.137 -18.938   4.016  1.00  0.00     0.036 A 
HETATM   21  C   UNL     1      44.645 -19.986   4.788  1.00  0.00     0.053 A 
HETATM   22  C   UNL     1      44.758 -21.268   4.242  1.00  0.00     0.036 A 
HETATM   23  C   UNL     1      44.372 -21.518   2.929  1.00  0.00     0.024 A 
HETATM   24 CL   UNL     1      45.388 -22.548   5.206  1.00  0.00    -0.084 Cl
HETATM   25  C   UNL     1      43.872 -20.478   2.151  1.00  0.00     0.004 A 
HETATM   26  C   UNL     1      43.760 -19.193   2.690  1.00  0.00     0.029 A 
ENDBRANCH  17  20
ENDBRANCH  15  16
ENDBRANCH   1  15
TORSDOF 3
ENDMDL
MODEL 2
REMARK VINA RESULT:      -7.9      2.073      3.920
REMARK  3 active torsions:
REMARK  status: ('A' for Active; 'I' for Inactive)
REMARK    1  A    between atoms: C_6  and  N_7 
REMARK       I    between atoms: N_7  and  C_8 
REMARK    2  A    between atoms: C_8  and  C_9 
REMARK    3  A    between atoms: C_9  and  C_10 
ROOT
HETATM    1  C   UNL     1      41.793 -14.611   3.097  1.00  0.00     0.286 C 
HETATM    2  N   UNL     1      42.869 -14.903   4.140  1.00  0.00    -0.056 N 
HETATM    3  H   UNL     1      43.074 -15.924   4.086  1.00  0.00     0.278 HD
HETATM    4  H   UNL     1      43.749 -14.442   3.879  1.00  0.00     0.278 HD
HETATM    5  C   UNL     1      42.457 -14.527   5.541  1.00  0.00     0.209 C 
HETATM    6  C   UNL     1      41.136 -15.255   5.898  1.00  0.00     0.115 C 
HETATM    7  N   UNL     1      40.109 -15.055   4.876  1.00  0.00    -0.353 N 
HETATM    8  C   UNL     1      40.369 -15.019   3.531  1.00  0.00     0.249 C 
HETATM    9  O   UNL     1      39.472 -15.217   2.719  1.00  0.00    -0.271 OA
HETATM   10  C   UNL     1      43.591 -14.865   6.508  1.00  0.00     0.035 C 
HETATM   11  C   UNL     1      43.766 -16.365   6.736  1.00  0.00     0.002 C 
HETATM   12  C   UNL     1      42.456 -17.026   7.147  1.00  0.00     0.002 C 
HETATM   13  C   UNL     1      41.343 -16.758   6.139  1.00  0.00     0.027 C 
HETATM   14  H   UNL     1      39.152 -15.327   5.101  1.00  0.00     0.163 HD
ENDROOT
BRANCH   1  15
HETATM   15  C   UNL     1      42.134 -15.269   1.754  1.00  0.00     0.146 C 
BRANCH  15  16
HETATM   16  C   UNL     1      43.119 -16.388   2.006  1.00  0.00     0.224 C 
HETATM   17  N   UNL     1      42.584 -17.521   2.564  1.00  0.00    -0.327 N 
HETATM   18  H   UNL     1      41.619 -17.489   2.881  1.00  0.00     0.169 HD
HETATM   19  O   UNL     1      44.303 -16.172   1.740  1.00  0.00    -0.273 OA
BRANCH  17  20
HETATM   20  C   UNL     1      43.275 -18.713   2.883  1.00  0.00     0.036 A 
HETATM   21  C   UNL     1      43.412 -19.791   2.005  1.00  0.00     0.053 A 
HETATM   22  C   UNL     1      44.113 -20.933   2.401  1.00  0.00     0.036 A 
HETATM   23  C   UNL     1      44.681 -21.015   3.670  1.00  0.00     0.024 A 
HETATM   24 CL   UNL     1      44.271 -22.254   1.309  1.00  0.00    -0.084 Cl
HETATM   25  C   UNL     1      44.543 -19.948   4.553  1.00  0.00     0.004 A 
HETATM   26  C   UNL     1      43.839 -18.805   4.163  1.00  0.00     0.029 A 
ENDBRANCH  17  20
ENDBRANCH  15  16
ENDBRANCH   1  15
TORSDOF 3
ENDMDL
MODEL 3
REMARK VINA RESULT:      -7.5      3.133      4.082
REMARK  3 active torsions:
REMARK  status: ('A' for Active; 'I' for Inactive)
REMARK    1  A    between atoms: C_6  and  N_7 
REMARK       I    between atoms: N_7  and  C_8 
REMARK    2  A    between atoms: C_8  and  C_9 
REMARK    3  A    between atoms: C_9  and  C_10 
ROOT
HETATM    1  C   UNL     1      41.177 -15.574   0.749  1.00  0.00     0.286 C 
HETATM    2  N   UNL     1      41.790 -15.219  -0.603  1.00  0.00    -0.056 N 
HETATM    3  H   UNL     1      42.252 -14.290  -0.492  1.00  0.00     0.278 HD
HETATM    4  H   UNL     1      42.554 -15.868  -0.828  1.00  0.00     0.278 HD
HETATM    5  C   UNL     1      40.779 -15.166  -1.721  1.00  0.00     0.209 C 
HETATM    6  C   UNL     1      39.656 -14.164  -1.347  1.00  0.00     0.115 C 
HETATM    7  N   UNL     1      39.101 -14.435  -0.021  1.00  0.00    -0.353 N 
HETATM    8  C   UNL     1      39.852 -14.842   1.051  1.00  0.00     0.249 C 
HETATM    9  O   UNL     1      39.430 -14.703   2.194  1.00  0.00    -0.271 OA
HETATM   10  C   UNL     1      41.485 -14.795  -3.024  1.00  0.00     0.035 C 
HETATM   11  C   UNL     1      41.931 -13.335  -3.077  1.00  0.00     0.002 C 
HETATM   12  C   UNL     1      40.780 -12.385  -2.765  1.00  0.00     0.002 C 
HETATM   13  C   UNL     1      40.126 -12.704  -1.425  1.00  0.00     0.027 C 
HETATM   14  H   UNL     1      38.237 -13.962   0.241  1.00  0.00     0.163 HD
ENDROOT
BRANCH   1  15
HETATM   15  C   UNL     1      42.175 -15.331   1.887  1.00  0.00     0.146 C 
BRANCH  15  16
HETATM   16  C   UNL     1      43.088 -16.532   1.988  1.00  0.00     0.224 C 
HETATM   17  N   UNL     1      42.842 -17.364   3.051  1.00  0.00    -0.327 N 
HETATM   18  H   UNL     1      42.169 -17.062   3.749  1.00  0.00     0.169 HD
HETATM   19  O   UNL     1      43.990 -16.630   1.154  1.00  0.00    -0.273 OA
BRANCH  17  20
HETATM   20  C   UNL     1      43.531 -18.558   3.365  1.00  0.00     0.036 A 
HETATM   21  C   UNL     1      43.670 -19.632   2.482  1.00  0.00     0.053 A 
HETATM   22  C   UNL     1      44.369 -20.777   2.874  1.00  0.00     0.036 A 
HETATM   23  C   UNL     1      44.932 -20.866   4.144  1.00  0.00     0.024 A 
HETATM   24 CL   UNL     1      44.529 -22.092   1.775  1.00  0.00    -0.084 Cl
HETATM   25  C   UNL     1      44.792 -19.804   5.033  1.00  0.00     0.004 A 
HETATM   26  C   UNL     1      44.090 -18.658   4.647  1.00  0.00     0.029 A 
ENDBRANCH  17  20
ENDBRANCH  15  16
ENDBRANCH   1  15
TORSDOF 3
ENDMDL
MODEL 4
REMARK VINA RESULT:      -7.2      5.448      8.171
REMARK  3 active torsions:
REMARK  status: ('A' for Active; 'I' for Inactive)
REMARK    1  A    between atoms: C_6  and  N_7 
REMARK       I    between atoms: N_7  and  C_8 
REMARK    2  A    between atoms: C_8  and  C_9 
REMARK    3  A    between atoms: C_9  and  C_10 
ROOT
HETATM    1  C   UNL     1      44.072 -14.545   6.785  1.00  0.00     0.286 C 
HETATM    2  N   UNL     1      44.159 -15.993   7.260  1.00  0.00    -0.056 N 
HETATM    3  H   UNL     1      45.000 -16.411   6.807  1.00  0.00     0.278 HD
HETATM    4  H   UNL     1      44.359 -16.024   8.268  1.00  0.00     0.278 HD
HETATM    5  C   UNL     1      42.931 -16.804   6.928  1.00  0.00     0.209 C 
HETATM    6  C   UNL     1      42.677 -16.742   5.400  1.00  0.00     0.115 C 
HETATM    7  N   UNL     1      42.664 -15.366   4.903  1.00  0.00    -0.353 N 
HETATM    8  C   UNL     1      43.503 -14.383   5.360  1.00  0.00     0.249 C 
HETATM    9  O   UNL     1      43.711 -13.381   4.685  1.00  0.00    -0.271 OA
HETATM   10  C   UNL     1      43.118 -18.234   7.433  1.00  0.00     0.035 C 
HETATM   11  C   UNL     1      44.128 -19.037   6.616  1.00  0.00     0.002 C 
HETATM   12  C   UNL     1      43.800 -19.000   5.128  1.00  0.00     0.002 C 
HETATM   13  C   UNL     1      43.694 -17.572   4.604  1.00  0.00     0.027 C 
HETATM   14  H   UNL     1      42.318 -15.203   3.959  1.00  0.00     0.163 HD
ENDROOT
BRANCH   1  15
HETATM   15  C   UNL     1      45.436 -13.851   6.882  1.00  0.00     0.146 C 
BRANCH  15  16
HETATM   16  C   UNL     1      45.354 -12.781   7.947  1.00  0.00     0.224 C 
HETATM   17  N   UNL     1      44.101 -12.564   8.462  1.00  0.00    -0.327 N 
HETATM   18  H   UNL     1      43.315 -13.030   8.018  1.00  0.00     0.169 HD
HETATM   19  O   UNL     1      46.391 -12.172   8.219  1.00  0.00    -0.273 OA
BRANCH  17  20
HETATM   20  C   UNL     1      43.753 -11.640   9.474  1.00  0.00     0.036 A 
HETATM   21  C   UNL     1      42.772 -10.657   9.326  1.00  0.00     0.053 A 
HETATM   22  C   UNL     1      42.491  -9.783  10.379  1.00  0.00     0.036 A 
HETATM   23  C   UNL     1      43.180  -9.876  11.585  1.00  0.00     0.024 A 
HETATM   24 CL   UNL     1      41.280  -8.575  10.180  1.00  0.00    -0.084 Cl
HETATM   25  C   UNL     1      44.164 -10.848  11.739  1.00  0.00     0.004 A 
HETATM   26  C   UNL     1      44.453 -11.723  10.686  1.00  0.00     0.029 A 
ENDBRANCH  17  20
ENDBRANCH  15  16
ENDBRANCH   1  15
TORSDOF 3
ENDMDL
MODEL 5
REMARK VINA RESULT:      -7.2      1.904      3.698
REMARK  3 active torsions:
REMARK  status: ('A' for Active; 'I' for Inactive)
REMARK    1  A    between atoms: C_6  and  N_7 
REMARK       I    between atoms: N_7  and  C_8 
REMARK    2  A    between atoms: C_8  and  C_9 
REMARK    3  A    between atoms: C_9  and  C_10 
ROOT
HETATM    1  C   UNL     1      42.407 -14.926   3.462  1.00  0.00     0.286 C 
HETATM    2  N   UNL     1      43.422 -15.461   4.468  1.00  0.00    -0.056 N 
HETATM    3  H   UNL     1      43.400 -16.502   4.397  1.00  0.00     0.278 HD
HETATM    4  H   UNL     1      44.374 -15.198   4.185  1.00  0.00     0.278 HD
HETATM    5  C   UNL     1      43.142 -15.030   5.885  1.00  0.00     0.209 C 
HETATM    6  C   UNL     1      41.704 -15.461   6.275  1.00  0.00     0.115 C 
HETATM    7  N   UNL     1      40.717 -15.026   5.288  1.00  0.00    -0.353 N 
HETATM    8  C   UNL     1      40.941 -15.023   3.935  1.00  0.00     0.249 C 
HETATM    9  O   UNL     1      40.000 -15.008   3.149  1.00  0.00    -0.271 OA
HETATM   10  C   UNL     1      44.201 -15.623   6.813  1.00  0.00     0.035 C 
HETATM   11  C   UNL     1      44.053 -17.129   7.019  1.00  0.00     0.002 C 
HETATM   12  C   UNL     1      42.642 -17.498   7.462  1.00  0.00     0.002 C 
HETATM   13  C   UNL     1      41.587 -16.977   6.493  1.00  0.00     0.027 C 
HETATM   14  H   UNL     1      39.731 -15.088   5.538  1.00  0.00     0.163 HD
ENDROOT
BRANCH   1  15
HETATM   15  C   UNL     1      42.560 -15.618   2.102  1.00  0.00     0.146 C 
BRANCH  15  16
HETATM   16  C   UNL     1      42.497 -17.113   2.316  1.00  0.00     0.224 C 
HETATM   17  N   UNL     1      43.711 -17.731   2.479  1.00  0.00    -0.327 N 
HETATM   18  H   UNL     1      44.552 -17.182   2.322  1.00  0.00     0.169 HD
HETATM   19  O   UNL     1      41.386 -17.645   2.274  1.00  0.00    -0.273 OA
BRANCH  17  20
HETATM   20  C   UNL     1      43.933 -19.108   2.711  1.00  0.00     0.036 A 
HETATM   21  C   UNL     1      44.253 -19.645   3.960  1.00  0.00     0.053 A 
HETATM   22  C   UNL     1      44.456 -21.021   4.101  1.00  0.00     0.036 A 
HETATM   23  C   UNL     1      44.346 -21.872   3.005  1.00  0.00     0.024 A 
HETATM   24 CL   UNL     1      44.852 -21.666   5.647  1.00  0.00    -0.084 Cl
HETATM   25  C   UNL     1      44.035 -21.344   1.755  1.00  0.00     0.004 A 
HETATM   26  C   UNL     1      43.835 -19.969   1.608  1.00  0.00     0.029 A 
ENDBRANCH  17  20
ENDBRANCH  15  16
ENDBRANCH   1  15
TORSDOF 3
ENDMDL
MODEL 6
REMARK VINA RESULT:      -7.2      3.797      6.850
REMARK  3 active torsions:
REMARK  status: ('A' for Active; 'I' for Inactive)
REMARK    1  A    between atoms: C_6  and  N_7 
REMARK       I    between atoms: N_7  and  C_8 
REMARK    2  A    between atoms: C_8  and  C_9 
REMARK    3  A    between atoms: C_9  and  C_10 
ROOT
HETATM    1  C   UNL     1      42.888 -18.609   2.895  1.00  0.00     0.286 C 
HETATM    2  N   UNL     1      42.393 -17.600   3.927  1.00  0.00    -0.056 N 
HETATM    3  H   UNL     1      43.092 -16.826   3.954  1.00  0.00     0.278 HD
HETATM    4  H   UNL     1      41.523 -17.158   3.603  1.00  0.00     0.278 HD
HETATM    5  C   UNL     1      42.218 -18.191   5.303  1.00  0.00     0.209 C 
HETATM    6  C   UNL     1      43.555 -18.830   5.758  1.00  0.00     0.115 C 
HETATM    7  N   UNL     1      44.093 -19.746   4.754  1.00  0.00    -0.353 N 
HETATM    8  C   UNL     1      44.023 -19.523   3.403  1.00  0.00     0.249 C 
HETATM    9  O   UNL     1      44.784 -20.104   2.637  1.00  0.00    -0.271 OA
HETATM   10  C   UNL     1      41.732 -17.105   6.262  1.00  0.00     0.035 C 
HETATM   11  C   UNL     1      42.808 -16.079   6.611  1.00  0.00     0.002 C 
HETATM   12  C   UNL     1      44.081 -16.750   7.113  1.00  0.00     0.002 C 
HETATM   13  C   UNL     1      44.613 -17.776   6.119  1.00  0.00     0.027 C 
HETATM   14  H   UNL     1      44.859 -20.360   5.028  1.00  0.00     0.163 HD
ENDROOT
BRANCH   1  15
HETATM   15  C   UNL     1      43.325 -17.908   1.603  1.00  0.00     0.146 C 
BRANCH  15  16
HETATM   16  C   UNL     1      42.108 -17.275   0.967  1.00  0.00     0.224 C 
HETATM   17  N   UNL     1      42.346 -16.109   0.285  1.00  0.00    -0.327 N 
HETATM   18  H   UNL     1      43.270 -15.692   0.358  1.00  0.00     0.169 HD
HETATM   19  O   UNL     1      41.020 -17.824   1.155  1.00  0.00    -0.273 OA
BRANCH  17  20
HETATM   20  C   UNL     1      41.394 -15.330  -0.413  1.00  0.00     0.036 A 
HETATM   21  C   UNL     1      40.948 -15.619  -1.705  1.00  0.00     0.053 A 
HETATM   22  C   UNL     1      40.003 -14.795  -2.321  1.00  0.00     0.036 A 
HETATM   23  C   UNL     1      39.497 -13.678  -1.664  1.00  0.00     0.024 A 
HETATM   24 CL   UNL     1      39.465 -15.164  -3.914  1.00  0.00    -0.084 Cl
HETATM   25  C   UNL     1      39.941 -13.378  -0.379  1.00  0.00     0.004 A 
HETATM   26  C   UNL     1      40.889 -14.197   0.241  1.00  0.00     0.029 A 
ENDBRANCH  17  20
ENDBRANCH  15  16
ENDBRANCH   1  15
TORSDOF 3
ENDMDL
MODEL 7
REMARK VINA RESULT:      -7.1      3.520      5.795
REMARK  3 active torsions:
REMARK  status: ('A' for Active; 'I' for Inactive)
REMARK    1  A    between atoms: C_6  and  N_7 
REMARK       I    between atoms: N_7  and  C_8 
REMARK    2  A    between atoms: C_8  and  C_9 
REMARK    3  A    between atoms: C_9  and  C_10 
ROOT
HETATM    1  C   UNL     1      41.895 -13.894   5.763  1.00  0.00     0.286 C 
HETATM    2  N   UNL     1      42.974 -14.970   5.675  1.00  0.00    -0.056 N 
HETATM    3  H   UNL     1      43.082 -15.209   4.665  1.00  0.00     0.278 HD
HETATM    4  H   UNL     1      43.884 -14.584   5.954  1.00  0.00     0.278 HD
HETATM    5  C   UNL     1      42.647 -16.209   6.470  1.00  0.00     0.209 C 
HETATM    6  C   UNL     1      41.277 -16.767   6.006  1.00  0.00     0.115 C 
HETATM    7  N   UNL     1      40.238 -15.737   6.009  1.00  0.00    -0.353 N 
HETATM    8  C   UNL     1      40.455 -14.435   5.637  1.00  0.00     0.249 C 
HETATM    9  O   UNL     1      39.516 -13.719   5.307  1.00  0.00    -0.271 OA
HETATM   10  C   UNL     1      43.777 -17.226   6.310  1.00  0.00     0.035 C 
HETATM   11  C   UNL     1      43.820 -17.871   4.926  1.00  0.00     0.002 C 
HETATM   12  C   UNL     1      42.469 -18.460   4.540  1.00  0.00     0.002 C 
HETATM   13  C   UNL     1      41.352 -17.425   4.621  1.00  0.00     0.027 C 
HETATM   14  H   UNL     1      39.269 -16.035   5.907  1.00  0.00     0.163 HD
ENDROOT
BRANCH   1  15
HETATM   15  C   UNL     1      42.129 -12.793   4.723  1.00  0.00     0.146 C 
BRANCH  15  16
HETATM   16  C   UNL     1      42.430 -13.445   3.393  1.00  0.00     0.224 C 
HETATM   17  N   UNL     1      41.330 -13.805   2.657  1.00  0.00    -0.327 N 
HETATM   18  H   UNL     1      40.416 -13.730   3.095  1.00  0.00     0.169 HD
HETATM   19  O   UNL     1      43.615 -13.641   3.114  1.00  0.00    -0.273 OA
BRANCH  17  20
HETATM   20  C   UNL     1      41.331 -14.412   1.380  1.00  0.00     0.036 A 
HETATM   21  C   UNL     1      41.331 -13.698   0.179  1.00  0.00     0.053 A 
HETATM   22  C   UNL     1      41.332 -14.378  -1.042  1.00  0.00     0.036 A 
HETATM   23  C   UNL     1      41.330 -15.769  -1.081  1.00  0.00     0.024 A 
HETATM   24 CL   UNL     1      41.330 -13.483  -2.512  1.00  0.00    -0.084 Cl
HETATM   25  C   UNL     1      41.323 -16.489   0.111  1.00  0.00     0.004 A 
HETATM   26  C   UNL     1      41.318 -15.813   1.335  1.00  0.00     0.029 A 
ENDBRANCH  17  20
ENDBRANCH  15  16
ENDBRANCH   1  15
TORSDOF 3
ENDMDL
MODEL 8
REMARK VINA RESULT:      -6.9      4.401      6.938
REMARK  3 active torsions:
REMARK  status: ('A' for Active; 'I' for Inactive)
REMARK    1  A    between atoms: C_6  and  N_7 
REMARK       I    between atoms: N_7  and  C_8 
REMARK    2  A    between atoms: C_8  and  C_9 
REMARK    3  A    between atoms: C_9  and  C_10 
ROOT
HETATM    1  C   UNL     1      40.690 -14.862   3.644  1.00  0.00     0.286 C 
HETATM    2  N   UNL     1      42.001 -15.643   3.643  1.00  0.00    -0.056 N 
HETATM    3  H   UNL     1      42.607 -15.218   2.907  1.00  0.00     0.278 HD
HETATM    4  H   UNL     1      42.508 -15.488   4.523  1.00  0.00     0.278 HD
HETATM    5  C   UNL     1      41.817 -17.116   3.378  1.00  0.00     0.209 C 
HETATM    6  C   UNL     1      41.065 -17.303   2.035  1.00  0.00     0.115 C 
HETATM    7  N   UNL     1      39.841 -16.505   1.979  1.00  0.00    -0.353 N 
HETATM    8  C   UNL     1      39.730 -15.242   2.498  1.00  0.00     0.249 C 
HETATM    9  O   UNL     1      38.840 -14.489   2.116  1.00  0.00    -0.271 OA
HETATM   10  C   UNL     1      43.180 -17.806   3.386  1.00  0.00     0.035 C 
HETATM   11  C   UNL     1      44.032 -17.478   2.162  1.00  0.00     0.002 C 
HETATM   12  C   UNL     1      43.274 -17.738   0.865  1.00  0.00     0.002 C 
HETATM   13  C   UNL     1      41.949 -16.984   0.821  1.00  0.00     0.027 C 
HETATM   14  H   UNL     1      39.178 -16.699   1.228  1.00  0.00     0.163 HD
ENDROOT
BRANCH   1  15
HETATM   15  C   UNL     1      40.949 -13.350   3.625  1.00  0.00     0.146 C 
BRANCH  15  16
HETATM   16  C   UNL     1      41.847 -13.033   2.451  1.00  0.00     0.224 C 
HETATM   17  N   UNL     1      41.204 -12.550   1.339  1.00  0.00    -0.327 N 
HETATM   18  H   UNL     1      40.188 -12.559   1.333  1.00  0.00     0.169 HD
HETATM   19  O   UNL     1      43.049 -13.279   2.574  1.00  0.00    -0.273 OA
BRANCH  17  20
HETATM   20  C   UNL     1      41.805 -12.161   0.120  1.00  0.00     0.036 A 
HETATM   21  C   UNL     1      42.347 -10.894  -0.111  1.00  0.00     0.053 A 
HETATM   22  C   UNL     1      42.923 -10.592  -1.348  1.00  0.00     0.036 A 
HETATM   23  C   UNL     1      42.963 -11.542  -2.365  1.00  0.00     0.024 A 
HETATM   24 CL   UNL     1      43.586  -9.026  -1.616  1.00  0.00    -0.084 Cl
HETATM   25  C   UNL     1      42.418 -12.804  -2.146  1.00  0.00     0.004 A 
HETATM   26  C   UNL     1      41.837 -13.110  -0.912  1.00  0.00     0.029 A 
ENDBRANCH  17  20
ENDBRANCH  15  16
ENDBRANCH   1  15
TORSDOF 3
ENDMDL
MODEL 9
REMARK VINA RESULT:      -6.9      3.754      6.835
REMARK  3 active torsions:
REMARK  status: ('A' for Active; 'I' for Inactive)
REMARK    1  A    between atoms: C_6  and  N_7 
REMARK       I    between atoms: N_7  and  C_8 
REMARK    2  A    between atoms: C_8  and  C_9 
REMARK    3  A    between atoms: C_9  and  C_10 
ROOT
HETATM    1  C   UNL     1      42.886 -16.183   3.469  1.00  0.00     0.286 C 
HETATM    2  N   UNL     1      42.711 -16.201   4.986  1.00  0.00    -0.056 N 
HETATM    3  H   UNL     1      43.590 -15.818   5.397  1.00  0.00     0.278 HD
HETATM    4  H   UNL     1      41.978 -15.539   5.266  1.00  0.00     0.278 HD
HETATM    5  C   UNL     1      42.436 -17.578   5.537  1.00  0.00     0.209 C 
HETATM    6  C   UNL     1      43.574 -18.538   5.104  1.00  0.00     0.115 C 
HETATM    7  N   UNL     1      43.814 -18.485   3.663  1.00  0.00    -0.353 N 
HETATM    8  C   UNL     1      43.758 -17.333   2.922  1.00  0.00     0.249 C 
HETATM    9  O   UNL     1      44.310 -17.268   1.830  1.00  0.00    -0.271 OA
HETATM   10  C   UNL     1      42.288 -17.494   7.056  1.00  0.00     0.035 C 
HETATM   11  C   UNL     1      43.609 -17.238   7.780  1.00  0.00     0.002 C 
HETATM   12  C   UNL     1      44.677 -18.245   7.370  1.00  0.00     0.002 C 
HETATM   13  C   UNL     1      44.884 -18.271   5.860  1.00  0.00     0.027 C 
HETATM   14  H   UNL     1      44.402 -19.208   3.249  1.00  0.00     0.163 HD
ENDROOT
BRANCH   1  15
HETATM   15  C   UNL     1      43.445 -14.836   2.995  1.00  0.00     0.146 C 
BRANCH  15  16
HETATM   16  C   UNL     1      42.387 -14.143   2.166  1.00  0.00     0.224 C 
HETATM   17  N   UNL     1      41.372 -14.952   1.722  1.00  0.00    -0.327 N 
HETATM   18  H   UNL     1      41.461 -15.954   1.864  1.00  0.00     0.169 HD
HETATM   19  O   UNL     1      42.553 -12.946   1.924  1.00  0.00    -0.273 OA
BRANCH  17  20
HETATM   20  C   UNL     1      40.256 -14.557   0.948  1.00  0.00     0.036 A 
HETATM   21  C   UNL     1      40.321 -14.252  -0.413  1.00  0.00     0.053 A 
HETATM   22  C   UNL     1      39.168 -13.869  -1.102  1.00  0.00     0.036 A 
HETATM   23  C   UNL     1      37.943 -13.784  -0.447  1.00  0.00     0.024 A 
HETATM   24 CL   UNL     1      39.266 -13.495  -2.780  1.00  0.00    -0.084 Cl
HETATM   25  C   UNL     1      37.870 -14.079   0.911  1.00  0.00     0.004 A 
HETATM   26  C   UNL     1      39.022 -14.458   1.607  1.00  0.00     0.029 A 
ENDBRANCH  17  20
ENDBRANCH  15  16
ENDBRANCH   1  15
TORSDOF 3
ENDMDL
MODEL 10
REMARK VINA RESULT:      -6.6      4.437      5.698
REMARK  3 active torsions:
REMARK  status: ('A' for Active; 'I' for Inactive)
REMARK    1  A    between atoms: C_6  and  N_7 
REMARK       I    between atoms: N_7  and  C_8 
REMARK    2  A    between atoms: C_8  and  C_9 
REMARK    3  A    between atoms: C_9  and  C_10 
ROOT
HETATM    1  C   UNL     1      41.665 -14.010  -0.848  1.00  0.00     0.286 C 
HETATM    2  N   UNL     1      41.970 -12.516  -0.791  1.00  0.00    -0.056 N 
HETATM    3  H   UNL     1      41.068 -12.016  -0.949  1.00  0.00     0.278 HD
HETATM    4  H   UNL     1      42.257 -12.248   0.158  1.00  0.00     0.278 HD
HETATM    5  C   UNL     1      42.993 -12.077  -1.809  1.00  0.00     0.209 C 
HETATM    6  C   UNL     1      42.512 -12.486  -3.225  1.00  0.00     0.115 C 
HETATM    7  N   UNL     1      42.141 -13.899  -3.289  1.00  0.00    -0.353 N 
HETATM    8  C   UNL     1      41.497 -14.565  -2.278  1.00  0.00     0.249 C 
HETATM    9  O   UNL     1      40.892 -15.607  -2.506  1.00  0.00    -0.271 OA
HETATM   10  C   UNL     1      43.220 -10.572  -1.681  1.00  0.00     0.035 C 
HETATM   11  C   UNL     1      42.047  -9.736  -2.189  1.00  0.00     0.002 C 
HETATM   12  C   UNL     1      41.652 -10.130  -3.608  1.00  0.00     0.002 C 
HETATM   13  C   UNL     1      41.345 -11.619  -3.719  1.00  0.00     0.027 C 
HETATM   14  H   UNL     1      41.996 -14.314  -4.209  1.00  0.00     0.163 HD
ENDROOT
BRANCH   1  15
HETATM   15  C   UNL     1      40.428 -14.352  -0.009  1.00  0.00     0.146 C 
BRANCH  15  16
HETATM   16  C   UNL     1      40.807 -15.420   0.992  1.00  0.00     0.224 C 
HETATM   17  N   UNL     1      42.133 -15.770   0.997  1.00  0.00    -0.327 N 
HETATM   18  H   UNL     1      42.730 -15.395   0.266  1.00  0.00     0.169 HD
HETATM   19  O   UNL     1      39.900 -15.910   1.667  1.00  0.00    -0.273 OA
BRANCH  17  20
HETATM   20  C   UNL     1      42.751 -16.722   1.841  1.00  0.00     0.036 A 
HETATM   21  C   UNL     1      42.984 -16.519   3.203  1.00  0.00     0.053 A 
HETATM   22  C   UNL     1      43.602 -17.514   3.965  1.00  0.00     0.036 A 
HETATM   23  C   UNL     1      43.995 -18.715   3.382  1.00  0.00     0.024 A 
HETATM   24 CL   UNL     1      43.883 -17.248   5.642  1.00  0.00    -0.084 Cl
HETATM   25  C   UNL     1      43.774 -18.923   2.023  1.00  0.00     0.004 A 
HETATM   26  C   UNL     1      43.160 -17.928   1.256  1.00  0.00     0.029 A 
ENDBRANCH  17  20
ENDBRANCH  15  16
ENDBRANCH   1  15
TORSDOF 3
ENDMDL
