MODEL 1
REMARK VINA RESULT:      -7.8      0.000      0.000
REMARK  10 active torsions:
REMARK  status: ('A' for Active; 'I' for Inactive)
REMARK    1  A    between atoms: C_2  and  C_3 
REMARK    2  A    between atoms: C_3  and  C_4 
REMARK    3  A    between atoms: C_4  and  N_5 
REMARK    4  A    between atoms: C_4  and  C_22 
REMARK    5  A    between atoms: N_5  and  C_6 
REMARK    6  A    between atoms: C_8  and  C_9 
REMARK    7  A    between atoms: C_16  and  C_17 
REMARK       I    between atoms: C_22  and  N_23 
REMARK    8  A    between atoms: N_23  and  C_24 
REMARK    9  A    between atoms: C_24  and  C_25 
REMARK   10  A    between atoms: C_25  and  O_26 
ROOT
HETATM    1  C   UNL     1      43.246 -17.688   1.932  1.00  0.00     0.108 A 
HETATM    2  N   UNL     1      43.262 -17.403   3.237  1.00  0.00    -0.215 NA
HETATM    3  C   UNL     1      43.489 -18.408   4.109  1.00  0.00     0.180 A 
HETATM    4  N   UNL     1      43.679 -19.688   3.737  1.00  0.00    -0.222 NA
HETATM    5  C   UNL     1      43.631 -19.967   2.414  1.00  0.00     0.146 A 
HETATM    6  C   UNL     1      43.426 -18.974   1.471  1.00  0.00     0.080 A 
ENDROOT
BRANCH   1   7
HETATM    7  N   UNL     1      42.984 -16.677   0.987  1.00  0.00    -0.264 NA
HETATM    8  H   UNL     1      43.196 -15.780   1.414  1.00  0.00     0.130 HD
BRANCH   7   9
HETATM    9  C   UNL     1      41.615 -16.706   0.401  1.00  0.00     0.154 C 
BRANCH   9  10
HETATM   10  C   UNL     1      40.565 -16.730   1.529  1.00  0.00     0.033 C 
BRANCH  10  11
HETATM   11  C   UNL     1      40.263 -15.363   2.180  1.00  0.00    -0.021 C 
HETATM   12  C   UNL     1      40.515 -15.356   3.689  1.00  0.00     0.009 C 
HETATM   13  C   UNL     1      38.808 -14.973   1.900  1.00  0.00     0.009 C 
ENDBRANCH  10  11
ENDBRANCH   9  10
BRANCH   9  14
HETATM   14  C   UNL     1      41.361 -15.437  -0.454  1.00  0.00     0.235 C 
HETATM   15  N   UNL     1      40.333 -15.579  -1.365  1.00  0.00    -0.358 N 
HETATM   16  H   UNL     1      39.669 -16.307  -1.109  1.00  0.00     0.162 HD
HETATM   17  O   UNL     1      42.067 -14.433  -0.380  1.00  0.00    -0.272 OA
BRANCH  15  18
HETATM   18  C   UNL     1      39.783 -14.430  -2.055  1.00  0.00     0.148 C 
BRANCH  18  19
HETATM   19  C   UNL     1      40.002 -14.533  -3.562  1.00  0.00     0.186 C 
BRANCH  19  20
HETATM   20  O   UNL     1      41.367 -14.206  -3.855  1.00  0.00    -0.394 OA
HETATM   21  C   UNL     1      41.665 -12.855  -3.529  1.00  0.00     0.201 C 
ENDBRANCH  19  20
ENDBRANCH  18  19
ENDBRANCH  15  18
ENDBRANCH   9  14
ENDBRANCH   7   9
ENDBRANCH   1   7
BRANCH   3  22
HETATM   22  C   UNL     1      43.553 -18.063   5.553  1.00  0.00     0.104 A 
HETATM   23  N   UNL     1      43.781 -19.081   6.433  1.00  0.00    -0.257 NA
HETATM   24  C   UNL     1      43.861 -18.783   7.747  1.00  0.00     0.117 A 
HETATM   25  C   UNL     1      43.730 -17.504   8.257  1.00  0.00     0.019 A 
HETATM   26  C   UNL     1      43.496 -16.467   7.365  1.00  0.00     0.004 A 
HETATM   27  C   UNL     1      43.405 -16.747   6.003  1.00  0.00     0.036 A 
ENDBRANCH   3  22
BRANCH   5  28
HETATM   28  C   UNL     1      43.808 -21.397   1.938  1.00  0.00     0.434 C 
HETATM   29  F   UNL     1      44.592 -21.540   0.834  1.00  0.00    -0.165 F 
HETATM   30  F   UNL     1      44.365 -22.198   2.894  1.00  0.00    -0.165 F 
HETATM   31  F   UNL     1      42.615 -21.988   1.628  1.00  0.00    -0.165 F 
ENDBRANCH   5  28
TORSDOF 10
ENDMDL
MODEL 2
REMARK VINA RESULT:      -7.8      2.862      4.204
REMARK  10 active torsions:
REMARK  status: ('A' for Active; 'I' for Inactive)
REMARK    1  A    between atoms: C_2  and  C_3 
REMARK    2  A    between atoms: C_3  and  C_4 
REMARK    3  A    between atoms: C_4  and  N_5 
REMARK    4  A    between atoms: C_4  and  C_22 
REMARK    5  A    between atoms: N_5  and  C_6 
REMARK    6  A    between atoms: C_8  and  C_9 
REMARK    7  A    between atoms: C_16  and  C_17 
REMARK       I    between atoms: C_22  and  N_23 
REMARK    8  A    between atoms: N_23  and  C_24 
REMARK    9  A    between atoms: C_24  and  C_25 
REMARK   10  A    between atoms: C_25  and  O_26 
ROOT
HETATM    1  C   UNL     1      42.990 -16.107   2.702  1.00  0.00     0.108 A 
HETATM    2  N   UNL     1      43.293 -17.386   2.460  1.00  0.00    -0.215 NA
HETATM    3  C   UNL     1      43.645 -18.168   3.503  1.00  0.00     0.180 A 
HETATM    4  N   UNL     1      43.729 -17.723   4.772  1.00  0.00    -0.222 NA
HETATM    5  C   UNL     1      43.448 -16.420   4.997  1.00  0.00     0.146 A 
HETATM    6  C   UNL     1      43.057 -15.575   3.971  1.00  0.00     0.080 A 
ENDROOT
BRANCH   1   7
HETATM    7  N   UNL     1      42.646 -15.247   1.641  1.00  0.00    -0.264 NA
HETATM    8  H   UNL     1      42.458 -14.326   2.026  1.00  0.00     0.130 HD
BRANCH   7   9
HETATM    9  C   UNL     1      41.531 -15.730   0.778  1.00  0.00     0.154 C 
BRANCH   9  10
HETATM   10  C   UNL     1      40.234 -15.822   1.606  1.00  0.00     0.033 C 
BRANCH  10  11
HETATM   11  C   UNL     1      39.635 -14.471   2.050  1.00  0.00    -0.021 C 
HETATM   12  C   UNL     1      39.628 -14.296   3.570  1.00  0.00     0.009 C 
HETATM   13  C   UNL     1      38.207 -14.340   1.511  1.00  0.00     0.009 C 
ENDBRANCH  10  11
ENDBRANCH   9  10
BRANCH   9  14
HETATM   14  C   UNL     1      41.278 -14.739  -0.389  1.00  0.00     0.235 C 
HETATM   15  N   UNL     1      40.283 -15.149  -1.256  1.00  0.00    -0.358 N 
HETATM   16  H   UNL     1      39.628 -15.803  -0.834  1.00  0.00     0.162 HD
HETATM   17  O   UNL     1      41.957 -13.730  -0.564  1.00  0.00    -0.272 OA
BRANCH  15  18
HETATM   18  C   UNL     1      39.731 -14.240  -2.239  1.00  0.00     0.148 C 
BRANCH  18  19
HETATM   19  C   UNL     1      40.359 -14.463  -3.613  1.00  0.00     0.186 C 
BRANCH  19  20
HETATM   20  O   UNL     1      40.154 -15.829  -3.999  1.00  0.00    -0.394 OA
HETATM   21  C   UNL     1      38.798 -16.080  -4.343  1.00  0.00     0.201 C 
ENDBRANCH  19  20
ENDBRANCH  18  19
ENDBRANCH  15  18
ENDBRANCH   9  14
ENDBRANCH   7   9
ENDBRANCH   1   7
BRANCH   3  22
HETATM   22  C   UNL     1      43.931 -19.599   3.223  1.00  0.00     0.104 A 
HETATM   23  N   UNL     1      44.546 -20.321   4.204  1.00  0.00    -0.257 NA
HETATM   24  C   UNL     1      44.796 -21.628   3.974  1.00  0.00     0.117 A 
HETATM   25  C   UNL     1      44.461 -22.282   2.803  1.00  0.00     0.019 A 
HETATM   26  C   UNL     1      43.836 -21.550   1.803  1.00  0.00     0.004 A 
HETATM   27  C   UNL     1      43.570 -20.198   2.011  1.00  0.00     0.036 A 
ENDBRANCH   3  22
BRANCH   5  28
HETATM   28  C   UNL     1      43.554 -15.856   6.401  1.00  0.00     0.434 C 
HETATM   29  F   UNL     1      42.823 -16.517   7.340  1.00  0.00    -0.165 F 
HETATM   30  F   UNL     1      44.839 -15.857   6.865  1.00  0.00    -0.165 F 
HETATM   31  F   UNL     1      43.152 -14.552   6.464  1.00  0.00    -0.165 F 
ENDBRANCH   5  28
TORSDOF 10
ENDMDL
MODEL 3
REMARK VINA RESULT:      -7.5      3.310      4.536
REMARK  10 active torsions:
REMARK  status: ('A' for Active; 'I' for Inactive)
REMARK    1  A    between atoms: C_2  and  C_3 
REMARK    2  A    between atoms: C_3  and  C_4 
REMARK    3  A    between atoms: C_4  and  N_5 
REMARK    4  A    between atoms: C_4  and  C_22 
REMARK    5  A    between atoms: N_5  and  C_6 
REMARK    6  A    between atoms: C_8  and  C_9 
REMARK    7  A    between atoms: C_16  and  C_17 
REMARK       I    between atoms: C_22  and  N_23 
REMARK    8  A    between atoms: N_23  and  C_24 
REMARK    9  A    between atoms: C_24  and  C_25 
REMARK   10  A    between atoms: C_25  and  O_26 
ROOT
HETATM    1  C   UNL     1      40.880 -16.613   2.094  1.00  0.00     0.108 A 
HETATM    2  N   UNL     1      41.741 -17.629   1.980  1.00  0.00    -0.215 NA
HETATM    3  C   UNL     1      42.268 -18.151   3.108  1.00  0.00     0.180 A 
HETATM    4  N   UNL     1      41.990 -17.688   4.343  1.00  0.00    -0.222 NA
HETATM    5  C   UNL     1      41.140 -16.641   4.440  1.00  0.00     0.146 A 
HETATM    6  C   UNL     1      40.549 -16.080   3.321  1.00  0.00     0.080 A 
ENDROOT
BRANCH   1   7
HETATM    7  N   UNL     1      40.328 -16.018   0.943  1.00  0.00    -0.264 NA
HETATM    8  H   UNL     1      40.723 -16.476   0.127  1.00  0.00     0.130 HD
BRANCH   7   9
HETATM    9  C   UNL     1      40.469 -14.536   0.874  1.00  0.00     0.154 C 
BRANCH   9  10
HETATM   10  C   UNL     1      41.959 -14.150   0.951  1.00  0.00     0.033 C 
BRANCH  10  11
HETATM   11  C   UNL     1      42.319 -13.116   2.039  1.00  0.00    -0.021 C 
HETATM   12  C   UNL     1      43.195 -13.703   3.147  1.00  0.00     0.009 C 
HETATM   13  C   UNL     1      41.035 -12.544   2.648  1.00  0.00     0.009 C 
ENDBRANCH  10  11
ENDBRANCH   9  10
BRANCH   9  14
HETATM   14  C   UNL     1      39.910 -13.999  -0.470  1.00  0.00     0.235 C 
HETATM   15  N   UNL     1      40.176 -14.819  -1.549  1.00  0.00    -0.358 N 
HETATM   16  H   UNL     1      40.350 -15.786  -1.282  1.00  0.00     0.162 HD
HETATM   17  O   UNL     1      39.356 -12.906  -0.570  1.00  0.00    -0.272 OA
BRANCH  15  18
HETATM   18  C   UNL     1      39.512 -14.618  -2.820  1.00  0.00     0.148 C 
BRANCH  18  19
HETATM   19  C   UNL     1      39.466 -15.912  -3.630  1.00  0.00     0.186 C 
BRANCH  19  20
HETATM   20  O   UNL     1      38.296 -15.896  -4.460  1.00  0.00    -0.394 OA
HETATM   21  C   UNL     1      37.276 -15.070  -3.915  1.00  0.00     0.201 C 
ENDBRANCH  19  20
ENDBRANCH  18  19
ENDBRANCH  15  18
ENDBRANCH   9  14
ENDBRANCH   7   9
ENDBRANCH   1   7
BRANCH   3  22
HETATM   22  C   UNL     1      43.184 -19.311   2.966  1.00  0.00     0.104 A 
HETATM   23  N   UNL     1      44.115 -19.501   3.945  1.00  0.00    -0.257 NA
HETATM   24  C   UNL     1      44.943 -20.562   3.842  1.00  0.00     0.117 A 
HETATM   25  C   UNL     1      44.902 -21.474   2.802  1.00  0.00     0.019 A 
HETATM   26  C   UNL     1      43.957 -21.283   1.804  1.00  0.00     0.004 A 
HETATM   27  C   UNL     1      43.092 -20.193   1.883  1.00  0.00     0.036 A 
ENDBRANCH   3  22
BRANCH   5  28
HETATM   28  C   UNL     1      40.813 -16.059   5.803  1.00  0.00     0.434 C 
HETATM   29  F   UNL     1      41.896 -15.716   6.554  1.00  0.00    -0.165 F 
HETATM   30  F   UNL     1      40.050 -14.930   5.717  1.00  0.00    -0.165 F 
HETATM   31  F   UNL     1      40.086 -16.924   6.571  1.00  0.00    -0.165 F 
ENDBRANCH   5  28
TORSDOF 10
ENDMDL
MODEL 4
REMARK VINA RESULT:      -7.4      3.660      6.650
REMARK  10 active torsions:
REMARK  status: ('A' for Active; 'I' for Inactive)
REMARK    1  A    between atoms: C_2  and  C_3 
REMARK    2  A    between atoms: C_3  and  C_4 
REMARK    3  A    between atoms: C_4  and  N_5 
REMARK    4  A    between atoms: C_4  and  C_22 
REMARK    5  A    between atoms: N_5  and  C_6 
REMARK    6  A    between atoms: C_8  and  C_9 
REMARK    7  A    between atoms: C_16  and  C_17 
REMARK       I    between atoms: C_22  and  N_23 
REMARK    8  A    between atoms: N_23  and  C_24 
REMARK    9  A    between atoms: C_24  and  C_25 
REMARK   10  A    between atoms: C_25  and  O_26 
ROOT
HETATM    1  C   UNL     1      41.014 -16.090   3.587  1.00  0.00     0.108 A 
HETATM    2  N   UNL     1      41.717 -17.220   3.703  1.00  0.00    -0.215 NA
HETATM    3  C   UNL     1      42.267 -17.749   2.590  1.00  0.00     0.180 A 
HETATM    4  N   UNL     1      42.126 -17.212   1.363  1.00  0.00    -0.222 NA
HETATM    5  C   UNL     1      41.387 -16.084   1.256  1.00  0.00     0.146 A 
HETATM    6  C   UNL     1      40.819 -15.481   2.366  1.00  0.00     0.080 A 
ENDROOT
BRANCH   1   7
HETATM    7  N   UNL     1      40.398 -15.517   4.717  1.00  0.00    -0.264 NA
HETATM    8  H   UNL     1      39.391 -15.560   4.587  1.00  0.00     0.130 HD
BRANCH   7   9
HETATM    9  C   UNL     1      40.859 -14.141   5.053  1.00  0.00     0.154 C 
BRANCH   9  10
HETATM   10  C   UNL     1      40.012 -13.575   6.209  1.00  0.00     0.033 C 
BRANCH  10  11
HETATM   11  C   UNL     1      39.436 -12.162   5.977  1.00  0.00    -0.021 C 
HETATM   12  C   UNL     1      39.045 -11.914   4.519  1.00  0.00     0.009 C 
HETATM   13  C   UNL     1      40.460 -11.112   6.420  1.00  0.00     0.009 C 
ENDBRANCH  10  11
ENDBRANCH   9  10
BRANCH   9  14
HETATM   14  C   UNL     1      42.339 -14.161   5.517  1.00  0.00     0.235 C 
HETATM   15  N   UNL     1      42.565 -14.972   6.613  1.00  0.00    -0.358 N 
HETATM   16  H   UNL     1      41.861 -15.699   6.725  1.00  0.00     0.162 HD
HETATM   17  O   UNL     1      43.207 -13.457   5.006  1.00  0.00    -0.272 OA
BRANCH  15  18
HETATM   18  C   UNL     1      43.911 -15.321   7.018  1.00  0.00     0.148 C 
BRANCH  18  19
HETATM   19  C   UNL     1      44.256 -16.753   6.616  1.00  0.00     0.186 C 
BRANCH  19  20
HETATM   20  O   UNL     1      43.269 -17.637   7.164  1.00  0.00    -0.394 OA
HETATM   21  C   UNL     1      43.841 -18.868   7.583  1.00  0.00     0.201 C 
ENDBRANCH  19  20
ENDBRANCH  18  19
ENDBRANCH  15  18
ENDBRANCH   9  14
ENDBRANCH   7   9
ENDBRANCH   1   7
BRANCH   3  22
HETATM   22  C   UNL     1      43.087 -18.978   2.746  1.00  0.00     0.104 A 
HETATM   23  N   UNL     1      43.839 -19.093   3.879  1.00  0.00    -0.257 NA
HETATM   24  C   UNL     1      44.575 -20.212   4.046  1.00  0.00     0.117 A 
HETATM   25  C   UNL     1      44.610 -21.254   3.138  1.00  0.00     0.019 A 
HETATM   26  C   UNL     1      43.848 -21.141   1.984  1.00  0.00     0.004 A 
HETATM   27  C   UNL     1      43.081 -19.994   1.784  1.00  0.00     0.036 A 
ENDBRANCH   3  22
BRANCH   5  28
HETATM   28  C   UNL     1      41.169 -15.451  -0.106  1.00  0.00     0.434 C 
HETATM   29  F   UNL     1      39.953 -14.863  -0.277  1.00  0.00    -0.165 F 
HETATM   30  F   UNL     1      42.092 -14.482  -0.381  1.00  0.00    -0.165 F 
HETATM   31  F   UNL     1      41.291 -16.358  -1.121  1.00  0.00    -0.165 F 
ENDBRANCH   5  28
TORSDOF 10
ENDMDL
MODEL 5
REMARK VINA RESULT:      -7.3      1.441      2.122
REMARK  10 active torsions:
REMARK  status: ('A' for Active; 'I' for Inactive)
REMARK    1  A    between atoms: C_2  and  C_3 
REMARK    2  A    between atoms: C_3  and  C_4 
REMARK    3  A    between atoms: C_4  and  N_5 
REMARK    4  A    between atoms: C_4  and  C_22 
REMARK    5  A    between atoms: N_5  and  C_6 
REMARK    6  A    between atoms: C_8  and  C_9 
REMARK    7  A    between atoms: C_16  and  C_17 
REMARK       I    between atoms: C_22  and  N_23 
REMARK    8  A    between atoms: N_23  and  C_24 
REMARK    9  A    between atoms: C_24  and  C_25 
REMARK   10  A    between atoms: C_25  and  O_26 
ROOT
HETATM    1  C   UNL     1      43.355 -17.528   1.951  1.00  0.00     0.108 A 
HETATM    2  N   UNL     1      43.349 -17.248   3.258  1.00  0.00    -0.215 NA
HETATM    3  C   UNL     1      43.474 -18.269   4.131  1.00  0.00     0.180 A 
HETATM    4  N   UNL     1      43.581 -19.559   3.759  1.00  0.00    -0.222 NA
HETATM    5  C   UNL     1      43.556 -19.831   2.434  1.00  0.00     0.146 A 
HETATM    6  C   UNL     1      43.456 -18.823   1.489  1.00  0.00     0.080 A 
ENDROOT
BRANCH   1   7
HETATM    7  N   UNL     1      43.198 -16.498   1.003  1.00  0.00    -0.264 NA
HETATM    8  H   UNL     1      44.046 -15.939   0.998  1.00  0.00     0.130 HD
BRANCH   7   9
HETATM    9  C   UNL     1      41.979 -15.662   1.182  1.00  0.00     0.154 C 
BRANCH   9  10
HETATM   10  C   UNL     1      42.381 -14.240   1.618  1.00  0.00     0.033 C 
BRANCH  10  11
HETATM   11  C   UNL     1      41.820 -13.782   2.981  1.00  0.00    -0.021 C 
HETATM   12  C   UNL     1      42.918 -13.476   4.002  1.00  0.00     0.009 C 
HETATM   13  C   UNL     1      40.885 -14.860   3.539  1.00  0.00     0.009 C 
ENDBRANCH  10  11
ENDBRANCH   9  10
BRANCH   9  14
HETATM   14  C   UNL     1      41.199 -15.544  -0.154  1.00  0.00     0.235 C 
HETATM   15  N   UNL     1      40.364 -14.444  -0.213  1.00  0.00    -0.358 N 
HETATM   16  H   UNL     1      40.641 -13.698   0.422  1.00  0.00     0.162 HD
HETATM   17  O   UNL     1      41.260 -16.396  -1.038  1.00  0.00    -0.272 OA
BRANCH  15  18
HETATM   18  C   UNL     1      39.767 -14.028  -1.465  1.00  0.00     0.148 C 
BRANCH  18  19
HETATM   19  C   UNL     1      38.293 -13.673  -1.284  1.00  0.00     0.186 C 
BRANCH  19  20
HETATM   20  O   UNL     1      37.883 -14.059   0.035  1.00  0.00    -0.394 OA
HETATM   21  C   UNL     1      37.241 -12.992   0.719  1.00  0.00     0.201 C 
ENDBRANCH  19  20
ENDBRANCH  18  19
ENDBRANCH  15  18
ENDBRANCH   9  14
ENDBRANCH   7   9
ENDBRANCH   1   7
BRANCH   3  22
HETATM   22  C   UNL     1      43.515 -17.934   5.578  1.00  0.00     0.104 A 
HETATM   23  N   UNL     1      43.607 -18.970   6.462  1.00  0.00    -0.257 NA
HETATM   24  C   UNL     1      43.665 -18.683   7.779  1.00  0.00     0.117 A 
HETATM   25  C   UNL     1      43.641 -17.398   8.290  1.00  0.00     0.019 A 
HETATM   26  C   UNL     1      43.547 -16.342   7.395  1.00  0.00     0.004 A 
HETATM   27  C   UNL     1      43.481 -16.610   6.028  1.00  0.00     0.036 A 
ENDBRANCH   3  22
BRANCH   5  28
HETATM   28  C   UNL     1      43.644 -21.268   1.957  1.00  0.00     0.434 C 
HETATM   29  F   UNL     1      44.116 -22.150   2.880  1.00  0.00    -0.165 F 
HETATM   30  F   UNL     1      42.432 -21.759   1.561  1.00  0.00    -0.165 F 
HETATM   31  F   UNL     1      44.456 -21.399   0.865  1.00  0.00    -0.165 F 
ENDBRANCH   5  28
TORSDOF 10
ENDMDL
MODEL 6
REMARK VINA RESULT:      -7.3      4.187      7.071
REMARK  10 active torsions:
REMARK  status: ('A' for Active; 'I' for Inactive)
REMARK    1  A    between atoms: C_2  and  C_3 
REMARK    2  A    between atoms: C_3  and  C_4 
REMARK    3  A    between atoms: C_4  and  N_5 
REMARK    4  A    between atoms: C_4  and  C_22 
REMARK    5  A    between atoms: N_5  and  C_6 
REMARK    6  A    between atoms: C_8  and  C_9 
REMARK    7  A    between atoms: C_16  and  C_17 
REMARK       I    between atoms: C_22  and  N_23 
REMARK    8  A    between atoms: N_23  and  C_24 
REMARK    9  A    between atoms: C_24  and  C_25 
REMARK   10  A    between atoms: C_25  and  O_26 
ROOT
HETATM    1  C   UNL     1      43.088 -15.097   3.120  1.00  0.00     0.108 A 
HETATM    2  N   UNL     1      43.440 -16.367   3.340  1.00  0.00    -0.215 NA
HETATM    3  C   UNL     1      43.131 -17.288   2.404  1.00  0.00     0.180 A 
HETATM    4  N   UNL     1      42.466 -17.001   1.268  1.00  0.00    -0.222 NA
HETATM    5  C   UNL     1      42.090 -15.717   1.072  1.00  0.00     0.146 A 
HETATM    6  C   UNL     1      42.401 -14.723   1.985  1.00  0.00     0.080 A 
ENDROOT
BRANCH   1   7
HETATM    7  N   UNL     1      43.365 -14.106   4.082  1.00  0.00    -0.264 NA
HETATM    8  H   UNL     1      44.371 -14.061   4.213  1.00  0.00     0.130 HD
BRANCH   7   9
HETATM    9  C   UNL     1      42.641 -14.268   5.374  1.00  0.00     0.154 C 
BRANCH   9  10
HETATM   10  C   UNL     1      43.652 -14.515   6.510  1.00  0.00     0.033 C 
BRANCH  10  11
HETATM   11  C   UNL     1      43.603 -15.921   7.146  1.00  0.00    -0.021 C 
HETATM   12  C   UNL     1      44.757 -16.817   6.693  1.00  0.00     0.009 C 
HETATM   13  C   UNL     1      42.268 -16.591   6.806  1.00  0.00     0.009 C 
ENDBRANCH  10  11
ENDBRANCH   9  10
BRANCH   9  14
HETATM   14  C   UNL     1      41.847 -12.980   5.719  1.00  0.00     0.235 C 
HETATM   15  N   UNL     1      42.250 -12.380   6.896  1.00  0.00    -0.358 N 
HETATM   16  H   UNL     1      43.202 -12.622   7.163  1.00  0.00     0.162 HD
HETATM   17  O   UNL     1      40.898 -12.584   5.047  1.00  0.00    -0.272 OA
BRANCH  15  18
HETATM   18  C   UNL     1      41.813 -11.042   7.238  1.00  0.00     0.148 C 
BRANCH  18  19
HETATM   19  C   UNL     1      42.321 -10.631   8.618  1.00  0.00     0.186 C 
BRANCH  19  20
HETATM   20  O   UNL     1      43.700 -11.005   8.734  1.00  0.00    -0.394 OA
HETATM   21  C   UNL     1      44.136 -10.992  10.087  1.00  0.00     0.201 C 
ENDBRANCH  19  20
ENDBRANCH  18  19
ENDBRANCH  15  18
ENDBRANCH   9  14
ENDBRANCH   7   9
ENDBRANCH   1   7
BRANCH   3  22
HETATM   22  C   UNL     1      43.573 -18.686   2.643  1.00  0.00     0.104 A 
HETATM   23  N   UNL     1      43.326 -19.601   1.660  1.00  0.00    -0.257 NA
HETATM   24  C   UNL     1      43.739 -20.872   1.852  1.00  0.00     0.117 A 
HETATM   25  C   UNL     1      44.403 -21.303   2.986  1.00  0.00     0.019 A 
HETATM   26  C   UNL     1      44.655 -20.376   3.988  1.00  0.00     0.004 A 
HETATM   27  C   UNL     1      44.236 -19.058   3.818  1.00  0.00     0.036 A 
ENDBRANCH   3  22
BRANCH   5  28
HETATM   28  C   UNL     1      41.313 -15.340  -0.175  1.00  0.00     0.434 C 
HETATM   29  F   UNL     1      41.164 -16.344  -1.083  1.00  0.00    -0.165 F 
HETATM   30  F   UNL     1      40.048 -14.909   0.111  1.00  0.00    -0.165 F 
HETATM   31  F   UNL     1      41.897 -14.307  -0.854  1.00  0.00    -0.165 F 
ENDBRANCH   5  28
TORSDOF 10
ENDMDL
MODEL 7
REMARK VINA RESULT:      -7.2      3.979      5.202
REMARK  10 active torsions:
REMARK  status: ('A' for Active; 'I' for Inactive)
REMARK    1  A    between atoms: C_2  and  C_3 
REMARK    2  A    between atoms: C_3  and  C_4 
REMARK    3  A    between atoms: C_4  and  N_5 
REMARK    4  A    between atoms: C_4  and  C_22 
REMARK    5  A    between atoms: N_5  and  C_6 
REMARK    6  A    between atoms: C_8  and  C_9 
REMARK    7  A    between atoms: C_16  and  C_17 
REMARK       I    between atoms: C_22  and  N_23 
REMARK    8  A    between atoms: N_23  and  C_24 
REMARK    9  A    between atoms: C_24  and  C_25 
REMARK   10  A    between atoms: C_25  and  O_26 
ROOT
HETATM    1  C   UNL     1      40.578 -15.517   3.420  1.00  0.00     0.108 A 
HETATM    2  N   UNL     1      41.351 -16.360   4.112  1.00  0.00    -0.215 NA
HETATM    3  C   UNL     1      41.581 -16.094   5.415  1.00  0.00     0.180 A 
HETATM    4  N   UNL     1      41.092 -15.013   6.051  1.00  0.00    -0.222 NA
HETATM    5  C   UNL     1      40.336 -14.153   5.331  1.00  0.00     0.146 A 
HETATM    6  C   UNL     1      40.045 -14.385   3.998  1.00  0.00     0.080 A 
ENDROOT
BRANCH   1   7
HETATM    7  N   UNL     1      40.335 -15.739   2.051  1.00  0.00    -0.264 NA
HETATM    8  H   UNL     1      39.800 -16.597   1.957  1.00  0.00     0.130 HD
BRANCH   7   9
HETATM    9  C   UNL     1      41.551 -15.741   1.190  1.00  0.00     0.154 C 
BRANCH   9  10
HETATM   10  C   UNL     1      41.829 -17.170   0.685  1.00  0.00     0.033 C 
BRANCH  10  11
HETATM   11  C   UNL     1      43.173 -17.781   1.137  1.00  0.00    -0.021 C 
HETATM   12  C   UNL     1      42.993 -19.022   2.014  1.00  0.00     0.009 C 
HETATM   13  C   UNL     1      43.986 -16.728   1.896  1.00  0.00     0.009 C 
ENDBRANCH  10  11
ENDBRANCH   9  10
BRANCH   9  14
HETATM   14  C   UNL     1      41.341 -14.833  -0.051  1.00  0.00     0.235 C 
HETATM   15  N   UNL     1      40.441 -15.345  -0.966  1.00  0.00    -0.358 N 
HETATM   16  H   UNL     1      39.788 -16.010  -0.556  1.00  0.00     0.162 HD
HETATM   17  O   UNL     1      41.980 -13.800  -0.235  1.00  0.00    -0.272 OA
BRANCH  15  18
HETATM   18  C   UNL     1      39.923 -14.525  -2.041  1.00  0.00     0.148 C 
BRANCH  18  19
HETATM   19  C   UNL     1      40.589 -14.872  -3.371  1.00  0.00     0.186 C 
BRANCH  19  20
HETATM   20  O   UNL     1      39.570 -15.174  -4.333  1.00  0.00    -0.394 OA
HETATM   21  C   UNL     1      38.962 -16.433  -4.077  1.00  0.00     0.201 C 
ENDBRANCH  19  20
ENDBRANCH  18  19
ENDBRANCH  15  18
ENDBRANCH   9  14
ENDBRANCH   7   9
ENDBRANCH   1   7
BRANCH   3  22
HETATM   22  C   UNL     1      42.400 -17.068   6.180  1.00  0.00     0.104 A 
HETATM   23  N   UNL     1      42.730 -16.741   7.464  1.00  0.00    -0.257 NA
HETATM   24  C   UNL     1      43.458 -17.624   8.181  1.00  0.00     0.117 A 
HETATM   25  C   UNL     1      43.889 -18.844   7.693  1.00  0.00     0.019 A 
HETATM   26  C   UNL     1      43.556 -19.179   6.388  1.00  0.00     0.004 A 
HETATM   27  C   UNL     1      42.809 -18.285   5.623  1.00  0.00     0.036 A 
ENDBRANCH   3  22
BRANCH   5  28
HETATM   28  C   UNL     1      39.783 -12.902   5.988  1.00  0.00     0.434 C 
HETATM   29  F   UNL     1      40.666 -11.871   6.092  1.00  0.00    -0.165 F 
HETATM   30  F   UNL     1      38.702 -12.399   5.321  1.00  0.00    -0.165 F 
HETATM   31  F   UNL     1      39.338 -13.141   7.258  1.00  0.00    -0.165 F 
ENDBRANCH   5  28
TORSDOF 10
ENDMDL
MODEL 8
REMARK VINA RESULT:      -7.2      3.000      4.341
REMARK  10 active torsions:
REMARK  status: ('A' for Active; 'I' for Inactive)
REMARK    1  A    between atoms: C_2  and  C_3 
REMARK    2  A    between atoms: C_3  and  C_4 
REMARK    3  A    between atoms: C_4  and  N_5 
REMARK    4  A    between atoms: C_4  and  C_22 
REMARK    5  A    between atoms: N_5  and  C_6 
REMARK    6  A    between atoms: C_8  and  C_9 
REMARK    7  A    between atoms: C_16  and  C_17 
REMARK       I    between atoms: C_22  and  N_23 
REMARK    8  A    between atoms: N_23  and  C_24 
REMARK    9  A    between atoms: C_24  and  C_25 
REMARK   10  A    between atoms: C_25  and  O_26 
ROOT
HETATM    1  C   UNL     1      42.964 -16.177   2.512  1.00  0.00     0.108 A 
HETATM    2  N   UNL     1      43.261 -17.465   2.314  1.00  0.00    -0.215 NA
HETATM    3  C   UNL     1      43.661 -18.200   3.373  1.00  0.00     0.180 A 
HETATM    4  N   UNL     1      43.801 -17.700   4.616  1.00  0.00    -0.222 NA
HETATM    5  C   UNL     1      43.526 -16.388   4.796  1.00  0.00     0.146 A 
HETATM    6  C   UNL     1      43.086 -15.590   3.753  1.00  0.00     0.080 A 
ENDROOT
BRANCH   1   7
HETATM    7  N   UNL     1      42.570 -15.365   1.431  1.00  0.00    -0.264 NA
HETATM    8  H   UNL     1      42.338 -14.445   1.793  1.00  0.00     0.130 HD
BRANCH   7   9
HETATM    9  C   UNL     1      41.476 -15.927   0.591  1.00  0.00     0.154 C 
BRANCH   9  10
HETATM   10  C   UNL     1      40.150 -15.902   1.376  1.00  0.00     0.033 C 
BRANCH  10  11
HETATM   11  C   UNL     1      39.625 -14.497   1.743  1.00  0.00    -0.021 C 
HETATM   12  C   UNL     1      39.652 -14.229   3.249  1.00  0.00     0.009 C 
HETATM   13  C   UNL     1      38.196 -14.330   1.217  1.00  0.00     0.009 C 
ENDBRANCH  10  11
ENDBRANCH   9  10
BRANCH   9  14
HETATM   14  C   UNL     1      41.282 -15.076  -0.691  1.00  0.00     0.235 C 
HETATM   15  N   UNL     1      42.096 -13.961  -0.744  1.00  0.00    -0.358 N 
HETATM   16  H   UNL     1      42.930 -14.047  -0.166  1.00  0.00     0.162 HD
HETATM   17  O   UNL     1      40.426 -15.330  -1.536  1.00  0.00    -0.272 OA
BRANCH  15  18
HETATM   18  C   UNL     1      42.245 -13.204  -1.970  1.00  0.00     0.148 C 
BRANCH  18  19
HETATM   19  C   UNL     1      42.844 -11.826  -1.699  1.00  0.00     0.186 C 
BRANCH  19  20
HETATM   20  O   UNL     1      42.032 -10.835  -2.343  1.00  0.00    -0.394 OA
HETATM   21  C   UNL     1      42.785  -9.679  -2.685  1.00  0.00     0.201 C 
ENDBRANCH  19  20
ENDBRANCH  18  19
ENDBRANCH  15  18
ENDBRANCH   9  14
ENDBRANCH   7   9
ENDBRANCH   1   7
BRANCH   3  22
HETATM   22  C   UNL     1      43.939 -19.641   3.144  1.00  0.00     0.104 A 
HETATM   23  N   UNL     1      44.569 -20.327   4.142  1.00  0.00    -0.257 NA
HETATM   24  C   UNL     1      44.811 -21.642   3.959  1.00  0.00     0.117 A 
HETATM   25  C   UNL     1      44.455 -22.340   2.819  1.00  0.00     0.019 A 
HETATM   26  C   UNL     1      43.815 -21.646   1.802  1.00  0.00     0.004 A 
HETATM   27  C   UNL     1      43.556 -20.286   1.963  1.00  0.00     0.036 A 
ENDBRANCH   3  22
BRANCH   5  28
HETATM   28  C   UNL     1      43.694 -15.763   6.168  1.00  0.00     0.434 C 
HETATM   29  F   UNL     1      44.578 -16.400   6.984  1.00  0.00    -0.165 F 
HETATM   30  F   UNL     1      44.119 -14.467   6.101  1.00  0.00    -0.165 F 
HETATM   31  F   UNL     1      42.516 -15.716   6.860  1.00  0.00    -0.165 F 
ENDBRANCH   5  28
TORSDOF 10
ENDMDL
MODEL 9
REMARK VINA RESULT:      -7.2      4.091      7.089
REMARK  10 active torsions:
REMARK  status: ('A' for Active; 'I' for Inactive)
REMARK    1  A    between atoms: C_2  and  C_3 
REMARK    2  A    between atoms: C_3  and  C_4 
REMARK    3  A    between atoms: C_4  and  N_5 
REMARK    4  A    between atoms: C_4  and  C_22 
REMARK    5  A    between atoms: N_5  and  C_6 
REMARK    6  A    between atoms: C_8  and  C_9 
REMARK    7  A    between atoms: C_16  and  C_17 
REMARK       I    between atoms: C_22  and  N_23 
REMARK    8  A    between atoms: N_23  and  C_24 
REMARK    9  A    between atoms: C_24  and  C_25 
REMARK   10  A    between atoms: C_25  and  O_26 
ROOT
HETATM    1  C   UNL     1      41.236 -16.411   3.701  1.00  0.00     0.108 A 
HETATM    2  N   UNL     1      41.908 -17.566   3.729  1.00  0.00    -0.215 NA
HETATM    3  C   UNL     1      42.397 -18.051   2.568  1.00  0.00     0.180 A 
HETATM    4  N   UNL     1      42.225 -17.445   1.377  1.00  0.00    -0.222 NA
HETATM    5  C   UNL     1      41.519 -16.292   1.360  1.00  0.00     0.146 A 
HETATM    6  C   UNL     1      41.014 -15.733   2.522  1.00  0.00     0.080 A 
ENDROOT
BRANCH   1   7
HETATM    7  N   UNL     1      40.683 -15.883   4.883  1.00  0.00    -0.264 NA
HETATM    8  H   UNL     1      39.687 -15.749   4.736  1.00  0.00     0.130 HD
BRANCH   7   9
HETATM    9  C   UNL     1      41.344 -14.646   5.387  1.00  0.00     0.154 C 
BRANCH   9  10
HETATM   10  C   UNL     1      40.340 -13.816   6.209  1.00  0.00     0.033 C 
BRANCH  10  11
HETATM   11  C   UNL     1      40.134 -12.363   5.730  1.00  0.00    -0.021 C 
HETATM   12  C   UNL     1      40.554 -12.154   4.274  1.00  0.00     0.009 C 
HETATM   13  C   UNL     1      40.922 -11.409   6.633  1.00  0.00     0.009 C 
ENDBRANCH  10  11
ENDBRANCH   9  10
BRANCH   9  14
HETATM   14  C   UNL     1      42.534 -15.005   6.316  1.00  0.00     0.235 C 
HETATM   15  N   UNL     1      43.473 -13.998   6.427  1.00  0.00    -0.358 N 
HETATM   16  H   UNL     1      43.098 -13.076   6.213  1.00  0.00     0.162 HD
HETATM   17  O   UNL     1      42.662 -16.112   6.835  1.00  0.00    -0.272 OA
BRANCH  15  18
HETATM   18  C   UNL     1      44.502 -14.047   7.446  1.00  0.00     0.148 C 
BRANCH  18  19
HETATM   19  C   UNL     1      44.554 -12.745   8.241  1.00  0.00     0.186 C 
BRANCH  19  20
HETATM   20  O   UNL     1      45.449 -12.916   9.349  1.00  0.00    -0.394 OA
HETATM   21  C   UNL     1      45.159 -12.008  10.403  1.00  0.00     0.201 C 
ENDBRANCH  19  20
ENDBRANCH  18  19
ENDBRANCH  15  18
ENDBRANCH   9  14
ENDBRANCH   7   9
ENDBRANCH   1   7
BRANCH   3  22
HETATM   22  C   UNL     1      43.183 -19.310   2.626  1.00  0.00     0.104 A 
HETATM   23  N   UNL     1      44.095 -19.436   3.633  1.00  0.00    -0.257 NA
HETATM   24  C   UNL     1      44.804 -20.582   3.713  1.00  0.00     0.117 A 
HETATM   25  C   UNL     1      44.659 -21.641   2.835  1.00  0.00     0.019 A 
HETATM   26  C   UNL     1      43.734 -21.516   1.808  1.00  0.00     0.004 A 
HETATM   27  C   UNL     1      42.990 -20.342   1.700  1.00  0.00     0.036 A 
ENDBRANCH   3  22
BRANCH   5  28
HETATM   28  C   UNL     1      41.269 -15.580   0.043  1.00  0.00     0.434 C 
HETATM   29  F   UNL     1      42.175 -14.612  -0.266  1.00  0.00    -0.165 F 
HETATM   30  F   UNL     1      41.267 -16.438  -1.020  1.00  0.00    -0.165 F 
HETATM   31  F   UNL     1      40.046 -14.970   0.012  1.00  0.00    -0.165 F 
ENDBRANCH   5  28
TORSDOF 10
ENDMDL
MODEL 10
REMARK VINA RESULT:      -7.1      3.494      5.926
REMARK  10 active torsions:
REMARK  status: ('A' for Active; 'I' for Inactive)
REMARK    1  A    between atoms: C_2  and  C_3 
REMARK    2  A    between atoms: C_3  and  C_4 
REMARK    3  A    between atoms: C_4  and  N_5 
REMARK    4  A    between atoms: C_4  and  C_22 
REMARK    5  A    between atoms: N_5  and  C_6 
REMARK    6  A    between atoms: C_8  and  C_9 
REMARK    7  A    between atoms: C_16  and  C_17 
REMARK       I    between atoms: C_22  and  N_23 
REMARK    8  A    between atoms: N_23  and  C_24 
REMARK    9  A    between atoms: C_24  and  C_25 
REMARK   10  A    between atoms: C_25  and  O_26 
ROOT
HETATM    1  C   UNL     1      41.975 -16.921   4.264  1.00  0.00     0.108 A 
HETATM    2  N   UNL     1      41.134 -15.898   4.086  1.00  0.00    -0.215 NA
HETATM    3  C   UNL     1      41.262 -14.817   4.884  1.00  0.00     0.180 A 
HETATM    4  N   UNL     1      42.178 -14.722   5.866  1.00  0.00    -0.222 NA
HETATM    5  C   UNL     1      43.004 -15.777   6.055  1.00  0.00     0.146 A 
HETATM    6  C   UNL     1      42.936 -16.902   5.251  1.00  0.00     0.080 A 
ENDROOT
BRANCH   1   7
HETATM    7  N   UNL     1      41.859 -18.081   3.474  1.00  0.00    -0.264 NA
HETATM    8  H   UNL     1      41.622 -18.859   4.083  1.00  0.00     0.130 HD
BRANCH   7   9
HETATM    9  C   UNL     1      43.044 -18.380   2.622  1.00  0.00     0.154 C 
BRANCH   9  10
HETATM   10  C   UNL     1      43.088 -19.887   2.300  1.00  0.00     0.033 C 
BRANCH  10  11
HETATM   11  C   UNL     1      44.451 -20.573   2.529  1.00  0.00    -0.021 C 
HETATM   12  C   UNL     1      44.468 -22.028   2.057  1.00  0.00     0.009 C 
HETATM   13  C   UNL     1      44.815 -20.511   4.015  1.00  0.00     0.009 C 
ENDBRANCH  10  11
ENDBRANCH   9  10
BRANCH   9  14
HETATM   14  C   UNL     1      42.956 -17.612   1.278  1.00  0.00     0.235 C 
HETATM   15  N   UNL     1      41.693 -17.126   0.999  1.00  0.00    -0.358 N 
HETATM   16  H   UNL     1      41.118 -17.007   1.830  1.00  0.00     0.162 HD
HETATM   17  O   UNL     1      43.904 -17.519   0.501  1.00  0.00    -0.272 OA
BRANCH  15  18
HETATM   18  C   UNL     1      41.481 -16.168  -0.066  1.00  0.00     0.148 C 
BRANCH  18  19
HETATM   19  C   UNL     1      41.620 -14.735   0.443  1.00  0.00     0.186 C 
BRANCH  19  20
HETATM   20  O   UNL     1      41.608 -13.842  -0.678  1.00  0.00    -0.394 OA
HETATM   21  C   UNL     1      42.013 -12.531  -0.311  1.00  0.00     0.201 C 
ENDBRANCH  19  20
ENDBRANCH  18  19
ENDBRANCH  15  18
ENDBRANCH   9  14
ENDBRANCH   7   9
ENDBRANCH   1   7
BRANCH   3  22
HETATM   22  C   UNL     1      40.351 -13.670   4.639  1.00  0.00     0.104 A 
HETATM   23  N   UNL     1      40.018 -12.891   5.709  1.00  0.00    -0.257 NA
HETATM   24  C   UNL     1      39.207 -11.832   5.500  1.00  0.00     0.117 A 
HETATM   25  C   UNL     1      38.694 -11.486   4.264  1.00  0.00     0.019 A 
HETATM   26  C   UNL     1      39.029 -12.276   3.173  1.00  0.00     0.004 A 
HETATM   27  C   UNL     1      39.862 -13.378   3.360  1.00  0.00     0.036 A 
ENDBRANCH   3  22
BRANCH   5  28
HETATM   28  C   UNL     1      44.036 -15.738   7.166  1.00  0.00     0.434 C 
HETATM   29  F   UNL     1      44.426 -14.489   7.543  1.00  0.00    -0.165 F 
HETATM   30  F   UNL     1      43.596 -16.348   8.306  1.00  0.00    -0.165 F 
HETATM   31  F   UNL     1      45.183 -16.400   6.827  1.00  0.00    -0.165 F 
ENDBRANCH   5  28
TORSDOF 10
ENDMDL
