MODEL 1
REMARK VINA RESULT:     -10.6      0.000      0.000
REMARK  8 active torsions:
REMARK  status: ('A' for Active; 'I' for Inactive)
REMARK    1  A    between atoms: C_4  and  C_5 
REMARK    2  A    between atoms: C_5  and  C_6 
REMARK    3  A    between atoms: C_6  and  C_7 
REMARK    4  A    between atoms: C_7  and  N_8 
REMARK       I    between atoms: N_8  and  C_9 
REMARK    5  A    between atoms: C_9  and  C_10 
REMARK    6  A    between atoms: C_11  and  N_12 
REMARK    7  A    between atoms: N_13  and  N_14 
REMARK    8  A    between atoms: C_15  and  C_16 
ROOT
HETATM    1  C   UNL     1      43.574 -14.589   6.654  1.00  0.00     0.104 C 
HETATM    2  C   UNL     1      43.249 -15.785   7.284  1.00  0.00     0.123 C 
HETATM    3  N   UNL     1      42.742 -16.614   6.283  1.00  0.00    -0.202 N 
HETATM    4  C   UNL     1      42.127 -15.787   5.361  1.00  0.00     0.183 A 
HETATM    5  C   UNL     1      42.703 -14.528   5.524  1.00  0.00     0.124 A 
HETATM    6  N   UNL     1      42.436 -13.524   4.650  1.00  0.00    -0.242 NA
HETATM    7  C   UNL     1      41.538 -13.828   3.697  1.00  0.00     0.086 A 
HETATM    8  C   UNL     1      40.949 -15.115   3.574  1.00  0.00     0.088 A 
HETATM    9  N   UNL     1      41.258 -16.138   4.386  1.00  0.00    -0.225 NA
HETATM   10  C   UNL     1      41.167 -12.834   2.800  1.00  0.00     0.034 A 
HETATM   11  C   UNL     1      40.222 -13.066   1.799  1.00  0.00     0.002 A 
HETATM   12  C   UNL     1      39.638 -14.320   1.688  1.00  0.00     0.002 A 
HETATM   13  C   UNL     1      40.012 -15.332   2.572  1.00  0.00     0.034 A 
ENDROOT
BRANCH   1  14
HETATM   14  C   UNL     1      44.646 -13.672   7.033  1.00  0.00     0.257 C 
HETATM   15  N   UNL     1      44.285 -12.796   8.051  1.00  0.00    -0.357 N 
HETATM   16  H   UNL     1      43.304 -12.869   8.302  1.00  0.00     0.162 HD
HETATM   17  O   UNL     1      45.794 -13.765   6.617  1.00  0.00    -0.267 OA
BRANCH  15  18
HETATM   18  C   UNL     1      45.124 -12.647   9.222  1.00  0.00     0.123 C 
BRANCH  18  19
HETATM   19  C   UNL     1      44.441 -12.436  10.566  1.00  0.00     0.024 C 
BRANCH  19  20
HETATM   20  C   UNL     1      43.313 -11.403  10.517  1.00  0.00     0.040 C 
BRANCH  20  21
HETATM   21  C   UNL     1      42.936 -10.822  11.864  1.00  0.00    -0.058 A 
HETATM   22  C   UNL     1      43.742  -9.896  12.542  1.00  0.00     0.007 A 
HETATM   23  C   UNL     1      43.372  -9.411  13.798  1.00  0.00     0.001 A 
HETATM   24  C   UNL     1      42.176  -9.821  14.381  1.00  0.00     0.000 A 
HETATM   25  C   UNL     1      41.345 -10.711  13.703  1.00  0.00     0.001 A 
HETATM   26  C   UNL     1      41.721 -11.204  12.452  1.00  0.00     0.007 A 
ENDBRANCH  20  21
ENDBRANCH  19  20
ENDBRANCH  18  19
ENDBRANCH  15  18
ENDBRANCH   1  14
BRANCH   2  27
HETATM   27  N   UNL     1      43.516 -16.252   8.546  1.00  0.00    -0.286 NA
HETATM   28  H   UNL     1      44.214 -15.722   9.079  1.00  0.00     0.125 HD
HETATM   29  H   UNL     1      42.694 -16.372   9.152  1.00  0.00     0.125 HD
ENDBRANCH   2  27
BRANCH   3  30
HETATM   30  N   UNL     1      42.934 -17.970   6.148  1.00  0.00    -0.176 NA
HETATM   31  C   UNL     1      43.997 -18.238   5.457  1.00  0.00     0.153 C 
BRANCH  31  32
HETATM   32  C   UNL     1      44.363 -19.584   5.086  1.00  0.00     0.011 A 
HETATM   33  C   UNL     1      44.225 -20.156   3.780  1.00  0.00     0.004 A 
HETATM   34  C   UNL     1      44.561 -21.505   3.879  1.00  0.00     0.043 A 
HETATM   35  C   UNL     1      43.825 -19.650   2.523  1.00  0.00     0.014 A 
HETATM   36  C   UNL     1      44.495 -22.380   2.788  1.00  0.00     0.030 A 
HETATM   37  N   UNL     1      44.925 -21.735   5.187  1.00  0.00    -0.364 N 
HETATM   38  C   UNL     1      44.094 -21.854   1.555  1.00  0.00     0.002 A 
HETATM   39  C   UNL     1      43.768 -20.507   1.420  1.00  0.00     0.001 A 
HETATM   40  H   UNL     1      45.203 -22.635   5.554  1.00  0.00     0.165 HD
HETATM   41  C   UNL     1      44.826 -20.581   5.919  1.00  0.00     0.102 A 
ENDBRANCH  31  32
ENDBRANCH   3  30
TORSDOF 8
ENDMDL
MODEL 2
REMARK VINA RESULT:     -10.5      2.839     10.137
REMARK  8 active torsions:
REMARK  status: ('A' for Active; 'I' for Inactive)
REMARK    1  A    between atoms: C_4  and  C_5 
REMARK    2  A    between atoms: C_5  and  C_6 
REMARK    3  A    between atoms: C_6  and  C_7 
REMARK    4  A    between atoms: C_7  and  N_8 
REMARK       I    between atoms: N_8  and  C_9 
REMARK    5  A    between atoms: C_9  and  C_10 
REMARK    6  A    between atoms: C_11  and  N_12 
REMARK    7  A    between atoms: N_13  and  N_14 
REMARK    8  A    between atoms: C_15  and  C_16 
ROOT
HETATM    1  C   UNL     1      41.300 -15.663   4.332  1.00  0.00     0.104 C 
HETATM    2  C   UNL     1      41.389 -15.334   5.680  1.00  0.00     0.123 C 
HETATM    3  N   UNL     1      42.635 -15.800   6.101  1.00  0.00    -0.202 N 
HETATM    4  C   UNL     1      42.915 -16.919   5.340  1.00  0.00     0.183 A 
HETATM    5  C   UNL     1      42.147 -16.804   4.182  1.00  0.00     0.124 A 
HETATM    6  N   UNL     1      42.318 -17.664   3.146  1.00  0.00    -0.242 NA
HETATM    7  C   UNL     1      43.210 -18.644   3.368  1.00  0.00     0.086 A 
HETATM    8  C   UNL     1      43.960 -18.749   4.570  1.00  0.00     0.088 A 
HETATM    9  N   UNL     1      43.854 -17.865   5.574  1.00  0.00    -0.225 NA
HETATM   10  C   UNL     1      43.399 -19.600   2.377  1.00  0.00     0.034 A 
HETATM   11  C   UNL     1      44.288 -20.663   2.543  1.00  0.00     0.002 A 
HETATM   12  C   UNL     1      45.010 -20.771   3.723  1.00  0.00     0.002 A 
HETATM   13  C   UNL     1      44.842 -19.811   4.721  1.00  0.00     0.034 A 
ENDROOT
BRANCH   1  14
HETATM   14  C   UNL     1      40.573 -14.923   3.304  1.00  0.00     0.257 C 
HETATM   15  N   UNL     1      41.219 -14.916   2.073  1.00  0.00    -0.357 N 
HETATM   16  H   UNL     1      42.138 -15.344   2.109  1.00  0.00     0.162 HD
HETATM   17  O   UNL     1      39.438 -14.489   3.459  1.00  0.00    -0.267 OA
BRANCH  15  18
HETATM   18  C   UNL     1      40.505 -15.288   0.869  1.00  0.00     0.123 C 
BRANCH  18  19
HETATM   19  C   UNL     1      41.325 -15.665  -0.357  1.00  0.00     0.024 C 
BRANCH  19  20
HETATM   20  C   UNL     1      41.210 -14.652  -1.498  1.00  0.00     0.040 C 
BRANCH  20  21
HETATM   21  C   UNL     1      39.996 -14.839  -2.384  1.00  0.00    -0.058 A 
HETATM   22  C   UNL     1      38.838 -14.057  -2.258  1.00  0.00     0.007 A 
HETATM   23  C   UNL     1      37.729 -14.286  -3.073  1.00  0.00     0.001 A 
HETATM   24  C   UNL     1      37.771 -15.280  -4.048  1.00  0.00     0.000 A 
HETATM   25  C   UNL     1      38.926 -16.040  -4.212  1.00  0.00     0.001 A 
HETATM   26  C   UNL     1      40.032 -15.817  -3.389  1.00  0.00     0.007 A 
ENDBRANCH  20  21
ENDBRANCH  19  20
ENDBRANCH  18  19
ENDBRANCH  15  18
ENDBRANCH   1  14
BRANCH   2  27
HETATM   27  N   UNL     1      40.602 -14.543   6.479  1.00  0.00    -0.286 NA
HETATM   28  H   UNL     1      39.653 -14.367   6.135  1.00  0.00     0.125 HD
HETATM   29  H   UNL     1      40.522 -14.850   7.456  1.00  0.00     0.125 HD
ENDBRANCH   2  27
BRANCH   3  30
HETATM   30  N   UNL     1      43.494 -15.194   6.991  1.00  0.00    -0.176 NA
HETATM   31  C   UNL     1      44.080 -14.164   6.466  1.00  0.00     0.153 C 
BRANCH  31  32
HETATM   32  C   UNL     1      45.104 -13.418   7.157  1.00  0.00     0.011 A 
HETATM   33  C   UNL     1      44.910 -12.636   8.341  1.00  0.00     0.004 A 
HETATM   34  C   UNL     1      46.107 -11.973   8.603  1.00  0.00     0.043 A 
HETATM   35  C   UNL     1      43.815 -12.417   9.206  1.00  0.00     0.014 A 
HETATM   36  C   UNL     1      46.259 -11.084   9.674  1.00  0.00     0.030 A 
HETATM   37  N   UNL     1      47.005 -12.366   7.636  1.00  0.00    -0.364 N 
HETATM   38  C   UNL     1      45.158 -10.883  10.514  1.00  0.00     0.002 A 
HETATM   39  C   UNL     1      43.952 -11.544  10.289  1.00  0.00     0.001 A 
HETATM   40  H   UNL     1      47.956 -12.030   7.567  1.00  0.00     0.165 HD
HETATM   41  C   UNL     1      46.417 -13.250   6.770  1.00  0.00     0.102 A 
ENDBRANCH  31  32
ENDBRANCH   3  30
TORSDOF 8
ENDMDL
MODEL 3
REMARK VINA RESULT:     -10.5      1.754      2.571
REMARK  8 active torsions:
REMARK  status: ('A' for Active; 'I' for Inactive)
REMARK    1  A    between atoms: C_4  and  C_5 
REMARK    2  A    between atoms: C_5  and  C_6 
REMARK    3  A    between atoms: C_6  and  C_7 
REMARK    4  A    between atoms: C_7  and  N_8 
REMARK       I    between atoms: N_8  and  C_9 
REMARK    5  A    between atoms: C_9  and  C_10 
REMARK    6  A    between atoms: C_11  and  N_12 
REMARK    7  A    between atoms: N_13  and  N_14 
REMARK    8  A    between atoms: C_15  and  C_16 
ROOT
HETATM    1  C   UNL     1      41.493 -14.211   4.773  1.00  0.00     0.104 C 
HETATM    2  C   UNL     1      41.016 -15.426   5.250  1.00  0.00     0.123 C 
HETATM    3  N   UNL     1      41.315 -16.364   4.261  1.00  0.00    -0.202 N 
HETATM    4  C   UNL     1      41.268 -15.693   3.054  1.00  0.00     0.183 A 
HETATM    5  C   UNL     1      41.465 -14.346   3.351  1.00  0.00     0.124 A 
HETATM    6  N   UNL     1      41.642 -13.435   2.360  1.00  0.00    -0.242 NA
HETATM    7  C   UNL     1      41.535 -13.927   1.114  1.00  0.00     0.086 A 
HETATM    8  C   UNL     1      41.308 -15.303   0.845  1.00  0.00     0.088 A 
HETATM    9  N   UNL     1      41.203 -16.227   1.813  1.00  0.00    -0.225 NA
HETATM   10  C   UNL     1      41.644 -13.046   0.046  1.00  0.00     0.034 A 
HETATM   11  C   UNL     1      41.519 -13.477  -1.276  1.00  0.00     0.002 A 
HETATM   12  C   UNL     1      41.284 -14.820  -1.537  1.00  0.00     0.002 A 
HETATM   13  C   UNL     1      41.187 -15.719  -0.475  1.00  0.00     0.034 A 
ENDROOT
BRANCH   1  14
HETATM   14  C   UNL     1      41.999 -13.102   5.576  1.00  0.00     0.257 C 
HETATM   15  N   UNL     1      42.757 -13.515   6.667  1.00  0.00    -0.357 N 
HETATM   16  H   UNL     1      42.756 -14.523   6.786  1.00  0.00     0.162 HD
HETATM   17  O   UNL     1      41.908 -11.927   5.242  1.00  0.00    -0.267 OA
BRANCH  15  18
HETATM   18  C   UNL     1      44.070 -12.952   6.903  1.00  0.00     0.123 C 
BRANCH  18  19
HETATM   19  C   UNL     1      44.812 -13.379   8.162  1.00  0.00     0.024 C 
BRANCH  19  20
HETATM   20  C   UNL     1      45.465 -12.211   8.906  1.00  0.00     0.040 C 
BRANCH  20  21
HETATM   21  C   UNL     1      44.702 -11.739  10.126  1.00  0.00    -0.058 A 
HETATM   22  C   UNL     1      44.237 -12.617  11.116  1.00  0.00     0.007 A 
HETATM   23  C   UNL     1      43.508 -12.142  12.208  1.00  0.00     0.001 A 
HETATM   24  C   UNL     1      43.260 -10.778  12.342  1.00  0.00     0.000 A 
HETATM   25  C   UNL     1      43.748  -9.888  11.388  1.00  0.00     0.001 A 
HETATM   26  C   UNL     1      44.468 -10.365  10.290  1.00  0.00     0.007 A 
ENDBRANCH  20  21
ENDBRANCH  19  20
ENDBRANCH  18  19
ENDBRANCH  15  18
ENDBRANCH   1  14
BRANCH   2  27
HETATM   27  N   UNL     1      40.538 -15.798   6.481  1.00  0.00    -0.286 NA
HETATM   28  H   UNL     1      41.027 -16.578   6.933  1.00  0.00     0.125 HD
HETATM   29  H   UNL     1      40.467 -15.040   7.172  1.00  0.00     0.125 HD
ENDBRANCH   2  27
BRANCH   3  30
HETATM   30  N   UNL     1      41.724 -17.667   4.445  1.00  0.00    -0.176 NA
HETATM   31  C   UNL     1      43.006 -17.747   4.615  1.00  0.00     0.153 C 
BRANCH  31  32
HETATM   32  C   UNL     1      43.696 -19.010   4.725  1.00  0.00     0.011 A 
HETATM   33  C   UNL     1      43.877 -19.957   3.665  1.00  0.00     0.004 A 
HETATM   34  C   UNL     1      44.468 -21.091   4.217  1.00  0.00     0.043 A 
HETATM   35  C   UNL     1      43.573 -19.958   2.286  1.00  0.00     0.014 A 
HETATM   36  C   UNL     1      44.751 -22.237   3.463  1.00  0.00     0.030 A 
HETATM   37  N   UNL     1      44.673 -20.830   5.554  1.00  0.00    -0.364 N 
HETATM   38  C   UNL     1      44.437 -22.213   2.100  1.00  0.00     0.002 A 
HETATM   39  C   UNL     1      43.861 -21.088   1.515  1.00  0.00     0.001 A 
HETATM   40  H   UNL     1      45.074 -21.485   6.210  1.00  0.00     0.165 HD
HETATM   41  C   UNL     1      44.227 -19.572   5.866  1.00  0.00     0.102 A 
ENDBRANCH  31  32
ENDBRANCH   3  30
TORSDOF 8
ENDMDL
MODEL 4
REMARK VINA RESULT:     -10.4      2.375      6.136
REMARK  8 active torsions:
REMARK  status: ('A' for Active; 'I' for Inactive)
REMARK    1  A    between atoms: C_4  and  C_5 
REMARK    2  A    between atoms: C_5  and  C_6 
REMARK    3  A    between atoms: C_6  and  C_7 
REMARK    4  A    between atoms: C_7  and  N_8 
REMARK       I    between atoms: N_8  and  C_9 
REMARK    5  A    between atoms: C_9  and  C_10 
REMARK    6  A    between atoms: C_11  and  N_12 
REMARK    7  A    between atoms: N_13  and  N_14 
REMARK    8  A    between atoms: C_15  and  C_16 
ROOT
HETATM    1  C   UNL     1      43.637 -16.225   5.281  1.00  0.00     0.104 C 
HETATM    2  C   UNL     1      43.212 -15.302   4.331  1.00  0.00     0.123 C 
HETATM    3  N   UNL     1      42.493 -16.036   3.387  1.00  0.00    -0.202 N 
HETATM    4  C   UNL     1      43.061 -17.296   3.351  1.00  0.00     0.183 A 
HETATM    5  C   UNL     1      43.711 -17.463   4.573  1.00  0.00     0.124 A 
HETATM    6  N   UNL     1      44.231 -18.667   4.924  1.00  0.00    -0.242 NA
HETATM    7  C   UNL     1      44.129 -19.622   3.983  1.00  0.00     0.086 A 
HETATM    8  C   UNL     1      43.482 -19.412   2.736  1.00  0.00     0.088 A 
HETATM    9  N   UNL     1      42.900 -18.248   2.405  1.00  0.00    -0.225 NA
HETATM   10  C   UNL     1      44.691 -20.866   4.244  1.00  0.00     0.034 A 
HETATM   11  C   UNL     1      44.649 -21.900   3.307  1.00  0.00     0.002 A 
HETATM   12  C   UNL     1      44.027 -21.689   2.084  1.00  0.00     0.002 A 
HETATM   13  C   UNL     1      43.446 -20.450   1.815  1.00  0.00     0.034 A 
ENDROOT
BRANCH   1  14
HETATM   14  C   UNL     1      43.850 -15.970   6.703  1.00  0.00     0.257 C 
HETATM   15  N   UNL     1      44.720 -14.913   6.947  1.00  0.00    -0.357 N 
HETATM   16  H   UNL     1      45.144 -14.551   6.100  1.00  0.00     0.162 HD
HETATM   17  O   UNL     1      43.209 -16.518   7.591  1.00  0.00    -0.267 OA
BRANCH  15  18
HETATM   18  C   UNL     1      44.344 -13.848   7.854  1.00  0.00     0.123 C 
BRANCH  18  19
HETATM   19  C   UNL     1      45.234 -12.616   7.912  1.00  0.00     0.024 C 
BRANCH  19  20
HETATM   20  C   UNL     1      45.874 -12.394   9.285  1.00  0.00     0.040 C 
BRANCH  20  21
HETATM   21  C   UNL     1      44.936 -11.827  10.330  1.00  0.00    -0.058 A 
HETATM   22  C   UNL     1      44.319 -12.623  11.307  1.00  0.00     0.007 A 
HETATM   23  C   UNL     1      43.435 -12.063  12.231  1.00  0.00     0.001 A 
HETATM   24  C   UNL     1      43.176 -10.695  12.211  1.00  0.00     0.000 A 
HETATM   25  C   UNL     1      43.810  -9.884  11.272  1.00  0.00     0.001 A 
HETATM   26  C   UNL     1      44.687 -10.446  10.341  1.00  0.00     0.007 A 
ENDBRANCH  20  21
ENDBRANCH  19  20
ENDBRANCH  18  19
ENDBRANCH  15  18
ENDBRANCH   1  14
BRANCH   2  27
HETATM   27  N   UNL     1      43.238 -13.930   4.318  1.00  0.00    -0.286 NA
HETATM   28  H   UNL     1      42.466 -13.475   3.819  1.00  0.00     0.125 HD
HETATM   29  H   UNL     1      43.311 -13.484   5.241  1.00  0.00     0.125 HD
ENDBRANCH   2  27
BRANCH   3  30
HETATM   30  N   UNL     1      41.352 -15.646   2.722  1.00  0.00    -0.176 NA
HETATM   31  C   UNL     1      41.620 -15.183   1.541  1.00  0.00     0.153 C 
BRANCH  31  32
HETATM   32  C   UNL     1      40.609 -14.613   0.684  1.00  0.00     0.011 A 
HETATM   33  C   UNL     1      40.478 -14.849  -0.723  1.00  0.00     0.004 A 
HETATM   34  C   UNL     1      39.470 -14.010  -1.194  1.00  0.00     0.043 A 
HETATM   35  C   UNL     1      41.142 -15.689  -1.644  1.00  0.00     0.014 A 
HETATM   36  C   UNL     1      39.106 -13.953  -2.545  1.00  0.00     0.030 A 
HETATM   37  N   UNL     1      38.981 -13.318  -0.108  1.00  0.00    -0.364 N 
HETATM   38  C   UNL     1      39.781 -14.794  -3.437  1.00  0.00     0.002 A 
HETATM   39  C   UNL     1      40.781 -15.656  -2.995  1.00  0.00     0.001 A 
HETATM   40  H   UNL     1      38.250 -12.622  -0.155  1.00  0.00     0.165 HD
HETATM   41  C   UNL     1      39.648 -13.686   1.031  1.00  0.00     0.102 A 
ENDBRANCH  31  32
ENDBRANCH   3  30
TORSDOF 8
ENDMDL
MODEL 5
REMARK VINA RESULT:     -10.3      4.994      7.120
REMARK  8 active torsions:
REMARK  status: ('A' for Active; 'I' for Inactive)
REMARK    1  A    between atoms: C_4  and  C_5 
REMARK    2  A    between atoms: C_5  and  C_6 
REMARK    3  A    between atoms: C_6  and  C_7 
REMARK    4  A    between atoms: C_7  and  N_8 
REMARK       I    between atoms: N_8  and  C_9 
REMARK    5  A    between atoms: C_9  and  C_10 
REMARK    6  A    between atoms: C_11  and  N_12 
REMARK    7  A    between atoms: N_13  and  N_14 
REMARK    8  A    between atoms: C_15  and  C_16 
ROOT
HETATM    1  C   UNL     1      41.057 -13.646   3.012  1.00  0.00     0.104 C 
HETATM    2  C   UNL     1      40.670 -14.820   3.648  1.00  0.00     0.123 C 
HETATM    3  N   UNL     1      41.112 -15.859   2.827  1.00  0.00    -0.202 N 
HETATM    4  C   UNL     1      41.070 -15.381   1.531  1.00  0.00     0.183 A 
HETATM    5  C   UNL     1      41.123 -13.992   1.627  1.00  0.00     0.124 A 
HETATM    6  N   UNL     1      41.270 -13.224   0.518  1.00  0.00    -0.242 NA
HETATM    7  C   UNL     1      41.281 -13.903  -0.642  1.00  0.00     0.086 A 
HETATM    8  C   UNL     1      41.199 -15.320  -0.708  1.00  0.00     0.088 A 
HETATM    9  N   UNL     1      41.126 -16.096   0.384  1.00  0.00    -0.225 NA
HETATM   10  C   UNL     1      41.368 -13.183  -1.827  1.00  0.00     0.034 A 
HETATM   11  C   UNL     1      41.358 -13.814  -3.072  1.00  0.00     0.002 A 
HETATM   12  C   UNL     1      41.266 -15.198  -3.135  1.00  0.00     0.002 A 
HETATM   13  C   UNL     1      41.193 -15.935  -1.953  1.00  0.00     0.034 A 
ENDROOT
BRANCH   1  14
HETATM   14  C   UNL     1      41.411 -12.386   3.658  1.00  0.00     0.257 C 
HETATM   15  N   UNL     1      41.348 -11.292   2.800  1.00  0.00    -0.357 N 
HETATM   16  H   UNL     1      41.161 -11.558   1.839  1.00  0.00     0.162 HD
HETATM   17  O   UNL     1      41.588 -12.270   4.864  1.00  0.00    -0.267 OA
BRANCH  15  18
HETATM   18  C   UNL     1      40.610 -10.105   3.178  1.00  0.00     0.123 C 
BRANCH  18  19
HETATM   19  C   UNL     1      39.305  -9.817   2.451  1.00  0.00     0.024 C 
BRANCH  19  20
HETATM   20  C   UNL     1      38.282 -10.950   2.568  1.00  0.00     0.040 C 
BRANCH  20  21
HETATM   21  C   UNL     1      38.089 -11.754   1.299  1.00  0.00    -0.058 A 
HETATM   22  C   UNL     1      37.769 -13.120   1.309  1.00  0.00     0.007 A 
HETATM   23  C   UNL     1      37.633 -13.830   0.114  1.00  0.00     0.001 A 
HETATM   24  C   UNL     1      37.786 -13.180  -1.107  1.00  0.00     0.000 A 
HETATM   25  C   UNL     1      38.066 -11.816  -1.135  1.00  0.00     0.001 A 
HETATM   26  C   UNL     1      38.212 -11.107   0.060  1.00  0.00     0.007 A 
ENDBRANCH  20  21
ENDBRANCH  19  20
ENDBRANCH  18  19
ENDBRANCH  15  18
ENDBRANCH   1  14
BRANCH   2  27
HETATM   27  N   UNL     1      40.159 -15.053   4.901  1.00  0.00    -0.286 NA
HETATM   28  H   UNL     1      40.693 -15.705   5.485  1.00  0.00     0.125 HD
HETATM   29  H   UNL     1      39.981 -14.212   5.464  1.00  0.00     0.125 HD
ENDBRANCH   2  27
BRANCH   3  30
HETATM   30  N   UNL     1      41.629 -17.071   3.224  1.00  0.00    -0.176 NA
HETATM   31  C   UNL     1      42.821 -16.945   3.718  1.00  0.00     0.153 C 
BRANCH  31  32
HETATM   32  C   UNL     1      43.621 -18.080   4.112  1.00  0.00     0.011 A 
HETATM   33  C   UNL     1      43.753 -19.303   3.377  1.00  0.00     0.004 A 
HETATM   34  C   UNL     1      44.498 -20.181   4.162  1.00  0.00     0.043 A 
HETATM   35  C   UNL     1      43.290 -19.749   2.120  1.00  0.00     0.014 A 
HETATM   36  C   UNL     1      44.784 -21.493   3.762  1.00  0.00     0.030 A 
HETATM   37  N   UNL     1      44.837 -19.506   5.313  1.00  0.00    -0.364 N 
HETATM   38  C   UNL     1      44.310 -21.910   2.513  1.00  0.00     0.002 A 
HETATM   39  C   UNL     1      43.578 -21.050   1.698  1.00  0.00     0.001 A 
HETATM   40  H   UNL     1      45.366 -19.904   6.076  1.00  0.00     0.165 HD
HETATM   41  C   UNL     1      44.329 -18.233   5.286  1.00  0.00     0.102 A 
ENDBRANCH  31  32
ENDBRANCH   3  30
TORSDOF 8
ENDMDL
MODEL 6
REMARK VINA RESULT:     -10.1      4.829      7.254
REMARK  8 active torsions:
REMARK  status: ('A' for Active; 'I' for Inactive)
REMARK    1  A    between atoms: C_4  and  C_5 
REMARK    2  A    between atoms: C_5  and  C_6 
REMARK    3  A    between atoms: C_6  and  C_7 
REMARK    4  A    between atoms: C_7  and  N_8 
REMARK       I    between atoms: N_8  and  C_9 
REMARK    5  A    between atoms: C_9  and  C_10 
REMARK    6  A    between atoms: C_11  and  N_12 
REMARK    7  A    between atoms: N_13  and  N_14 
REMARK    8  A    between atoms: C_15  and  C_16 
ROOT
HETATM    1  C   UNL     1      40.724 -13.565   3.489  1.00  0.00     0.104 C 
HETATM    2  C   UNL     1      40.374 -14.741   4.142  1.00  0.00     0.123 C 
HETATM    3  N   UNL     1      40.884 -15.776   3.357  1.00  0.00    -0.202 N 
HETATM    4  C   UNL     1      40.856 -15.329   2.049  1.00  0.00     0.183 A 
HETATM    5  C   UNL     1      40.843 -13.936   2.115  1.00  0.00     0.124 A 
HETATM    6  N   UNL     1      40.984 -13.187   0.992  1.00  0.00    -0.242 NA
HETATM    7  C   UNL     1      41.057 -13.890  -0.152  1.00  0.00     0.086 A 
HETATM    8  C   UNL     1      41.041 -15.310  -0.187  1.00  0.00     0.088 A 
HETATM    9  N   UNL     1      40.975 -16.066   0.921  1.00  0.00    -0.225 NA
HETATM   10  C   UNL     1      41.142 -13.193  -1.350  1.00  0.00     0.034 A 
HETATM   11  C   UNL     1      41.195 -13.851  -2.580  1.00  0.00     0.002 A 
HETATM   12  C   UNL     1      41.167 -15.239  -2.613  1.00  0.00     0.002 A 
HETATM   13  C   UNL     1      41.096 -15.953  -1.417  1.00  0.00     0.034 A 
ENDROOT
BRANCH   1  14
HETATM   14  C   UNL     1      41.003 -12.275   4.114  1.00  0.00     0.257 C 
HETATM   15  N   UNL     1      41.344 -11.284   3.201  1.00  0.00    -0.357 N 
HETATM   16  H   UNL     1      41.440 -11.638   2.255  1.00  0.00     0.162 HD
HETATM   17  O   UNL     1      40.802 -12.041   5.300  1.00  0.00    -0.267 OA
BRANCH  15  18
HETATM   18  C   UNL     1      40.670 -10.002   3.224  1.00  0.00     0.123 C 
BRANCH  18  19
HETATM   19  C   UNL     1      40.921  -9.045   2.068  1.00  0.00     0.024 C 
BRANCH  19  20
HETATM   20  C   UNL     1      40.251  -9.481   0.762  1.00  0.00     0.040 C 
BRANCH  20  21
HETATM   21  C   UNL     1      41.206  -9.683  -0.396  1.00  0.00    -0.058 A 
HETATM   22  C   UNL     1      40.813  -9.546  -1.735  1.00  0.00     0.007 A 
HETATM   23  C   UNL     1      41.720  -9.775  -2.772  1.00  0.00     0.001 A 
HETATM   24  C   UNL     1      43.039 -10.113  -2.486  1.00  0.00     0.000 A 
HETATM   25  C   UNL     1      43.456 -10.216  -1.161  1.00  0.00     0.001 A 
HETATM   26  C   UNL     1      42.547  -9.998  -0.123  1.00  0.00     0.007 A 
ENDBRANCH  20  21
ENDBRANCH  19  20
ENDBRANCH  18  19
ENDBRANCH  15  18
ENDBRANCH   1  14
BRANCH   2  27
HETATM   27  N   UNL     1      39.841 -14.969   5.386  1.00  0.00    -0.286 NA
HETATM   28  H   UNL     1      38.919 -15.417   5.400  1.00  0.00     0.125 HD
HETATM   29  H   UNL     1      40.445 -15.492   6.032  1.00  0.00     0.125 HD
ENDBRANCH   2  27
BRANCH   3  30
HETATM   30  N   UNL     1      41.446 -16.954   3.794  1.00  0.00    -0.176 NA
HETATM   31  C   UNL     1      42.732 -16.855   3.921  1.00  0.00     0.153 C 
BRANCH  31  32
HETATM   32  C   UNL     1      43.567 -17.980   4.266  1.00  0.00     0.011 A 
HETATM   33  C   UNL     1      43.722 -19.173   3.489  1.00  0.00     0.004 A 
HETATM   34  C   UNL     1      44.499 -20.057   4.234  1.00  0.00     0.043 A 
HETATM   35  C   UNL     1      43.254 -19.589   2.222  1.00  0.00     0.014 A 
HETATM   36  C   UNL     1      44.814 -21.347   3.787  1.00  0.00     0.030 A 
HETATM   37  N   UNL     1      44.835 -19.413   5.404  1.00  0.00    -0.364 N 
HETATM   38  C   UNL     1      44.336 -21.734   2.530  1.00  0.00     0.002 A 
HETATM   39  C   UNL     1      43.571 -20.867   1.753  1.00  0.00     0.001 A 
HETATM   40  H   UNL     1      45.384 -19.822   6.146  1.00  0.00     0.165 HD
HETATM   41  C   UNL     1      44.293 -18.154   5.425  1.00  0.00     0.102 A 
ENDBRANCH  31  32
ENDBRANCH   3  30
TORSDOF 8
ENDMDL
MODEL 7
REMARK VINA RESULT:     -10.0      2.319      3.030
REMARK  8 active torsions:
REMARK  status: ('A' for Active; 'I' for Inactive)
REMARK    1  A    between atoms: C_4  and  C_5 
REMARK    2  A    between atoms: C_5  and  C_6 
REMARK    3  A    between atoms: C_6  and  C_7 
REMARK    4  A    between atoms: C_7  and  N_8 
REMARK       I    between atoms: N_8  and  C_9 
REMARK    5  A    between atoms: C_9  and  C_10 
REMARK    6  A    between atoms: C_11  and  N_12 
REMARK    7  A    between atoms: N_13  and  N_14 
REMARK    8  A    between atoms: C_15  and  C_16 
ROOT
HETATM    1  C   UNL     1      39.851 -13.541   5.017  1.00  0.00     0.104 C 
HETATM    2  C   UNL     1      40.324 -14.788   5.408  1.00  0.00     0.123 C 
HETATM    3  N   UNL     1      41.111 -15.243   4.349  1.00  0.00    -0.202 N 
HETATM    4  C   UNL     1      40.562 -14.715   3.195  1.00  0.00     0.183 A 
HETATM    5  C   UNL     1      39.837 -13.592   3.589  1.00  0.00     0.124 A 
HETATM    6  N   UNL     1      39.310 -12.747   2.667  1.00  0.00    -0.242 NA
HETATM    7  C   UNL     1      39.484 -13.126   1.389  1.00  0.00     0.086 A 
HETATM    8  C   UNL     1      40.207 -14.292   1.021  1.00  0.00     0.088 A 
HETATM    9  N   UNL     1      40.795 -15.098   1.919  1.00  0.00    -0.225 NA
HETATM   10  C   UNL     1      38.922 -12.344   0.387  1.00  0.00     0.034 A 
HETATM   11  C   UNL     1      39.036 -12.686  -0.961  1.00  0.00     0.002 A 
HETATM   12  C   UNL     1      39.733 -13.833  -1.318  1.00  0.00     0.002 A 
HETATM   13  C   UNL     1      40.315 -14.620  -0.324  1.00  0.00     0.034 A 
ENDROOT
BRANCH   1  14
HETATM   14  C   UNL     1      39.544 -12.415   5.894  1.00  0.00     0.257 C 
HETATM   15  N   UNL     1      40.404 -12.317   6.983  1.00  0.00    -0.357 N 
HETATM   16  H   UNL     1      41.046 -13.100   7.046  1.00  0.00     0.162 HD
HETATM   17  O   UNL     1      38.721 -11.550   5.621  1.00  0.00    -0.267 OA
BRANCH  15  18
HETATM   18  C   UNL     1      41.059 -11.062   7.289  1.00  0.00     0.123 C 
BRANCH  18  19
HETATM   19  C   UNL     1      41.069 -10.599   8.738  1.00  0.00     0.024 C 
BRANCH  19  20
HETATM   20  C   UNL     1      42.471 -10.547   9.349  1.00  0.00     0.040 C 
BRANCH  20  21
HETATM   21  C   UNL     1      42.494 -10.490  10.863  1.00  0.00    -0.058 A 
HETATM   22  C   UNL     1      43.543  -9.901  11.584  1.00  0.00     0.007 A 
HETATM   23  C   UNL     1      43.539  -9.901  12.980  1.00  0.00     0.001 A 
HETATM   24  C   UNL     1      42.472 -10.462  13.676  1.00  0.00     0.000 A 
HETATM   25  C   UNL     1      41.403 -11.016  12.975  1.00  0.00     0.001 A 
HETATM   26  C   UNL     1      41.413 -11.026  11.579  1.00  0.00     0.007 A 
ENDBRANCH  20  21
ENDBRANCH  19  20
ENDBRANCH  18  19
ENDBRANCH  15  18
ENDBRANCH   1  14
BRANCH   2  27
HETATM   27  N   UNL     1      40.283 -15.441   6.614  1.00  0.00    -0.286 NA
HETATM   28  H   UNL     1      39.762 -14.968   7.360  1.00  0.00     0.125 HD
HETATM   29  H   UNL     1      39.948 -16.412   6.576  1.00  0.00     0.125 HD
ENDBRANCH   2  27
BRANCH   3  30
HETATM   30  N   UNL     1      42.288 -15.954   4.431  1.00  0.00    -0.176 NA
HETATM   31  C   UNL     1      42.077 -17.232   4.419  1.00  0.00     0.153 C 
BRANCH  31  32
HETATM   32  C   UNL     1      43.137 -18.195   4.598  1.00  0.00     0.011 A 
HETATM   33  C   UNL     1      43.490 -19.229   3.672  1.00  0.00     0.004 A 
HETATM   34  C   UNL     1      44.465 -20.017   4.279  1.00  0.00     0.043 A 
HETATM   35  C   UNL     1      43.053 -19.578   2.375  1.00  0.00     0.014 A 
HETATM   36  C   UNL     1      45.010 -21.151   3.664  1.00  0.00     0.030 A 
HETATM   37  N   UNL     1      44.722 -19.462   5.513  1.00  0.00    -0.364 N 
HETATM   38  C   UNL     1      44.558 -21.476   2.380  1.00  0.00     0.002 A 
HETATM   39  C   UNL     1      43.597 -20.698   1.739  1.00  0.00     0.001 A 
HETATM   40  H   UNL     1      45.379 -19.836   6.184  1.00  0.00     0.165 HD
HETATM   41  C   UNL     1      43.940 -18.353   5.708  1.00  0.00     0.102 A 
ENDBRANCH  31  32
ENDBRANCH   3  30
TORSDOF 8
ENDMDL
MODEL 8
REMARK VINA RESULT:      -9.9      3.990      8.326
REMARK  8 active torsions:
REMARK  status: ('A' for Active; 'I' for Inactive)
REMARK    1  A    between atoms: C_4  and  C_5 
REMARK    2  A    between atoms: C_5  and  C_6 
REMARK    3  A    between atoms: C_6  and  C_7 
REMARK    4  A    between atoms: C_7  and  N_8 
REMARK       I    between atoms: N_8  and  C_9 
REMARK    5  A    between atoms: C_9  and  C_10 
REMARK    6  A    between atoms: C_11  and  N_12 
REMARK    7  A    between atoms: N_13  and  N_14 
REMARK    8  A    between atoms: C_15  and  C_16 
ROOT
HETATM    1  C   UNL     1      42.739 -15.543   4.788  1.00  0.00     0.104 C 
HETATM    2  C   UNL     1      43.213 -14.969   3.614  1.00  0.00     0.123 C 
HETATM    3  N   UNL     1      43.336 -16.019   2.703  1.00  0.00    -0.202 N 
HETATM    4  C   UNL     1      43.642 -17.147   3.442  1.00  0.00     0.183 A 
HETATM    5  C   UNL     1      43.193 -16.896   4.738  1.00  0.00     0.124 A 
HETATM    6  N   UNL     1      43.192 -17.878   5.675  1.00  0.00    -0.242 NA
HETATM    7  C   UNL     1      43.717 -19.047   5.269  1.00  0.00     0.086 A 
HETATM    8  C   UNL     1      44.190 -19.263   3.947  1.00  0.00     0.088 A 
HETATM    9  N   UNL     1      44.131 -18.324   2.989  1.00  0.00    -0.225 NA
HETATM   10  C   UNL     1      43.807 -20.084   6.189  1.00  0.00     0.034 A 
HETATM   11  C   UNL     1      44.363 -21.318   5.851  1.00  0.00     0.002 A 
HETATM   12  C   UNL     1      44.837 -21.524   4.562  1.00  0.00     0.002 A 
HETATM   13  C   UNL     1      44.740 -20.497   3.623  1.00  0.00     0.034 A 
ENDROOT
BRANCH   1  14
HETATM   14  C   UNL     1      41.882 -14.902   5.782  1.00  0.00     0.257 C 
HETATM   15  N   UNL     1      42.172 -13.556   5.972  1.00  0.00    -0.357 N 
HETATM   16  H   UNL     1      42.996 -13.257   5.461  1.00  0.00     0.162 HD
HETATM   17  O   UNL     1      40.903 -15.444   6.281  1.00  0.00    -0.267 OA
BRANCH  15  18
HETATM   18  C   UNL     1      41.119 -12.563   5.913  1.00  0.00     0.123 C 
BRANCH  18  19
HETATM   19  C   UNL     1      39.927 -12.843   5.009  1.00  0.00     0.024 C 
BRANCH  19  20
HETATM   20  C   UNL     1      39.998 -12.109   3.667  1.00  0.00     0.040 C 
BRANCH  20  21
HETATM   21  C   UNL     1      39.106 -12.687   2.588  1.00  0.00    -0.058 A 
HETATM   22  C   UNL     1      38.310 -11.888   1.754  1.00  0.00     0.007 A 
HETATM   23  C   UNL     1      37.477 -12.465   0.795  1.00  0.00     0.001 A 
HETATM   24  C   UNL     1      37.449 -13.848   0.633  1.00  0.00     0.000 A 
HETATM   25  C   UNL     1      38.262 -14.654   1.427  1.00  0.00     0.001 A 
HETATM   26  C   UNL     1      39.088 -14.076   2.394  1.00  0.00     0.007 A 
ENDBRANCH  20  21
ENDBRANCH  19  20
ENDBRANCH  18  19
ENDBRANCH  15  18
ENDBRANCH   1  14
BRANCH   2  27
HETATM   27  N   UNL     1      43.359 -13.659   3.234  1.00  0.00    -0.286 NA
HETATM   28  H   UNL     1      43.714 -13.023   3.956  1.00  0.00     0.125 HD
HETATM   29  H   UNL     1      43.923 -13.508   2.388  1.00  0.00     0.125 HD
ENDBRANCH   2  27
BRANCH   3  30
HETATM   30  N   UNL     1      43.066 -15.988   1.354  1.00  0.00    -0.176 NA
HETATM   31  C   UNL     1      41.982 -15.326   1.097  1.00  0.00     0.153 C 
BRANCH  31  32
HETATM   32  C   UNL     1      41.425 -15.234  -0.231  1.00  0.00     0.011 A 
HETATM   33  C   UNL     1      40.986 -14.029  -0.870  1.00  0.00     0.004 A 
HETATM   34  C   UNL     1      40.394 -14.391  -2.078  1.00  0.00     0.043 A 
HETATM   35  C   UNL     1      41.024 -12.662  -0.520  1.00  0.00     0.014 A 
HETATM   36  C   UNL     1      39.815 -13.455  -2.945  1.00  0.00     0.030 A 
HETATM   37  N   UNL     1      40.500 -15.760  -2.186  1.00  0.00    -0.364 N 
HETATM   38  C   UNL     1      39.864 -12.107  -2.573  1.00  0.00     0.002 A 
HETATM   39  C   UNL     1      40.465 -11.712  -1.380  1.00  0.00     0.001 A 
HETATM   40  H   UNL     1      40.140 -16.303  -2.958  1.00  0.00     0.165 HD
HETATM   41  C   UNL     1      41.136 -16.276  -1.087  1.00  0.00     0.102 A 
ENDBRANCH  31  32
ENDBRANCH   3  30
TORSDOF 8
ENDMDL
MODEL 9
REMARK VINA RESULT:      -9.8      1.454      2.107
REMARK  8 active torsions:
REMARK  status: ('A' for Active; 'I' for Inactive)
REMARK    1  A    between atoms: C_4  and  C_5 
REMARK    2  A    between atoms: C_5  and  C_6 
REMARK    3  A    between atoms: C_6  and  C_7 
REMARK    4  A    between atoms: C_7  and  N_8 
REMARK       I    between atoms: N_8  and  C_9 
REMARK    5  A    between atoms: C_9  and  C_10 
REMARK    6  A    between atoms: C_11  and  N_12 
REMARK    7  A    between atoms: N_13  and  N_14 
REMARK    8  A    between atoms: C_15  and  C_16 
ROOT
HETATM    1  C   UNL     1      43.701 -14.090   6.482  1.00  0.00     0.104 C 
HETATM    2  C   UNL     1      43.730 -15.467   6.288  1.00  0.00     0.123 C 
HETATM    3  N   UNL     1      43.182 -15.683   5.023  1.00  0.00    -0.202 N 
HETATM    4  C   UNL     1      42.255 -14.678   4.819  1.00  0.00     0.183 A 
HETATM    5  C   UNL     1      42.620 -13.634   5.667  1.00  0.00     0.124 A 
HETATM    6  N   UNL     1      42.006 -12.427   5.587  1.00  0.00    -0.242 NA
HETATM    7  C   UNL     1      41.000 -12.362   4.698  1.00  0.00     0.086 A 
HETATM    8  C   UNL     1      40.635 -13.454   3.864  1.00  0.00     0.088 A 
HETATM    9  N   UNL     1      41.280 -14.631   3.882  1.00  0.00    -0.225 NA
HETATM   10  C   UNL     1      40.282 -11.177   4.599  1.00  0.00     0.034 A 
HETATM   11  C   UNL     1      39.208 -11.041   3.718  1.00  0.00     0.002 A 
HETATM   12  C   UNL     1      38.845 -12.112   2.913  1.00  0.00     0.002 A 
HETATM   13  C   UNL     1      39.565 -13.304   2.991  1.00  0.00     0.034 A 
ENDROOT
BRANCH   1  14
HETATM   14  C   UNL     1      44.648 -13.305   7.268  1.00  0.00     0.257 C 
HETATM   15  N   UNL     1      44.034 -12.483   8.206  1.00  0.00    -0.357 N 
HETATM   16  H   UNL     1      43.022 -12.486   8.128  1.00  0.00     0.162 HD
HETATM   17  O   UNL     1      45.861 -13.468   7.225  1.00  0.00    -0.267 OA
BRANCH  15  18
HETATM   18  C   UNL     1      44.462 -12.501   9.589  1.00  0.00     0.123 C 
BRANCH  18  19
HETATM   19  C   UNL     1      44.187 -11.266  10.436  1.00  0.00     0.024 C 
BRANCH  19  20
HETATM   20  C   UNL     1      42.746 -11.190  10.948  1.00  0.00     0.040 C 
BRANCH  20  21
HETATM   21  C   UNL     1      42.604 -10.603  12.337  1.00  0.00    -0.058 A 
HETATM   22  C   UNL     1      41.571 -10.969  13.212  1.00  0.00     0.007 A 
HETATM   23  C   UNL     1      41.460 -10.376  14.472  1.00  0.00     0.001 A 
HETATM   24  C   UNL     1      42.396  -9.433  14.887  1.00  0.00     0.000 A 
HETATM   25  C   UNL     1      43.450  -9.087  14.044  1.00  0.00     0.001 A 
HETATM   26  C   UNL     1      43.555  -9.671  12.780  1.00  0.00     0.007 A 
ENDBRANCH  20  21
ENDBRANCH  19  20
ENDBRANCH  18  19
ENDBRANCH  15  18
ENDBRANCH   1  14
BRANCH   2  27
HETATM   27  N   UNL     1      44.328 -16.476   7.001  1.00  0.00    -0.286 NA
HETATM   28  H   UNL     1      45.006 -17.045   6.484  1.00  0.00     0.125 HD
HETATM   29  H   UNL     1      44.778 -16.186   7.878  1.00  0.00     0.125 HD
ENDBRANCH   2  27
BRANCH   3  30
HETATM   30  N   UNL     1      43.579 -16.616   4.091  1.00  0.00    -0.176 NA
HETATM   31  C   UNL     1      42.874 -17.700   4.169  1.00  0.00     0.153 C 
BRANCH  31  32
HETATM   32  C   UNL     1      43.159 -18.869   3.372  1.00  0.00     0.011 A 
HETATM   33  C   UNL     1      43.786 -20.068   3.843  1.00  0.00     0.004 A 
HETATM   34  C   UNL     1      43.999 -20.889   2.737  1.00  0.00     0.043 A 
HETATM   35  C   UNL     1      44.209 -20.522   5.112  1.00  0.00     0.014 A 
HETATM   36  C   UNL     1      44.636 -22.132   2.833  1.00  0.00     0.030 A 
HETATM   37  N   UNL     1      43.489 -20.230   1.641  1.00  0.00    -0.364 N 
HETATM   38  C   UNL     1      45.047 -22.558   4.101  1.00  0.00     0.002 A 
HETATM   39  C   UNL     1      44.833 -21.768   5.228  1.00  0.00     0.001 A 
HETATM   40  H   UNL     1      43.519 -20.583   0.695  1.00  0.00     0.165 HD
HETATM   41  C   UNL     1      42.964 -19.020   2.015  1.00  0.00     0.102 A 
ENDBRANCH  31  32
ENDBRANCH   3  30
TORSDOF 8
ENDMDL
MODEL 10
REMARK VINA RESULT:      -9.8      3.554      9.147
REMARK  8 active torsions:
REMARK  status: ('A' for Active; 'I' for Inactive)
REMARK    1  A    between atoms: C_4  and  C_5 
REMARK    2  A    between atoms: C_5  and  C_6 
REMARK    3  A    between atoms: C_6  and  C_7 
REMARK    4  A    between atoms: C_7  and  N_8 
REMARK       I    between atoms: N_8  and  C_9 
REMARK    5  A    between atoms: C_9  and  C_10 
REMARK    6  A    between atoms: C_11  and  N_12 
REMARK    7  A    between atoms: N_13  and  N_14 
REMARK    8  A    between atoms: C_15  and  C_16 
ROOT
HETATM    1  C   UNL     1      41.042 -15.626   3.692  1.00  0.00     0.104 C 
HETATM    2  C   UNL     1      40.189 -15.570   2.595  1.00  0.00     0.123 C 
HETATM    3  N   UNL     1      40.275 -14.262   2.116  1.00  0.00    -0.202 N 
HETATM    4  C   UNL     1      40.525 -13.457   3.212  1.00  0.00     0.183 A 
HETATM    5  C   UNL     1      41.090 -14.285   4.181  1.00  0.00     0.124 A 
HETATM    6  N   UNL     1      41.608 -13.764   5.322  1.00  0.00    -0.242 NA
HETATM    7  C   UNL     1      41.459 -12.435   5.456  1.00  0.00     0.086 A 
HETATM    8  C   UNL     1      40.856 -11.622   4.460  1.00  0.00     0.088 A 
HETATM    9  N   UNL     1      40.404 -12.112   3.294  1.00  0.00    -0.225 NA
HETATM   10  C   UNL     1      41.911 -11.835   6.625  1.00  0.00     0.034 A 
HETATM   11  C   UNL     1      41.769 -10.465   6.848  1.00  0.00     0.002 A 
HETATM   12  C   UNL     1      41.167  -9.674   5.879  1.00  0.00     0.002 A 
HETATM   13  C   UNL     1      40.723 -10.259   4.694  1.00  0.00     0.034 A 
ENDROOT
BRANCH   1  14
HETATM   14  C   UNL     1      41.789 -16.793   4.150  1.00  0.00     0.257 C 
HETATM   15  N   UNL     1      43.079 -16.489   4.572  1.00  0.00    -0.357 N 
HETATM   16  H   UNL     1      43.329 -15.520   4.403  1.00  0.00     0.162 HD
HETATM   17  O   UNL     1      41.287 -17.900   4.303  1.00  0.00    -0.267 OA
BRANCH  15  18
HETATM   18  C   UNL     1      43.555 -16.945   5.862  1.00  0.00     0.123 C 
BRANCH  18  19
HETATM   19  C   UNL     1      43.764 -18.440   6.056  1.00  0.00     0.024 C 
BRANCH  19  20
HETATM   20  C   UNL     1      44.971 -18.988   5.289  1.00  0.00     0.040 C 
BRANCH  20  21
HETATM   21  C   UNL     1      44.619 -19.939   4.163  1.00  0.00    -0.058 A 
HETATM   22  C   UNL     1      44.098 -19.501   2.937  1.00  0.00     0.007 A 
HETATM   23  C   UNL     1      43.757 -20.415   1.938  1.00  0.00     0.001 A 
HETATM   24  C   UNL     1      43.960 -21.778   2.139  1.00  0.00     0.000 A 
HETATM   25  C   UNL     1      44.512 -22.226   3.337  1.00  0.00     0.001 A 
HETATM   26  C   UNL     1      44.844 -21.312   4.339  1.00  0.00     0.007 A 
ENDBRANCH  20  21
ENDBRANCH  19  20
ENDBRANCH  18  19
ENDBRANCH  15  18
ENDBRANCH   1  14
BRANCH   2  27
HETATM   27  N   UNL     1      39.526 -16.553   1.905  1.00  0.00    -0.286 NA
HETATM   28  H   UNL     1      38.860 -16.227   1.196  1.00  0.00     0.125 HD
HETATM   29  H   UNL     1      40.126 -17.258   1.461  1.00  0.00     0.125 HD
ENDBRANCH   2  27
BRANCH   3  30
HETATM   30  N   UNL     1      40.262 -13.854   0.801  1.00  0.00    -0.176 NA
HETATM   31  C   UNL     1      41.333 -14.227   0.173  1.00  0.00     0.153 C 
BRANCH  31  32
HETATM   32  C   UNL     1      41.609 -13.835  -1.188  1.00  0.00     0.011 A 
HETATM   33  C   UNL     1      42.087 -12.552  -1.606  1.00  0.00     0.004 A 
HETATM   34  C   UNL     1      42.091 -12.543  -3.000  1.00  0.00     0.043 A 
HETATM   35  C   UNL     1      42.501 -11.387  -0.923  1.00  0.00     0.014 A 
HETATM   36  C   UNL     1      42.466 -11.418  -3.746  1.00  0.00     0.030 A 
HETATM   37  N   UNL     1      41.666 -13.786  -3.413  1.00  0.00    -0.364 N 
HETATM   38  C   UNL     1      42.869 -10.277  -3.045  1.00  0.00     0.002 A 
HETATM   39  C   UNL     1      42.893 -10.260  -1.652  1.00  0.00     0.001 A 
HETATM   40  H   UNL     1      41.555 -14.062  -4.378  1.00  0.00     0.165 HD
HETATM   41  C   UNL     1      41.390 -14.579  -2.329  1.00  0.00     0.102 A 
ENDBRANCH  31  32
ENDBRANCH   3  30
TORSDOF 8
ENDMDL
