MODEL 1
REMARK VINA RESULT:      -7.6      0.000      0.000
REMARK  4 active torsions:
REMARK  status: ('A' for Active; 'I' for Inactive)
REMARK    1  A    between atoms: C_2  and  N_3 
REMARK    2  A    between atoms: C_11  and  C_12 
REMARK    3  A    between atoms: C_12  and  N_13 
REMARK    4  A    between atoms: C_16  and  N_17 
ROOT
HETATM    1  N   UNL     1      41.441 -11.837   7.327  1.00  0.00    -0.065 N 
HETATM    2  H   UNL     1      41.601 -12.652   7.930  1.00  0.00     0.280 HD
HETATM    3  C   UNL     1      42.250 -10.662   7.852  1.00  0.00     0.268 C 
HETATM    4  C   UNL     1      41.974 -10.233   9.336  1.00  0.00     0.214 C 
HETATM    5  C   UNL     1      40.559  -9.648   9.466  1.00  0.00     0.035 C 
HETATM    6  C   UNL     1      39.391 -10.621   9.605  1.00  0.00     0.004 C 
HETATM    7  C   UNL     1      39.333 -11.814   8.655  1.00  0.00     0.028 C 
HETATM    8  C   UNL     1      39.937 -11.611   7.273  1.00  0.00     0.235 C 
ENDROOT
BRANCH   1   9
HETATM    9  C   UNL     1      41.984 -12.347   5.964  1.00  0.00     0.276 C 
BRANCH   9  10
HETATM   10  C   UNL     1      42.369 -13.795   5.859  1.00  0.00     0.009 A 
HETATM   11  C   UNL     1      43.552 -14.308   6.408  1.00  0.00     0.136 A 
HETATM   12  N   UNL     1      43.956 -15.592   6.387  1.00  0.00    -0.216 NA
HETATM   13 CL   UNL     1      44.711 -13.294   7.185  1.00  0.00    -0.062 Cl
HETATM   14  C   UNL     1      43.076 -16.426   5.802  1.00  0.00     0.159 A 
HETATM   15  N   UNL     1      43.167 -17.792   5.679  1.00  0.00    -0.248 N 
HETATM   16  C   UNL     1      41.867 -16.070   5.221  1.00  0.00     0.031 A 
HETATM   17  N   UNL     1      42.122 -18.328   5.006  1.00  0.00    -0.182 NA
HETATM   18  C   UNL     1      41.329 -17.287   4.754  1.00  0.00     0.154 A 
HETATM   19  C   UNL     1      41.496 -14.715   5.248  1.00  0.00     0.029 A 
BRANCH  15  20
HETATM   20  C   UNL     1      44.216 -18.650   6.219  1.00  0.00     0.104 C 
HETATM   21  C   UNL     1      44.702 -19.660   5.180  1.00  0.00     0.034 C 
HETATM   22  C   UNL     1      43.761 -19.347   7.501  1.00  0.00     0.034 C 
ENDBRANCH  15  20
ENDBRANCH   9  10
ENDBRANCH   1   9
BRANCH   4  23
HETATM   23  N   UNL     1      42.229 -11.334  10.386  1.00  0.00    -0.065 N 
HETATM   24  H   UNL     1      41.553 -12.101  10.294  1.00  0.00     0.280 HD
HETATM   25  C   UNL     1      42.077 -10.838  11.838  1.00  0.00     0.235 C 
HETATM   26  C   UNL     1      43.441 -10.283  12.209  1.00  0.00     0.029 C 
HETATM   27  C   UNL     1      44.434 -10.912  11.242  1.00  0.00     0.029 C 
HETATM   28  C   UNL     1      43.638 -11.917  10.439  1.00  0.00     0.235 C 
ENDBRANCH   4  23
TORSDOF 4
ENDMDL
MODEL 2
REMARK VINA RESULT:      -7.4      1.591      2.096
REMARK  4 active torsions:
REMARK  status: ('A' for Active; 'I' for Inactive)
REMARK    1  A    between atoms: C_2  and  N_3 
REMARK    2  A    between atoms: C_11  and  C_12 
REMARK    3  A    between atoms: C_12  and  N_13 
REMARK    4  A    between atoms: C_16  and  N_17 
ROOT
HETATM    1  N   UNL     1      41.107 -11.735   7.135  1.00  0.00    -0.065 N 
HETATM    2  H   UNL     1      41.348 -12.551   7.709  1.00  0.00     0.280 HD
HETATM    3  C   UNL     1      42.011 -10.574   7.516  1.00  0.00     0.268 C 
HETATM    4  C   UNL     1      41.985 -10.136   9.022  1.00  0.00     0.214 C 
HETATM    5  C   UNL     1      40.621  -9.524   9.374  1.00  0.00     0.035 C 
HETATM    6  C   UNL     1      39.474 -10.474   9.706  1.00  0.00     0.004 C 
HETATM    7  C   UNL     1      39.242 -11.669   8.785  1.00  0.00     0.028 C 
HETATM    8  C   UNL     1      39.618 -11.482   7.323  1.00  0.00     0.235 C 
ENDROOT
BRANCH   1   9
HETATM    9  C   UNL     1      41.414 -12.259   5.705  1.00  0.00     0.276 C 
BRANCH   9  10
HETATM   10  C   UNL     1      41.938 -13.660   5.569  1.00  0.00     0.009 A 
HETATM   11  C   UNL     1      41.467 -14.557   4.601  1.00  0.00     0.136 A 
HETATM   12  N   UNL     1      41.902 -15.814   4.391  1.00  0.00    -0.216 NA
HETATM   13 CL   UNL     1      40.179 -14.148   3.529  1.00  0.00    -0.062 Cl
HETATM   14  C   UNL     1      42.919 -16.175   5.196  1.00  0.00     0.159 A 
HETATM   15  N   UNL     1      43.617 -17.359   5.187  1.00  0.00    -0.248 N 
HETATM   16  C   UNL     1      43.494 -15.401   6.193  1.00  0.00     0.031 A 
HETATM   17  N   UNL     1      44.565 -17.416   6.153  1.00  0.00    -0.182 NA
HETATM   18  C   UNL     1      44.501 -16.221   6.740  1.00  0.00     0.154 A 
HETATM   19  C   UNL     1      42.994 -14.102   6.390  1.00  0.00     0.029 A 
BRANCH  15  20
HETATM   20  C   UNL     1      43.448 -18.467   4.253  1.00  0.00     0.104 C 
HETATM   21  C   UNL     1      44.188 -19.717   4.727  1.00  0.00     0.034 C 
HETATM   22  C   UNL     1      43.874 -18.072   2.838  1.00  0.00     0.034 C 
ENDBRANCH  15  20
ENDBRANCH   9  10
ENDBRANCH   1   9
BRANCH   4  23
HETATM   23  N   UNL     1      42.387 -11.238  10.023  1.00  0.00    -0.065 N 
HETATM   24  H   UNL     1      41.719 -12.017  10.009  1.00  0.00     0.280 HD
HETATM   25  C   UNL     1      42.405 -10.753  11.487  1.00  0.00     0.235 C 
HETATM   26  C   UNL     1      43.794 -10.175  11.694  1.00  0.00     0.029 C 
HETATM   27  C   UNL     1      44.672 -10.779  10.608  1.00  0.00     0.029 C 
HETATM   28  C   UNL     1      43.802 -11.794   9.899  1.00  0.00     0.235 C 
ENDBRANCH   4  23
TORSDOF 4
ENDMDL
MODEL 3
REMARK VINA RESULT:      -7.4      4.303      7.256
REMARK  4 active torsions:
REMARK  status: ('A' for Active; 'I' for Inactive)
REMARK    1  A    between atoms: C_2  and  N_3 
REMARK    2  A    between atoms: C_11  and  C_12 
REMARK    3  A    between atoms: C_12  and  N_13 
REMARK    4  A    between atoms: C_16  and  N_17 
ROOT
HETATM    1  N   UNL     1      42.486 -17.571   4.813  1.00  0.00    -0.065 N 
HETATM    2  H   UNL     1      43.085 -16.970   4.236  1.00  0.00     0.280 HD
HETATM    3  C   UNL     1      42.066 -16.807   6.058  1.00  0.00     0.268 C 
HETATM    4  C   UNL     1      43.224 -16.259   6.963  1.00  0.00     0.214 C 
HETATM    5  C   UNL     1      43.981 -17.423   7.621  1.00  0.00     0.035 C 
HETATM    6  C   UNL     1      45.054 -18.133   6.801  1.00  0.00     0.004 C 
HETATM    7  C   UNL     1      44.719 -18.527   5.365  1.00  0.00     0.028 C 
HETATM    8  C   UNL     1      43.261 -18.854   5.075  1.00  0.00     0.235 C 
ENDROOT
BRANCH   1   9
HETATM    9  C   UNL     1      41.285 -17.822   3.859  1.00  0.00     0.276 C 
BRANCH   9  10
HETATM   10  C   UNL     1      41.200 -16.996   2.607  1.00  0.00     0.009 A 
HETATM   11  C   UNL     1      42.011 -17.226   1.489  1.00  0.00     0.136 A 
HETATM   12  N   UNL     1      41.978 -16.556   0.321  1.00  0.00    -0.216 NA
HETATM   13 CL   UNL     1      43.242 -18.435   1.488  1.00  0.00    -0.062 Cl
HETATM   14  C   UNL     1      41.022 -15.609   0.268  1.00  0.00     0.159 A 
HETATM   15  N   UNL     1      40.695 -14.804  -0.797  1.00  0.00    -0.248 N 
HETATM   16  C   UNL     1      40.143 -15.271   1.287  1.00  0.00     0.031 A 
HETATM   17  N   UNL     1      39.701 -13.932  -0.508  1.00  0.00    -0.182 NA
HETATM   18  C   UNL     1      39.355 -14.236   0.743  1.00  0.00     0.154 A 
HETATM   19  C   UNL     1      40.227 -15.983   2.495  1.00  0.00     0.029 A 
BRANCH  15  20
HETATM   20  C   UNL     1      41.275 -14.846  -2.135  1.00  0.00     0.104 C 
HETATM   21  C   UNL     1      41.335 -13.454  -2.762  1.00  0.00     0.034 C 
HETATM   22  C   UNL     1      40.528 -15.830  -3.035  1.00  0.00     0.034 C 
ENDBRANCH  15  20
ENDBRANCH   9  10
ENDBRANCH   1   9
BRANCH   4  23
HETATM   23  N   UNL     1      44.188 -15.282   6.260  1.00  0.00    -0.065 N 
HETATM   24  H   UNL     1      44.980 -15.779   5.837  1.00  0.00     0.280 HD
HETATM   25  C   UNL     1      44.826 -14.258   7.220  1.00  0.00     0.235 C 
HETATM   26  C   UNL     1      43.837 -13.107   7.282  1.00  0.00     0.029 C 
HETATM   27  C   UNL     1      42.972 -13.222   6.035  1.00  0.00     0.029 C 
HETATM   28  C   UNL     1      43.578 -14.345   5.222  1.00  0.00     0.235 C 
ENDBRANCH   4  23
TORSDOF 4
ENDMDL
MODEL 4
REMARK VINA RESULT:      -7.4      2.113      7.872
REMARK  4 active torsions:
REMARK  status: ('A' for Active; 'I' for Inactive)
REMARK    1  A    between atoms: C_2  and  N_3 
REMARK    2  A    between atoms: C_11  and  C_12 
REMARK    3  A    between atoms: C_12  and  N_13 
REMARK    4  A    between atoms: C_16  and  N_17 
ROOT
HETATM    1  N   UNL     1      42.030 -16.353   2.990  1.00  0.00    -0.065 N 
HETATM    2  H   UNL     1      42.814 -15.884   3.459  1.00  0.00     0.280 HD
HETATM    3  C   UNL     1      41.642 -17.588   3.787  1.00  0.00     0.268 C 
HETATM    4  C   UNL     1      42.773 -18.648   4.026  1.00  0.00     0.214 C 
HETATM    5  C   UNL     1      43.166 -19.314   2.697  1.00  0.00     0.035 C 
HETATM    6  C   UNL     1      44.146 -18.577   1.789  1.00  0.00     0.004 C 
HETATM    7  C   UNL     1      43.909 -17.091   1.531  1.00  0.00     0.028 C 
HETATM    8  C   UNL     1      42.463 -16.621   1.556  1.00  0.00     0.235 C 
ENDROOT
BRANCH   1   9
HETATM    9  C   UNL     1      40.930 -15.257   3.053  1.00  0.00     0.276 C 
BRANCH   9  10
HETATM   10  C   UNL     1      41.003 -14.253   4.167  1.00  0.00     0.009 A 
HETATM   11  C   UNL     1      42.138 -13.469   4.410  1.00  0.00     0.136 A 
HETATM   12  N   UNL     1      42.276 -12.528   5.363  1.00  0.00    -0.216 NA
HETATM   13 CL   UNL     1      43.587 -13.653   3.492  1.00  0.00    -0.062 Cl
HETATM   14  C   UNL     1      41.164 -12.338   6.099  1.00  0.00     0.159 A 
HETATM   15  N   UNL     1      40.966 -11.415   7.098  1.00  0.00    -0.248 N 
HETATM   16  C   UNL     1      39.967 -13.028   5.975  1.00  0.00     0.031 A 
HETATM   17  N   UNL     1      39.738 -11.508   7.661  1.00  0.00    -0.182 NA
HETATM   18  C   UNL     1      39.132 -12.467   6.962  1.00  0.00     0.154 A 
HETATM   19  C   UNL     1      39.876 -14.017   4.980  1.00  0.00     0.029 A 
BRANCH  15  20
HETATM   20  C   UNL     1      41.904 -10.387   7.538  1.00  0.00     0.104 C 
HETATM   21  C   UNL     1      42.166 -10.476   9.041  1.00  0.00     0.034 C 
HETATM   22  C   UNL     1      41.428  -8.991   7.138  1.00  0.00     0.034 C 
ENDBRANCH  15  20
ENDBRANCH   9  10
ENDBRANCH   1   9
BRANCH   4  23
HETATM   23  N   UNL     1      44.009 -18.117   4.780  1.00  0.00    -0.065 N 
HETATM   24  H   UNL     1      44.707 -17.735   4.131  1.00  0.00     0.280 HD
HETATM   25  C   UNL     1      44.756 -19.210   5.571  1.00  0.00     0.235 C 
HETATM   26  C   UNL     1      44.060 -19.264   6.920  1.00  0.00     0.029 C 
HETATM   27  C   UNL     1      43.336 -17.935   7.079  1.00  0.00     0.029 C 
HETATM   28  C   UNL     1      43.753 -17.100   5.887  1.00  0.00     0.235 C 
ENDBRANCH   4  23
TORSDOF 4
ENDMDL
MODEL 5
REMARK VINA RESULT:      -7.3      3.065      8.462
REMARK  4 active torsions:
REMARK  status: ('A' for Active; 'I' for Inactive)
REMARK    1  A    between atoms: C_2  and  N_3 
REMARK    2  A    between atoms: C_11  and  C_12 
REMARK    3  A    between atoms: C_12  and  N_13 
REMARK    4  A    between atoms: C_16  and  N_17 
ROOT
HETATM    1  N   UNL     1      42.836 -16.969   4.225  1.00  0.00    -0.065 N 
HETATM    2  H   UNL     1      41.863 -17.254   4.060  1.00  0.00     0.280 HD
HETATM    3  C   UNL     1      43.218 -15.898   3.217  1.00  0.00     0.268 C 
HETATM    4  C   UNL     1      43.072 -16.282   1.703  1.00  0.00     0.214 C 
HETATM    5  C   UNL     1      44.097 -17.364   1.328  1.00  0.00     0.035 C 
HETATM    6  C   UNL     1      43.758 -18.815   1.655  1.00  0.00     0.004 C 
HETATM    7  C   UNL     1      43.212 -19.130   3.046  1.00  0.00     0.028 C 
HETATM    8  C   UNL     1      43.685 -18.231   4.178  1.00  0.00     0.235 C 
ENDROOT
BRANCH   1   9
HETATM    9  C   UNL     1      42.752 -16.398   5.668  1.00  0.00     0.276 C 
BRANCH   9  10
HETATM   10  C   UNL     1      42.167 -15.027   5.848  1.00  0.00     0.009 A 
HETATM   11  C   UNL     1      42.951 -13.892   6.088  1.00  0.00     0.136 A 
HETATM   12  N   UNL     1      42.512 -12.627   6.230  1.00  0.00    -0.216 NA
HETATM   13 CL   UNL     1      44.663 -13.990   6.281  1.00  0.00    -0.062 Cl
HETATM   14  C   UNL     1      41.181 -12.497   6.073  1.00  0.00     0.159 A 
HETATM   15  N   UNL     1      40.442 -11.338   6.096  1.00  0.00    -0.248 N 
HETATM   16  C   UNL     1      40.278 -13.520   5.827  1.00  0.00     0.031 A 
HETATM   17  N   UNL     1      39.116 -11.559   5.937  1.00  0.00    -0.182 NA
HETATM   18  C   UNL     1      39.027 -12.876   5.751  1.00  0.00     0.154 A 
HETATM   19  C   UNL     1      40.779 -14.828   5.708  1.00  0.00     0.029 A 
BRANCH  15  20
HETATM   20  C   UNL     1      40.953  -9.977   6.230  1.00  0.00     0.104 C 
HETATM   21  C   UNL     1      39.958  -9.076   6.959  1.00  0.00     0.034 C 
HETATM   22  C   UNL     1      41.342  -9.393   4.872  1.00  0.00     0.034 C 
ENDBRANCH  15  20
ENDBRANCH   9  10
ENDBRANCH   1   9
BRANCH   4  23
HETATM   23  N   UNL     1      41.646 -16.679   1.271  1.00  0.00    -0.065 N 
HETATM   24  H   UNL     1      41.505 -17.694   1.334  1.00  0.00     0.280 HD
HETATM   25  C   UNL     1      41.332 -16.322  -0.197  1.00  0.00     0.235 C 
HETATM   26  C   UNL     1      40.832 -14.889  -0.155  1.00  0.00     0.029 C 
HETATM   27  C   UNL     1      40.377 -14.639   1.276  1.00  0.00     0.029 C 
HETATM   28  C   UNL     1      40.493 -15.973   1.979  1.00  0.00     0.235 C 
ENDBRANCH   4  23
TORSDOF 4
ENDMDL
MODEL 6
REMARK VINA RESULT:      -7.3      3.543      5.862
REMARK  4 active torsions:
REMARK  status: ('A' for Active; 'I' for Inactive)
REMARK    1  A    between atoms: C_2  and  N_3 
REMARK    2  A    between atoms: C_11  and  C_12 
REMARK    3  A    between atoms: C_12  and  N_13 
REMARK    4  A    between atoms: C_16  and  N_17 
ROOT
HETATM    1  N   UNL     1      41.731 -13.832   5.366  1.00  0.00    -0.065 N 
HETATM    2  H   UNL     1      42.182 -13.780   4.445  1.00  0.00     0.280 HD
HETATM    3  C   UNL     1      40.303 -14.324   5.194  1.00  0.00     0.268 C 
HETATM    4  C   UNL     1      39.383 -13.477   4.248  1.00  0.00     0.214 C 
HETATM    5  C   UNL     1      39.106 -12.099   4.869  1.00  0.00     0.035 C 
HETATM    6  C   UNL     1      40.162 -11.011   4.699  1.00  0.00     0.004 C 
HETATM    7  C   UNL     1      41.620 -11.376   4.967  1.00  0.00     0.028 C 
HETATM    8  C   UNL     1      41.867 -12.459   6.007  1.00  0.00     0.235 C 
ENDROOT
BRANCH   1   9
HETATM    9  C   UNL     1      42.620 -14.883   6.088  1.00  0.00     0.276 C 
BRANCH   9  10
HETATM   10  C   UNL     1      43.035 -16.101   5.314  1.00  0.00     0.009 A 
HETATM   11  C   UNL     1      43.089 -17.380   5.883  1.00  0.00     0.136 A 
HETATM   12  N   UNL     1      43.418 -18.525   5.257  1.00  0.00    -0.216 NA
HETATM   13 CL   UNL     1      42.758 -17.649   7.555  1.00  0.00    -0.062 Cl
HETATM   14  C   UNL     1      43.672 -18.369   3.943  1.00  0.00     0.159 A 
HETATM   15  N   UNL     1      43.972 -19.345   3.023  1.00  0.00    -0.248 N 
HETATM   16  C   UNL     1      43.653 -17.174   3.239  1.00  0.00     0.031 A 
HETATM   17  N   UNL     1      44.203 -18.846   1.786  1.00  0.00    -0.182 NA
HETATM   18  C   UNL     1      43.985 -17.537   1.918  1.00  0.00     0.154 A 
HETATM   19  C   UNL     1      43.324 -16.000   3.939  1.00  0.00     0.029 A 
BRANCH  15  20
HETATM   20  C   UNL     1      44.017 -20.784   3.259  1.00  0.00     0.104 C 
HETATM   21  C   UNL     1      45.144 -21.159   4.220  1.00  0.00     0.034 C 
HETATM   22  C   UNL     1      44.125 -21.560   1.946  1.00  0.00     0.034 C 
ENDBRANCH  15  20
ENDBRANCH   9  10
ENDBRANCH   1   9
BRANCH   4  23
HETATM   23  N   UNL     1      39.889 -13.351   2.796  1.00  0.00    -0.065 N 
HETATM   24  H   UNL     1      40.537 -12.562   2.693  1.00  0.00     0.280 HD
HETATM   25  C   UNL     1      38.762 -13.078   1.779  1.00  0.00     0.235 C 
HETATM   26  C   UNL     1      38.241 -14.450   1.392  1.00  0.00     0.029 C 
HETATM   27  C   UNL     1      39.345 -15.439   1.738  1.00  0.00     0.029 C 
HETATM   28  C   UNL     1      40.521 -14.595   2.180  1.00  0.00     0.235 C 
ENDBRANCH   4  23
TORSDOF 4
ENDMDL
MODEL 7
REMARK VINA RESULT:      -7.3      5.488      8.622
REMARK  4 active torsions:
REMARK  status: ('A' for Active; 'I' for Inactive)
REMARK    1  A    between atoms: C_2  and  N_3 
REMARK    2  A    between atoms: C_11  and  C_12 
REMARK    3  A    between atoms: C_12  and  N_13 
REMARK    4  A    between atoms: C_16  and  N_17 
ROOT
HETATM    1  N   UNL     1      41.444 -14.711   3.909  1.00  0.00    -0.065 N 
HETATM    2  H   UNL     1      40.829 -15.423   3.499  1.00  0.00     0.280 HD
HETATM    3  C   UNL     1      42.892 -15.116   3.684  1.00  0.00     0.268 C 
HETATM    4  C   UNL     1      43.320 -16.516   4.249  1.00  0.00     0.214 C 
HETATM    5  C   UNL     1      43.294 -16.499   5.786  1.00  0.00     0.035 C 
HETATM    6  C   UNL     1      41.953 -16.708   6.482  1.00  0.00     0.004 C 
HETATM    7  C   UNL     1      40.748 -15.920   5.972  1.00  0.00     0.028 C 
HETATM    8  C   UNL     1      41.037 -14.555   5.367  1.00  0.00     0.235 C 
ENDROOT
BRANCH   1   9
HETATM    9  C   UNL     1      41.062 -13.454   3.079  1.00  0.00     0.276 C 
BRANCH   9  10
HETATM   10  C   UNL     1      41.017 -13.588   1.584  1.00  0.00     0.009 A 
HETATM   11  C   UNL     1      40.015 -14.302   0.915  1.00  0.00     0.136 A 
HETATM   12  N   UNL     1      39.882 -14.446  -0.417  1.00  0.00    -0.216 NA
HETATM   13 CL   UNL     1      38.785 -15.162   1.767  1.00  0.00    -0.062 Cl
HETATM   14  C   UNL     1      40.813 -13.779  -1.127  1.00  0.00     0.159 A 
HETATM   15  N   UNL     1      40.912 -13.676  -2.494  1.00  0.00    -0.248 N 
HETATM   16  C   UNL     1      41.859 -13.028  -0.611  1.00  0.00     0.031 A 
HETATM   17  N   UNL     1      41.988 -12.955  -2.888  1.00  0.00    -0.182 NA
HETATM   18  C   UNL     1      42.541 -12.547  -1.746  1.00  0.00     0.154 A 
HETATM   19  C   UNL     1      41.970 -12.924   0.786  1.00  0.00     0.029 A 
BRANCH  15  20
HETATM   20  C   UNL     1      39.984 -14.217  -3.481  1.00  0.00     0.104 C 
HETATM   21  C   UNL     1      38.577 -13.650  -3.296  1.00  0.00     0.034 C 
HETATM   22  C   UNL     1      39.974 -15.746  -3.458  1.00  0.00     0.034 C 
ENDBRANCH  15  20
ENDBRANCH   9  10
ENDBRANCH   1   9
BRANCH   4  23
HETATM   23  N   UNL     1      42.527 -17.712   3.683  1.00  0.00    -0.065 N 
HETATM   24  H   UNL     1      41.680 -17.893   4.234  1.00  0.00     0.280 HD
HETATM   25  C   UNL     1      43.317 -19.036   3.717  1.00  0.00     0.235 C 
HETATM   26  C   UNL     1      44.109 -19.055   2.422  1.00  0.00     0.029 C 
HETATM   27  C   UNL     1      43.409 -18.087   1.480  1.00  0.00     0.029 C 
HETATM   28  C   UNL     1      42.155 -17.650   2.206  1.00  0.00     0.235 C 
ENDBRANCH   4  23
TORSDOF 4
ENDMDL
MODEL 8
REMARK VINA RESULT:      -7.2      2.190      2.615
REMARK  4 active torsions:
REMARK  status: ('A' for Active; 'I' for Inactive)
REMARK    1  A    between atoms: C_2  and  N_3 
REMARK    2  A    between atoms: C_11  and  C_12 
REMARK    3  A    between atoms: C_12  and  N_13 
REMARK    4  A    between atoms: C_16  and  N_17 
ROOT
HETATM    1  N   UNL     1      40.657 -11.500   7.489  1.00  0.00    -0.065 N 
HETATM    2  H   UNL     1      40.934 -12.430   7.825  1.00  0.00     0.280 HD
HETATM    3  C   UNL     1      41.879 -10.597   7.456  1.00  0.00     0.268 C 
HETATM    4  C   UNL     1      42.650 -10.418   8.811  1.00  0.00     0.214 C 
HETATM    5  C   UNL     1      41.785  -9.640   9.815  1.00  0.00     0.035 C 
HETATM    6  C   UNL     1      40.729 -10.413  10.601  1.00  0.00     0.004 C 
HETATM    7  C   UNL     1      39.827 -11.379   9.835  1.00  0.00     0.028 C 
HETATM    8  C   UNL     1      39.526 -11.021   8.388  1.00  0.00     0.235 C 
ENDROOT
BRANCH   1   9
HETATM    9  C   UNL     1      40.143 -11.826   6.060  1.00  0.00     0.276 C 
BRANCH   9  10
HETATM   10  C   UNL     1      40.511 -13.156   5.468  1.00  0.00     0.009 A 
HETATM   11  C   UNL     1      41.103 -13.288   4.205  1.00  0.00     0.136 A 
HETATM   12  N   UNL     1      41.492 -14.434   3.615  1.00  0.00    -0.216 NA
HETATM   13 CL   UNL     1      41.385 -11.926   3.184  1.00  0.00    -0.062 Cl
HETATM   14  C   UNL     1      41.305 -15.525   4.381  1.00  0.00     0.159 A 
HETATM   15  N   UNL     1      41.652 -16.824   4.092  1.00  0.00    -0.248 N 
HETATM   16  C   UNL     1      40.739 -15.555   5.647  1.00  0.00     0.031 A 
HETATM   17  N   UNL     1      41.294 -17.691   5.067  1.00  0.00    -0.182 NA
HETATM   18  C   UNL     1      40.765 -16.916   6.014  1.00  0.00     0.154 A 
HETATM   19  C   UNL     1      40.329 -14.337   6.215  1.00  0.00     0.029 A 
BRANCH  15  20
HETATM   20  C   UNL     1      42.366 -17.296   2.909  1.00  0.00     0.104 C 
HETATM   21  C   UNL     1      41.415 -17.519   1.735  1.00  0.00     0.034 C 
HETATM   22  C   UNL     1      43.178 -18.554   3.215  1.00  0.00     0.034 C 
ENDBRANCH  15  20
ENDBRANCH   9  10
ENDBRANCH   1   9
BRANCH   4  23
HETATM   23  N   UNL     1      43.193 -11.725   9.425  1.00  0.00    -0.065 N 
HETATM   24  H   UNL     1      42.448 -12.422   9.538  1.00  0.00     0.280 HD
HETATM   25  C   UNL     1      43.782 -11.535  10.838  1.00  0.00     0.235 C 
HETATM   26  C   UNL     1      45.230 -11.138  10.610  1.00  0.00     0.029 C 
HETATM   27  C   UNL     1      45.582 -11.599   9.204  1.00  0.00     0.029 C 
HETATM   28  C   UNL     1      44.377 -12.374   8.717  1.00  0.00     0.235 C 
ENDBRANCH   4  23
TORSDOF 4
ENDMDL
MODEL 9
REMARK VINA RESULT:      -7.2      5.307      8.656
REMARK  4 active torsions:
REMARK  status: ('A' for Active; 'I' for Inactive)
REMARK    1  A    between atoms: C_2  and  N_3 
REMARK    2  A    between atoms: C_11  and  C_12 
REMARK    3  A    between atoms: C_12  and  N_13 
REMARK    4  A    between atoms: C_16  and  N_17 
ROOT
HETATM    1  N   UNL     1      42.022 -16.630   2.933  1.00  0.00    -0.065 N 
HETATM    2  H   UNL     1      42.765 -16.002   3.261  1.00  0.00     0.280 HD
HETATM    3  C   UNL     1      41.685 -17.620   4.036  1.00  0.00     0.268 C 
HETATM    4  C   UNL     1      42.869 -18.501   4.568  1.00  0.00     0.214 C 
HETATM    5  C   UNL     1      43.335 -19.480   3.479  1.00  0.00     0.035 C 
HETATM    6  C   UNL     1      44.294 -18.961   2.412  1.00  0.00     0.004 C 
HETATM    7  C   UNL     1      43.978 -17.621   1.752  1.00  0.00     0.028 C 
HETATM    8  C   UNL     1      42.507 -17.254   1.633  1.00  0.00     0.235 C 
ENDROOT
BRANCH   1   9
HETATM    9  C   UNL     1      40.859 -15.631   2.681  1.00  0.00     0.276 C 
BRANCH   9  10
HETATM   10  C   UNL     1      41.102 -14.499   1.724  1.00  0.00     0.009 A 
HETATM   11  C   UNL     1      42.155 -13.588   1.877  1.00  0.00     0.136 A 
HETATM   12  N   UNL     1      42.462 -12.568   1.053  1.00  0.00    -0.216 NA
HETATM   13 CL   UNL     1      43.221 -13.645   3.233  1.00  0.00    -0.062 Cl
HETATM   14  C   UNL     1      41.665 -12.491  -0.031  1.00  0.00     0.159 A 
HETATM   15  N   UNL     1      41.758 -11.609  -1.080  1.00  0.00    -0.248 N 
HETATM   16  C   UNL     1      40.591 -13.319  -0.322  1.00  0.00     0.031 A 
HETATM   17  N   UNL     1      40.777 -11.781  -1.998  1.00  0.00    -0.182 NA
HETATM   18  C   UNL     1      40.091 -12.831  -1.546  1.00  0.00     0.154 A 
HETATM   19  C   UNL     1      40.295 -14.358   0.578  1.00  0.00     0.029 A 
BRANCH  15  20
HETATM   20  C   UNL     1      42.789 -10.596  -1.283  1.00  0.00     0.104 C 
HETATM   21  C   UNL     1      42.599  -9.408  -0.341  1.00  0.00     0.034 C 
HETATM   22  C   UNL     1      42.846 -10.145  -2.743  1.00  0.00     0.034 C 
ENDBRANCH  15  20
ENDBRANCH   9  10
ENDBRANCH   1   9
BRANCH   4  23
HETATM   23  N   UNL     1      44.052 -17.706   5.158  1.00  0.00    -0.065 N 
HETATM   24  H   UNL     1      44.664 -17.344   4.418  1.00  0.00     0.280 HD
HETATM   25  C   UNL     1      44.973 -18.560   6.055  1.00  0.00     0.235 C 
HETATM   26  C   UNL     1      44.346 -18.493   7.436  1.00  0.00     0.029 C 
HETATM   27  C   UNL     1      43.457 -17.259   7.442  1.00  0.00     0.029 C 
HETATM   28  C   UNL     1      43.707 -16.572   6.117  1.00  0.00     0.235 C 
ENDBRANCH   4  23
TORSDOF 4
ENDMDL
MODEL 10
REMARK VINA RESULT:      -7.2      5.933      9.185
REMARK  4 active torsions:
REMARK  status: ('A' for Active; 'I' for Inactive)
REMARK    1  A    between atoms: C_2  and  N_3 
REMARK    2  A    between atoms: C_11  and  C_12 
REMARK    3  A    between atoms: C_12  and  N_13 
REMARK    4  A    between atoms: C_16  and  N_17 
ROOT
HETATM    1  N   UNL     1      42.642 -15.729   2.447  1.00  0.00    -0.065 N 
HETATM    2  H   UNL     1      43.514 -15.433   2.901  1.00  0.00     0.280 HD
HETATM    3  C   UNL     1      41.814 -16.533   3.436  1.00  0.00     0.268 C 
HETATM    4  C   UNL     1      42.500 -17.803   4.049  1.00  0.00     0.214 C 
HETATM    5  C   UNL     1      42.710 -18.870   2.964  1.00  0.00     0.035 C 
HETATM    6  C   UNL     1      43.928 -18.738   2.055  1.00  0.00     0.004 C 
HETATM    7  C   UNL     1      44.228 -17.369   1.448  1.00  0.00     0.028 C 
HETATM    8  C   UNL     1      43.030 -16.472   1.177  1.00  0.00     0.235 C 
ENDROOT
BRANCH   1   9
HETATM    9  C   UNL     1      41.981 -14.360   2.121  1.00  0.00     0.276 C 
BRANCH   9  10
HETATM   10  C   UNL     1      41.203 -14.244   0.842  1.00  0.00     0.009 A 
HETATM   11  C   UNL     1      39.829 -14.501   0.763  1.00  0.00     0.136 A 
HETATM   12  N   UNL     1      39.052 -14.392  -0.332  1.00  0.00    -0.216 NA
HETATM   13 CL   UNL     1      38.925 -15.055   2.124  1.00  0.00    -0.062 Cl
HETATM   14  C   UNL     1      39.711 -13.947  -1.419  1.00  0.00     0.159 A 
HETATM   15  N   UNL     1      39.192 -13.673  -2.662  1.00  0.00    -0.248 N 
HETATM   16  C   UNL     1      41.063 -13.646  -1.496  1.00  0.00     0.031 A 
HETATM   17  N   UNL     1      40.135 -13.270  -3.546  1.00  0.00    -0.182 NA
HETATM   18  C   UNL     1      41.258 -13.233  -2.829  1.00  0.00     0.154 A 
HETATM   19  C   UNL     1      41.839 -13.796  -0.333  1.00  0.00     0.029 A 
BRANCH  15  20
HETATM   20  C   UNL     1      37.789 -13.742  -3.059  1.00  0.00     0.104 C 
HETATM   21  C   UNL     1      37.494 -15.013  -3.853  1.00  0.00     0.034 C 
HETATM   22  C   UNL     1      37.368 -12.492  -3.832  1.00  0.00     0.034 C 
ENDBRANCH  15  20
ENDBRANCH   9  10
ENDBRANCH   1   9
BRANCH   4  23
HETATM   23  N   UNL     1      43.803 -17.523   4.826  1.00  0.00    -0.065 N 
HETATM   24  H   UNL     1      44.555 -17.218   4.197  1.00  0.00     0.280 HD
HETATM   25  C   UNL     1      44.363 -18.767   5.545  1.00  0.00     0.235 C 
HETATM   26  C   UNL     1      43.663 -18.792   6.892  1.00  0.00     0.029 C 
HETATM   27  C   UNL     1      43.160 -17.376   7.137  1.00  0.00     0.029 C 
HETATM   28  C   UNL     1      43.709 -16.548   5.996  1.00  0.00     0.235 C 
ENDBRANCH   4  23
TORSDOF 4
ENDMDL
