MODEL 1
REMARK VINA RESULT:      -8.4      0.000      0.000
REMARK  6 active torsions:
REMARK  status: ('A' for Active; 'I' for Inactive)
REMARK    1  A    between atoms: C_3  and  N_4 
REMARK    2  A    between atoms: N_4  and  C_5 
REMARK    3  A    between atoms: C_5  and  C_6 
REMARK    4  A    between atoms: N_8  and  C_10 
REMARK    5  A    between atoms: C_10  and  C_11 
REMARK    6  A    between atoms: C_12  and  C_13 
ROOT
HETATM    1  C   UNL     1      44.527 -17.141   6.301  1.00  0.00     0.031 C 
HETATM    2  C   UNL     1      43.927 -15.729   6.259  1.00  0.00     0.241 C 
HETATM    3  N   UNL     1      42.570 -15.845   6.928  1.00  0.00    -0.067 N 
HETATM    4  H   UNL     1      42.572 -15.222   7.748  1.00  0.00     0.280 HD
HETATM    5  C   UNL     1      42.435 -17.254   7.464  1.00  0.00     0.235 C 
HETATM    6  C   UNL     1      43.866 -17.742   7.539  1.00  0.00     0.035 C 
ENDROOT
BRANCH   3   7
HETATM    7  C   UNL     1      41.410 -15.365   6.082  1.00  0.00     0.277 C 
BRANCH   7   8
HETATM    8  C   UNL     1      41.729 -14.182   5.245  1.00  0.00     0.016 A 
HETATM    9  C   UNL     1      41.883 -14.133   3.822  1.00  0.00     0.102 A 
HETATM   10  N   UNL     1      42.106 -12.877   3.419  1.00  0.00    -0.174 NA
HETATM   11  N   UNL     1      42.222 -12.157   4.537  1.00  0.00    -0.288 N 
HETATM   12  H   UNL     1      42.462 -11.171   4.452  1.00  0.00     0.188 HD
HETATM   13  C   UNL     1      41.976 -12.886   5.665  1.00  0.00     0.120 A 
BRANCH   9  14
HETATM   14  C   UNL     1      41.817 -15.205   2.839  1.00  0.00     0.072 A 
HETATM   15  C   UNL     1      42.970 -15.786   2.303  1.00  0.00     0.132 A 
HETATM   16  F   UNL     1      44.186 -15.320   2.636  1.00  0.00    -0.205 F 
HETATM   17  C   UNL     1      42.897 -16.835   1.386  1.00  0.00     0.043 A 
HETATM   18  C   UNL     1      41.653 -17.321   0.986  1.00  0.00     0.006 A 
HETATM   19  C   UNL     1      40.491 -16.748   1.500  1.00  0.00     0.043 A 
HETATM   20  C   UNL     1      40.580 -15.701   2.418  1.00  0.00     0.132 A 
HETATM   21  F   UNL     1      39.440 -15.148   2.857  1.00  0.00    -0.205 F 
ENDBRANCH   9  14
ENDBRANCH   7   8
ENDBRANCH   3   7
BRANCH   1  22
HETATM   22  C   UNL     1      44.248 -17.914   4.995  1.00  0.00     0.127 C 
BRANCH  22  23
HETATM   23  N   UNL     1      44.583 -19.330   5.136  1.00  0.00    -0.376 N 
HETATM   24  H   UNL     1      45.191 -19.578   5.912  1.00  0.00     0.161 HD
BRANCH  23  25
HETATM   25  C   UNL     1      44.461 -20.219   4.087  1.00  0.00     0.100 A 
HETATM   26  C   UNL     1      43.959 -19.893   2.818  1.00  0.00     0.048 A 
HETATM   27  C   UNL     1      43.846 -20.870   1.830  1.00  0.00     0.005 A 
HETATM   28  C   UNL     1      44.212 -22.178   2.115  1.00  0.00     0.017 A 
HETATM   29  C   UNL     1      44.686 -22.474   3.381  1.00  0.00     0.089 A 
HETATM   30  N   UNL     1      44.795 -21.505   4.304  1.00  0.00    -0.353 N 
HETATM   31  H   UNL     1      45.130 -21.762   5.228  1.00  0.00     0.166 HD
ENDBRANCH  23  25
ENDBRANCH  22  23
ENDBRANCH   1  22
TORSDOF 6
ENDMDL
MODEL 2
REMARK VINA RESULT:      -8.3      2.045      5.494
REMARK  6 active torsions:
REMARK  status: ('A' for Active; 'I' for Inactive)
REMARK    1  A    between atoms: C_3  and  N_4 
REMARK    2  A    between atoms: N_4  and  C_5 
REMARK    3  A    between atoms: C_5  and  C_6 
REMARK    4  A    between atoms: N_8  and  C_10 
REMARK    5  A    between atoms: C_10  and  C_11 
REMARK    6  A    between atoms: C_12  and  C_13 
ROOT
HETATM    1  C   UNL     1      42.817 -13.948   5.827  1.00  0.00     0.031 C 
HETATM    2  C   UNL     1      42.720 -15.415   6.268  1.00  0.00     0.241 C 
HETATM    3  N   UNL     1      44.053 -15.731   6.922  1.00  0.00    -0.067 N 
HETATM    4  H   UNL     1      43.865 -16.001   7.897  1.00  0.00     0.280 HD
HETATM    5  C   UNL     1      44.857 -14.451   6.980  1.00  0.00     0.235 C 
HETATM    6  C   UNL     1      43.809 -13.368   6.832  1.00  0.00     0.035 C 
ENDROOT
BRANCH   3   7
HETATM    7  C   UNL     1      44.778 -16.919   6.325  1.00  0.00     0.277 C 
BRANCH   7   8
HETATM    8  C   UNL     1      44.331 -18.226   6.867  1.00  0.00     0.016 A 
HETATM    9  C   UNL     1      43.994 -19.409   6.132  1.00  0.00     0.102 A 
HETATM   10  N   UNL     1      43.696 -20.410   6.968  1.00  0.00    -0.174 NA
HETATM   11  N   UNL     1      43.710 -19.873   8.190  1.00  0.00    -0.288 N 
HETATM   12  H   UNL     1      43.441 -20.461   8.977  1.00  0.00     0.188 HD
HETATM   13  C   UNL     1      44.113 -18.568   8.191  1.00  0.00     0.120 A 
BRANCH   9  14
HETATM   14  C   UNL     1      43.955 -19.634   4.694  1.00  0.00     0.072 A 
HETATM   15  C   UNL     1      44.787 -20.567   4.070  1.00  0.00     0.132 A 
HETATM   16  F   UNL     1      45.705 -21.245   4.782  1.00  0.00    -0.205 F 
HETATM   17  C   UNL     1      44.719 -20.800   2.696  1.00  0.00     0.043 A 
HETATM   18  C   UNL     1      43.807 -20.089   1.917  1.00  0.00     0.006 A 
HETATM   19  C   UNL     1      42.976 -19.146   2.518  1.00  0.00     0.043 A 
HETATM   20  C   UNL     1      43.053 -18.926   3.894  1.00  0.00     0.132 A 
HETATM   21  F   UNL     1      42.266 -17.980   4.427  1.00  0.00    -0.205 F 
ENDBRANCH   9  14
ENDBRANCH   7   8
ENDBRANCH   3   7
BRANCH   1  22
HETATM   22  C   UNL     1      43.262 -13.828   4.356  1.00  0.00     0.127 C 
BRANCH  22  23
HETATM   23  N   UNL     1      42.113 -13.681   3.465  1.00  0.00    -0.376 N 
HETATM   24  H   UNL     1      41.464 -12.929   3.680  1.00  0.00     0.161 HD
BRANCH  23  25
HETATM   25  C   UNL     1      41.680 -14.711   2.652  1.00  0.00     0.100 A 
HETATM   26  C   UNL     1      40.580 -15.536   2.928  1.00  0.00     0.048 A 
HETATM   27  C   UNL     1      40.238 -16.571   2.059  1.00  0.00     0.005 A 
HETATM   28  C   UNL     1      41.006 -16.795   0.925  1.00  0.00     0.017 A 
HETATM   29  C   UNL     1      42.096 -15.976   0.688  1.00  0.00     0.089 A 
HETATM   30  N   UNL     1      42.389 -14.980   1.540  1.00  0.00    -0.353 N 
HETATM   31  H   UNL     1      43.206 -14.410   1.344  1.00  0.00     0.166 HD
ENDBRANCH  23  25
ENDBRANCH  22  23
ENDBRANCH   1  22
TORSDOF 6
ENDMDL
MODEL 3
REMARK VINA RESULT:      -8.3      2.190      5.816
REMARK  6 active torsions:
REMARK  status: ('A' for Active; 'I' for Inactive)
REMARK    1  A    between atoms: C_3  and  N_4 
REMARK    2  A    between atoms: N_4  and  C_5 
REMARK    3  A    between atoms: C_5  and  C_6 
REMARK    4  A    between atoms: N_8  and  C_10 
REMARK    5  A    between atoms: C_10  and  C_11 
REMARK    6  A    between atoms: C_12  and  C_13 
ROOT
HETATM    1  C   UNL     1      43.866 -18.204   2.225  1.00  0.00     0.031 C 
HETATM    2  C   UNL     1      43.945 -17.751   3.689  1.00  0.00     0.241 C 
HETATM    3  N   UNL     1      43.971 -19.028   4.509  1.00  0.00    -0.067 N 
HETATM    4  H   UNL     1      44.852 -19.039   5.041  1.00  0.00     0.280 HD
HETATM    5  C   UNL     1      44.039 -20.195   3.548  1.00  0.00     0.235 C 
HETATM    6  C   UNL     1      44.548 -19.569   2.267  1.00  0.00     0.035 C 
ENDROOT
BRANCH   3   7
HETATM    7  C   UNL     1      42.884 -19.122   5.559  1.00  0.00     0.277 C 
BRANCH   7   8
HETATM    8  C   UNL     1      43.239 -18.476   6.846  1.00  0.00     0.016 A 
HETATM    9  C   UNL     1      42.972 -17.128   7.252  1.00  0.00     0.102 A 
HETATM   10  N   UNL     1      43.387 -16.927   8.508  1.00  0.00    -0.174 NA
HETATM   11  N   UNL     1      44.014 -18.051   8.863  1.00  0.00    -0.288 N 
HETATM   12  H   UNL     1      44.467 -18.082   9.775  1.00  0.00     0.188 HD
HETATM   13  C   UNL     1      43.931 -19.027   7.911  1.00  0.00     0.120 A 
BRANCH   9  14
HETATM   14  C   UNL     1      42.339 -16.041   6.519  1.00  0.00     0.072 A 
HETATM   15  C   UNL     1      40.966 -16.025   6.265  1.00  0.00     0.132 A 
HETATM   16  F   UNL     1      40.190 -17.058   6.639  1.00  0.00    -0.205 F 
HETATM   17  C   UNL     1      40.363 -14.963   5.589  1.00  0.00     0.043 A 
HETATM   18  C   UNL     1      41.138 -13.890   5.151  1.00  0.00     0.006 A 
HETATM   19  C   UNL     1      42.513 -13.893   5.385  1.00  0.00     0.043 A 
HETATM   20  C   UNL     1      43.101 -14.961   6.063  1.00  0.00     0.132 A 
HETATM   21  F   UNL     1      44.431 -14.946   6.231  1.00  0.00    -0.205 F 
ENDBRANCH   9  14
ENDBRANCH   7   8
ENDBRANCH   3   7
BRANCH   1  22
HETATM   22  C   UNL     1      42.410 -18.239   1.721  1.00  0.00     0.127 C 
BRANCH  22  23
HETATM   23  N   UNL     1      41.530 -17.457   2.588  1.00  0.00    -0.376 N 
HETATM   24  H   UNL     1      41.130 -17.942   3.386  1.00  0.00     0.161 HD
BRANCH  23  25
HETATM   25  C   UNL     1      40.930 -16.288   2.161  1.00  0.00     0.100 A 
HETATM   26  C   UNL     1      41.622 -15.132   1.774  1.00  0.00     0.048 A 
HETATM   27  C   UNL     1      40.925 -13.989   1.385  1.00  0.00     0.005 A 
HETATM   28  C   UNL     1      39.537 -13.992   1.403  1.00  0.00     0.017 A 
HETATM   29  C   UNL     1      38.882 -15.143   1.807  1.00  0.00     0.089 A 
HETATM   30  N   UNL     1      39.585 -16.230   2.162  1.00  0.00    -0.353 N 
HETATM   31  H   UNL     1      39.072 -17.051   2.470  1.00  0.00     0.166 HD
ENDBRANCH  23  25
ENDBRANCH  22  23
ENDBRANCH   1  22
TORSDOF 6
ENDMDL
MODEL 4
REMARK VINA RESULT:      -8.1      2.206      5.598
REMARK  6 active torsions:
REMARK  status: ('A' for Active; 'I' for Inactive)
REMARK    1  A    between atoms: C_3  and  N_4 
REMARK    2  A    between atoms: N_4  and  C_5 
REMARK    3  A    between atoms: C_5  and  C_6 
REMARK    4  A    between atoms: N_8  and  C_10 
REMARK    5  A    between atoms: C_10  and  C_11 
REMARK    6  A    between atoms: C_12  and  C_13 
ROOT
HETATM    1  C   UNL     1      43.953 -18.304   2.287  1.00  0.00     0.031 C 
HETATM    2  C   UNL     1      43.976 -17.802   3.737  1.00  0.00     0.241 C 
HETATM    3  N   UNL     1      44.064 -19.049   4.597  1.00  0.00    -0.067 N 
HETATM    4  H   UNL     1      44.934 -18.990   5.145  1.00  0.00     0.280 HD
HETATM    5  C   UNL     1      44.220 -20.239   3.676  1.00  0.00     0.235 C 
HETATM    6  C   UNL     1      44.715 -19.624   2.384  1.00  0.00     0.035 C 
ENDROOT
BRANCH   3   7
HETATM    7  C   UNL     1      42.965 -19.177   5.632  1.00  0.00     0.277 C 
BRANCH   7   8
HETATM    8  C   UNL     1      43.299 -18.558   6.938  1.00  0.00     0.016 A 
HETATM    9  C   UNL     1      43.078 -17.203   7.346  1.00  0.00     0.102 A 
HETATM   10  N   UNL     1      43.452 -17.031   8.619  1.00  0.00    -0.174 NA
HETATM   11  N   UNL     1      44.013 -18.185   8.987  1.00  0.00    -0.288 N 
HETATM   12  H   UNL     1      44.429 -18.244   9.915  1.00  0.00     0.188 HD
HETATM   13  C   UNL     1      43.923 -19.149   8.024  1.00  0.00     0.120 A 
BRANCH   9  14
HETATM   14  C   UNL     1      42.524 -16.082   6.599  1.00  0.00     0.072 A 
HETATM   15  C   UNL     1      43.325 -15.033   6.142  1.00  0.00     0.132 A 
HETATM   16  F   UNL     1      44.636 -14.996   6.439  1.00  0.00    -0.205 F 
HETATM   17  C   UNL     1      42.791 -13.980   5.399  1.00  0.00     0.043 A 
HETATM   18  C   UNL     1      41.429 -13.961   5.102  1.00  0.00     0.006 A 
HETATM   19  C   UNL     1      40.610 -14.993   5.559  1.00  0.00     0.043 A 
HETATM   20  C   UNL     1      41.159 -16.041   6.299  1.00  0.00     0.132 A 
HETATM   21  F   UNL     1      40.332 -16.992   6.756  1.00  0.00    -0.205 F 
ENDBRANCH   9  14
ENDBRANCH   7   8
ENDBRANCH   3   7
BRANCH   1  22
HETATM   22  C   UNL     1      42.510 -18.444   1.760  1.00  0.00     0.127 C 
BRANCH  22  23
HETATM   23  N   UNL     1      41.581 -17.624   2.536  1.00  0.00    -0.376 N 
HETATM   24  H   UNL     1      41.149 -18.067   3.342  1.00  0.00     0.161 HD
BRANCH  23  25
HETATM   25  C   UNL     1      40.988 -16.492   2.011  1.00  0.00     0.100 A 
HETATM   26  C   UNL     1      41.634 -15.567   1.179  1.00  0.00     0.048 A 
HETATM   27  C   UNL     1      40.958 -14.436   0.723  1.00  0.00     0.005 A 
HETATM   28  C   UNL     1      39.645 -14.218   1.114  1.00  0.00     0.017 A 
HETATM   29  C   UNL     1      39.039 -15.140   1.951  1.00  0.00     0.089 A 
HETATM   30  N   UNL     1      39.716 -16.224   2.361  1.00  0.00    -0.353 N 
HETATM   31  H   UNL     1      39.246 -16.871   2.989  1.00  0.00     0.166 HD
ENDBRANCH  23  25
ENDBRANCH  22  23
ENDBRANCH   1  22
TORSDOF 6
ENDMDL
MODEL 5
REMARK VINA RESULT:      -8.1      1.770      4.081
REMARK  6 active torsions:
REMARK  status: ('A' for Active; 'I' for Inactive)
REMARK    1  A    between atoms: C_3  and  N_4 
REMARK    2  A    between atoms: N_4  and  C_5 
REMARK    3  A    between atoms: C_5  and  C_6 
REMARK    4  A    between atoms: N_8  and  C_10 
REMARK    5  A    between atoms: C_10  and  C_11 
REMARK    6  A    between atoms: C_12  and  C_13 
ROOT
HETATM    1  C   UNL     1      41.991 -17.492   1.369  1.00  0.00     0.031 C 
HETATM    2  C   UNL     1      41.337 -16.697   2.507  1.00  0.00     0.241 C 
HETATM    3  N   UNL     1      41.190 -15.281   1.979  1.00  0.00    -0.067 N 
HETATM    4  H   UNL     1      40.186 -15.050   1.982  1.00  0.00     0.280 HD
HETATM    5  C   UNL     1      41.624 -15.277   0.530  1.00  0.00     0.235 C 
HETATM    6  C   UNL     1      41.526 -16.734   0.128  1.00  0.00     0.035 C 
ENDROOT
BRANCH   3   7
HETATM    7  C   UNL     1      41.833 -14.218   2.845  1.00  0.00     0.277 C 
BRANCH   7   8
HETATM    8  C   UNL     1      40.988 -13.783   3.984  1.00  0.00     0.016 A 
HETATM    9  C   UNL     1      41.102 -14.174   5.358  1.00  0.00     0.102 A 
HETATM   10  N   UNL     1      40.202 -13.525   6.105  1.00  0.00    -0.174 NA
HETATM   11  N   UNL     1      39.448 -12.838   5.243  1.00  0.00    -0.288 N 
HETATM   12  H   UNL     1      38.652 -12.319   5.608  1.00  0.00     0.188 HD
HETATM   13  C   UNL     1      39.894 -12.935   3.956  1.00  0.00     0.120 A 
BRANCH   9  14
HETATM   14  C   UNL     1      42.020 -15.113   5.987  1.00  0.00     0.072 A 
HETATM   15  C   UNL     1      43.370 -14.808   6.180  1.00  0.00     0.132 A 
HETATM   16  F   UNL     1      43.879 -13.649   5.725  1.00  0.00    -0.205 F 
HETATM   17  C   UNL     1      44.235 -15.701   6.814  1.00  0.00     0.043 A 
HETATM   18  C   UNL     1      43.754 -16.929   7.266  1.00  0.00     0.006 A 
HETATM   19  C   UNL     1      42.413 -17.257   7.073  1.00  0.00     0.043 A 
HETATM   20  C   UNL     1      41.560 -16.353   6.440  1.00  0.00     0.132 A 
HETATM   21  F   UNL     1      40.287 -16.724   6.235  1.00  0.00    -0.205 F 
ENDBRANCH   9  14
ENDBRANCH   7   8
ENDBRANCH   3   7
BRANCH   1  22
HETATM   22  C   UNL     1      43.523 -17.558   1.534  1.00  0.00     0.127 C 
BRANCH  22  23
HETATM   23  N   UNL     1      43.894 -18.231   2.777  1.00  0.00    -0.376 N 
HETATM   24  H   UNL     1      44.297 -17.649   3.506  1.00  0.00     0.161 HD
BRANCH  23  25
HETATM   25  C   UNL     1      44.096 -19.596   2.841  1.00  0.00     0.100 A 
HETATM   26  C   UNL     1      43.756 -20.500   1.824  1.00  0.00     0.048 A 
HETATM   27  C   UNL     1      43.972 -21.867   1.993  1.00  0.00     0.005 A 
HETATM   28  C   UNL     1      44.506 -22.334   3.185  1.00  0.00     0.017 A 
HETATM   29  C   UNL     1      44.815 -21.420   4.178  1.00  0.00     0.089 A 
HETATM   30  N   UNL     1      44.606 -20.109   3.976  1.00  0.00    -0.353 N 
HETATM   31  H   UNL     1      44.827 -19.468   4.732  1.00  0.00     0.166 HD
ENDBRANCH  23  25
ENDBRANCH  22  23
ENDBRANCH   1  22
TORSDOF 6
ENDMDL
MODEL 6
REMARK VINA RESULT:      -8.0      3.036      6.559
REMARK  6 active torsions:
REMARK  status: ('A' for Active; 'I' for Inactive)
REMARK    1  A    between atoms: C_3  and  N_4 
REMARK    2  A    between atoms: N_4  and  C_5 
REMARK    3  A    between atoms: C_5  and  C_6 
REMARK    4  A    between atoms: N_8  and  C_10 
REMARK    5  A    between atoms: C_10  and  C_11 
REMARK    6  A    between atoms: C_12  and  C_13 
ROOT
HETATM    1  C   UNL     1      41.387 -15.399   1.987  1.00  0.00     0.031 C 
HETATM    2  C   UNL     1      40.762 -16.148   3.172  1.00  0.00     0.241 C 
HETATM    3  N   UNL     1      41.883 -16.317   4.181  1.00  0.00    -0.067 N 
HETATM    4  H   UNL     1      41.597 -15.838   5.047  1.00  0.00     0.280 HD
HETATM    5  C   UNL     1      43.093 -15.572   3.661  1.00  0.00     0.235 C 
HETATM    6  C   UNL     1      42.507 -14.605   2.655  1.00  0.00     0.035 C 
ENDROOT
BRANCH   3   7
HETATM    7  C   UNL     1      42.140 -17.749   4.600  1.00  0.00     0.277 C 
BRANCH   7   8
HETATM    8  C   UNL     1      43.437 -17.946   5.294  1.00  0.00     0.016 A 
HETATM    9  C   UNL     1      44.440 -18.930   5.012  1.00  0.00     0.102 A 
HETATM   10  N   UNL     1      45.501 -18.757   5.808  1.00  0.00    -0.174 NA
HETATM   11  N   UNL     1      45.157 -17.787   6.659  1.00  0.00    -0.288 N 
HETATM   12  H   UNL     1      45.811 -17.544   7.401  1.00  0.00     0.188 HD
HETATM   13  C   UNL     1      43.936 -17.244   6.378  1.00  0.00     0.120 A 
BRANCH   9  14
HETATM   14  C   UNL     1      44.442 -20.004   4.029  1.00  0.00     0.072 A 
HETATM   15  C   UNL     1      44.587 -21.343   4.400  1.00  0.00     0.132 A 
HETATM   16  F   UNL     1      44.796 -21.676   5.686  1.00  0.00    -0.205 F 
HETATM   17  C   UNL     1      44.555 -22.368   3.454  1.00  0.00     0.043 A 
HETATM   18  C   UNL     1      44.379 -22.062   2.105  1.00  0.00     0.006 A 
HETATM   19  C   UNL     1      44.244 -20.731   1.713  1.00  0.00     0.043 A 
HETATM   20  C   UNL     1      44.275 -19.717   2.671  1.00  0.00     0.132 A 
HETATM   21  F   UNL     1      44.184 -18.447   2.249  1.00  0.00    -0.205 F 
ENDBRANCH   9  14
ENDBRANCH   7   8
ENDBRANCH   3   7
BRANCH   1  22
HETATM   22  C   UNL     1      41.866 -16.371   0.891  1.00  0.00     0.127 C 
BRANCH  22  23
HETATM   23  N   UNL     1      40.970 -16.351  -0.264  1.00  0.00    -0.376 N 
HETATM   24  H   UNL     1      40.432 -17.196  -0.436  1.00  0.00     0.161 HD
BRANCH  23  25
HETATM   25  C   UNL     1      41.128 -15.450  -1.299  1.00  0.00     0.100 A 
HETATM   26  C   UNL     1      40.609 -15.620  -2.590  1.00  0.00     0.048 A 
HETATM   27  C   UNL     1      40.848 -14.666  -3.579  1.00  0.00     0.005 A 
HETATM   28  C   UNL     1      41.623 -13.554  -3.285  1.00  0.00     0.017 A 
HETATM   29  C   UNL     1      42.138 -13.422  -2.006  1.00  0.00     0.089 A 
HETATM   30  N   UNL     1      41.877 -14.354  -1.075  1.00  0.00    -0.353 N 
HETATM   31  H   UNL     1      42.285 -14.234  -0.153  1.00  0.00     0.166 HD
ENDBRANCH  23  25
ENDBRANCH  22  23
ENDBRANCH   1  22
TORSDOF 6
ENDMDL
MODEL 7
REMARK VINA RESULT:      -8.0      1.847      4.294
REMARK  6 active torsions:
REMARK  status: ('A' for Active; 'I' for Inactive)
REMARK    1  A    between atoms: C_3  and  N_4 
REMARK    2  A    between atoms: N_4  and  C_5 
REMARK    3  A    between atoms: C_5  and  C_6 
REMARK    4  A    between atoms: N_8  and  C_10 
REMARK    5  A    between atoms: C_10  and  C_11 
REMARK    6  A    between atoms: C_12  and  C_13 
ROOT
HETATM    1  C   UNL     1      41.892 -17.376   1.141  1.00  0.00     0.031 C 
HETATM    2  C   UNL     1      41.208 -16.639   2.300  1.00  0.00     0.241 C 
HETATM    3  N   UNL     1      41.171 -15.179   1.887  1.00  0.00    -0.067 N 
HETATM    4  H   UNL     1      40.183 -14.891   1.850  1.00  0.00     0.280 HD
HETATM    5  C   UNL     1      41.696 -15.083   0.471  1.00  0.00     0.235 C 
HETATM    6  C   UNL     1      41.548 -16.494  -0.057  1.00  0.00     0.035 C 
ENDROOT
BRANCH   3   7
HETATM    7  C   UNL     1      41.812 -14.229   2.877  1.00  0.00     0.277 C 
BRANCH   7   8
HETATM    8  C   UNL     1      40.986 -13.975   4.083  1.00  0.00     0.016 A 
HETATM    9  C   UNL     1      41.168 -14.515   5.397  1.00  0.00     0.102 A 
HETATM   10  N   UNL     1      40.263 -14.007   6.241  1.00  0.00    -0.174 NA
HETATM   11  N   UNL     1      39.445 -13.268   5.488  1.00  0.00    -0.288 N 
HETATM   12  H   UNL     1      38.636 -12.839   5.933  1.00  0.00     0.188 HD
HETATM   13  C   UNL     1      39.850 -13.191   4.185  1.00  0.00     0.120 A 
BRANCH   9  14
HETATM   14  C   UNL     1      42.155 -15.469   5.886  1.00  0.00     0.072 A 
HETATM   15  C   UNL     1      41.890 -16.839   5.943  1.00  0.00     0.132 A 
HETATM   16  F   UNL     1      40.678 -17.315   5.606  1.00  0.00    -0.205 F 
HETATM   17  C   UNL     1      42.853 -17.749   6.382  1.00  0.00     0.043 A 
HETATM   18  C   UNL     1      44.109 -17.292   6.777  1.00  0.00     0.006 A 
HETATM   19  C   UNL     1      44.390 -15.927   6.738  1.00  0.00     0.043 A 
HETATM   20  C   UNL     1      43.417 -15.029   6.295  1.00  0.00     0.132 A 
HETATM   21  F   UNL     1      43.711 -13.721   6.312  1.00  0.00    -0.205 F 
ENDBRANCH   9  14
ENDBRANCH   7   8
ENDBRANCH   3   7
BRANCH   1  22
HETATM   22  C   UNL     1      43.404 -17.544   1.390  1.00  0.00     0.127 C 
BRANCH  22  23
HETATM   23  N   UNL     1      43.662 -18.171   2.686  1.00  0.00    -0.376 N 
HETATM   24  H   UNL     1      43.924 -17.550   3.446  1.00  0.00     0.161 HD
BRANCH  23  25
HETATM   25  C   UNL     1      43.953 -19.515   2.805  1.00  0.00     0.100 A 
HETATM   26  C   UNL     1      43.658 -20.484   1.835  1.00  0.00     0.048 A 
HETATM   27  C   UNL     1      43.965 -21.825   2.059  1.00  0.00     0.005 A 
HETATM   28  C   UNL     1      44.547 -22.203   3.261  1.00  0.00     0.017 A 
HETATM   29  C   UNL     1      44.810 -21.227   4.207  1.00  0.00     0.089 A 
HETATM   30  N   UNL     1      44.513 -19.943   3.952  1.00  0.00    -0.353 N 
HETATM   31  H   UNL     1      44.703 -19.256   4.676  1.00  0.00     0.166 HD
ENDBRANCH  23  25
ENDBRANCH  22  23
ENDBRANCH   1  22
TORSDOF 6
ENDMDL
MODEL 8
REMARK VINA RESULT:      -8.0      2.872      6.181
REMARK  6 active torsions:
REMARK  status: ('A' for Active; 'I' for Inactive)
REMARK    1  A    between atoms: C_3  and  N_4 
REMARK    2  A    between atoms: N_4  and  C_5 
REMARK    3  A    between atoms: C_5  and  C_6 
REMARK    4  A    between atoms: N_8  and  C_10 
REMARK    5  A    between atoms: C_10  and  C_11 
REMARK    6  A    between atoms: C_12  and  C_13 
ROOT
HETATM    1  C   UNL     1      42.965 -16.687   1.483  1.00  0.00     0.031 C 
HETATM    2  C   UNL     1      42.944 -16.558   3.012  1.00  0.00     0.241 C 
HETATM    3  N   UNL     1      43.507 -17.867   3.537  1.00  0.00    -0.067 N 
HETATM    4  H   UNL     1      44.353 -17.646   4.082  1.00  0.00     0.280 HD
HETATM    5  C   UNL     1      43.967 -18.685   2.350  1.00  0.00     0.235 C 
HETATM    6  C   UNL     1      44.122 -17.655   1.251  1.00  0.00     0.035 C 
ENDROOT
BRANCH   3   7
HETATM    7  C   UNL     1      42.602 -18.595   4.508  1.00  0.00     0.277 C 
BRANCH   7   8
HETATM    8  C   UNL     1      42.987 -18.421   5.930  1.00  0.00     0.016 A 
HETATM    9  C   UNL     1      42.861 -17.240   6.733  1.00  0.00     0.102 A 
HETATM   10  N   UNL     1      43.256 -17.483   7.987  1.00  0.00    -0.174 NA
HETATM   11  N   UNL     1      43.740 -18.727   7.977  1.00  0.00    -0.288 N 
HETATM   12  H   UNL     1      44.158 -19.089   8.832  1.00  0.00     0.188 HD
HETATM   13  C   UNL     1      43.578 -19.348   6.771  1.00  0.00     0.120 A 
BRANCH   9  14
HETATM   14  C   UNL     1      42.378 -15.914   6.372  1.00  0.00     0.072 A 
HETATM   15  C   UNL     1      43.248 -14.833   6.208  1.00  0.00     0.132 A 
HETATM   16  F   UNL     1      44.564 -14.973   6.445  1.00  0.00    -0.205 F 
HETATM   17  C   UNL     1      42.779 -13.574   5.830  1.00  0.00     0.043 A 
HETATM   18  C   UNL     1      41.417 -13.377   5.612  1.00  0.00     0.006 A 
HETATM   19  C   UNL     1      40.531 -14.441   5.782  1.00  0.00     0.043 A 
HETATM   20  C   UNL     1      41.014 -15.695   6.158  1.00  0.00     0.132 A 
HETATM   21  F   UNL     1      40.127 -16.681   6.352  1.00  0.00    -0.205 F 
ENDBRANCH   9  14
ENDBRANCH   7   8
ENDBRANCH   3   7
BRANCH   1  22
HETATM   22  C   UNL     1      41.608 -17.179   0.939  1.00  0.00     0.127 C 
BRANCH  22  23
HETATM   23  N   UNL     1      40.791 -16.063   0.466  1.00  0.00    -0.376 N 
HETATM   24  H   UNL     1      39.857 -15.986   0.860  1.00  0.00     0.161 HD
BRANCH  23  25
HETATM   25  C   UNL     1      41.061 -15.407  -0.719  1.00  0.00     0.100 A 
HETATM   26  C   UNL     1      41.583 -14.108  -0.809  1.00  0.00     0.048 A 
HETATM   27  C   UNL     1      41.794 -13.518  -2.054  1.00  0.00     0.005 A 
HETATM   28  C   UNL     1      41.465 -14.214  -3.208  1.00  0.00     0.017 A 
HETATM   29  C   UNL     1      40.934 -15.487  -3.087  1.00  0.00     0.089 A 
HETATM   30  N   UNL     1      40.757 -16.030  -1.872  1.00  0.00    -0.353 N 
HETATM   31  H   UNL     1      40.348 -16.959  -1.820  1.00  0.00     0.166 HD
ENDBRANCH  23  25
ENDBRANCH  22  23
ENDBRANCH   1  22
TORSDOF 6
ENDMDL
MODEL 9
REMARK VINA RESULT:      -8.0      3.267      7.240
REMARK  6 active torsions:
REMARK  status: ('A' for Active; 'I' for Inactive)
REMARK    1  A    between atoms: C_3  and  N_4 
REMARK    2  A    between atoms: N_4  and  C_5 
REMARK    3  A    between atoms: C_5  and  C_6 
REMARK    4  A    between atoms: N_8  and  C_10 
REMARK    5  A    between atoms: C_10  and  C_11 
REMARK    6  A    between atoms: C_12  and  C_13 
ROOT
HETATM    1  C   UNL     1      40.615 -15.906   0.810  1.00  0.00     0.031 C 
HETATM    2  C   UNL     1      41.366 -17.229   1.013  1.00  0.00     0.241 C 
HETATM    3  N   UNL     1      42.027 -17.116   2.375  1.00  0.00    -0.067 N 
HETATM    4  H   UNL     1      41.656 -17.874   2.965  1.00  0.00     0.280 HD
HETATM    5  C   UNL     1      41.569 -15.820   3.008  1.00  0.00     0.235 C 
HETATM    6  C   UNL     1      40.306 -15.481   2.244  1.00  0.00     0.035 C 
ENDROOT
BRANCH   3   7
HETATM    7  C   UNL     1      43.526 -17.332   2.365  1.00  0.00     0.277 C 
BRANCH   7   8
HETATM    8  C   UNL     1      43.942 -18.658   2.884  1.00  0.00     0.016 A 
HETATM    9  C   UNL     1      44.012 -19.081   4.251  1.00  0.00     0.102 A 
HETATM   10  N   UNL     1      44.370 -20.367   4.325  1.00  0.00    -0.174 NA
HETATM   11  N   UNL     1      44.648 -20.735   3.072  1.00  0.00    -0.288 N 
HETATM   12  H   UNL     1      45.008 -21.675   2.915  1.00  0.00     0.188 HD
HETATM   13  C   UNL     1      44.381 -19.754   2.160  1.00  0.00     0.120 A 
BRANCH   9  14
HETATM   14  C   UNL     1      43.747 -18.334   5.473  1.00  0.00     0.072 A 
HETATM   15  C   UNL     1      44.778 -17.888   6.303  1.00  0.00     0.132 A 
HETATM   16  F   UNL     1      46.058 -18.197   6.028  1.00  0.00    -0.205 F 
HETATM   17  C   UNL     1      44.516 -17.145   7.454  1.00  0.00     0.043 A 
HETATM   18  C   UNL     1      43.200 -16.836   7.796  1.00  0.00     0.006 A 
HETATM   19  C   UNL     1      42.156 -17.281   6.986  1.00  0.00     0.043 A 
HETATM   20  C   UNL     1      42.434 -18.021   5.837  1.00  0.00     0.132 A 
HETATM   21  F   UNL     1      41.400 -18.467   5.108  1.00  0.00    -0.205 F 
ENDBRANCH   9  14
ENDBRANCH   7   8
ENDBRANCH   3   7
BRANCH   1  22
HETATM   22  C   UNL     1      41.462 -14.891   0.017  1.00  0.00     0.127 C 
BRANCH  22  23
HETATM   23  N   UNL     1      41.514 -15.238  -1.402  1.00  0.00    -0.376 N 
HETATM   24  H   UNL     1      42.417 -15.146  -1.859  1.00  0.00     0.161 HD
BRANCH  23  25
HETATM   25  C   UNL     1      40.380 -15.277  -2.190  1.00  0.00     0.100 A 
HETATM   26  C   UNL     1      40.221 -16.093  -3.319  1.00  0.00     0.048 A 
HETATM   27  C   UNL     1      39.047 -16.040  -4.069  1.00  0.00     0.005 A 
HETATM   28  C   UNL     1      38.040 -15.158  -3.705  1.00  0.00     0.017 A 
HETATM   29  C   UNL     1      38.233 -14.351  -2.596  1.00  0.00     0.089 A 
HETATM   30  N   UNL     1      39.371 -14.438  -1.889  1.00  0.00    -0.353 N 
HETATM   31  H   UNL     1      39.486 -13.819  -1.092  1.00  0.00     0.166 HD
ENDBRANCH  23  25
ENDBRANCH  22  23
ENDBRANCH   1  22
TORSDOF 6
ENDMDL
MODEL 10
REMARK VINA RESULT:      -7.9      2.950      6.549
REMARK  6 active torsions:
REMARK  status: ('A' for Active; 'I' for Inactive)
REMARK    1  A    between atoms: C_3  and  N_4 
REMARK    2  A    between atoms: N_4  and  C_5 
REMARK    3  A    between atoms: C_5  and  C_6 
REMARK    4  A    between atoms: N_8  and  C_10 
REMARK    5  A    between atoms: C_10  and  C_11 
REMARK    6  A    between atoms: C_12  and  C_13 
ROOT
HETATM    1  C   UNL     1      42.577 -14.201   5.609  1.00  0.00     0.031 C 
HETATM    2  C   UNL     1      42.606 -14.784   4.190  1.00  0.00     0.241 C 
HETATM    3  N   UNL     1      41.314 -15.569   4.047  1.00  0.00    -0.067 N 
HETATM    4  H   UNL     1      40.781 -15.153   3.271  1.00  0.00     0.280 HD
HETATM    5  C   UNL     1      40.493 -15.343   5.297  1.00  0.00     0.235 C 
HETATM    6  C   UNL     1      41.080 -14.075   5.882  1.00  0.00     0.035 C 
ENDROOT
BRANCH   3   7
HETATM    7  C   UNL     1      41.501 -17.019   3.654  1.00  0.00     0.277 C 
BRANCH   7   8
HETATM    8  C   UNL     1      42.267 -17.203   2.396  1.00  0.00     0.016 A 
HETATM    9  C   UNL     1      43.295 -18.165   2.130  1.00  0.00     0.102 A 
HETATM   10  N   UNL     1      43.708 -18.069   0.862  1.00  0.00    -0.174 NA
HETATM   11  N   UNL     1      43.074 -17.009   0.357  1.00  0.00    -0.288 N 
HETATM   12  H   UNL     1      43.300 -16.719  -0.593  1.00  0.00     0.188 HD
HETATM   13  C   UNL     1      42.173 -16.466   1.228  1.00  0.00     0.120 A 
BRANCH   9  14
HETATM   14  C   UNL     1      43.886 -19.165   3.009  1.00  0.00     0.072 A 
HETATM   15  C   UNL     1      44.374 -18.837   4.276  1.00  0.00     0.132 A 
HETATM   16  F   UNL     1      44.371 -17.560   4.699  1.00  0.00    -0.205 F 
HETATM   17  C   UNL     1      44.909 -19.807   5.123  1.00  0.00     0.043 A 
HETATM   18  C   UNL     1      44.966 -21.137   4.707  1.00  0.00     0.006 A 
HETATM   19  C   UNL     1      44.495 -21.483   3.441  1.00  0.00     0.043 A 
HETATM   20  C   UNL     1      43.960 -20.502   2.606  1.00  0.00     0.132 A 
HETATM   21  F   UNL     1      43.556 -20.867   1.381  1.00  0.00    -0.205 F 
ENDBRANCH   9  14
ENDBRANCH   7   8
ENDBRANCH   3   7
BRANCH   1  22
HETATM   22  C   UNL     1      43.329 -15.104   6.607  1.00  0.00     0.127 C 
BRANCH  22  23
HETATM   23  N   UNL     1      44.715 -14.669   6.774  1.00  0.00    -0.376 N 
HETATM   24  H   UNL     1      45.435 -15.351   6.548  1.00  0.00     0.161 HD
BRANCH  23  25
HETATM   25  C   UNL     1      45.056 -13.593   7.569  1.00  0.00     0.100 A 
HETATM   26  C   UNL     1      46.235 -12.845   7.437  1.00  0.00     0.048 A 
HETATM   27  C   UNL     1      46.504 -11.791   8.310  1.00  0.00     0.005 A 
HETATM   28  C   UNL     1      45.608 -11.498   9.327  1.00  0.00     0.017 A 
HETATM   29  C   UNL     1      44.461 -12.265   9.444  1.00  0.00     0.089 A 
HETATM   30  N   UNL     1      44.227 -13.264   8.578  1.00  0.00    -0.353 N 
HETATM   31  H   UNL     1      43.385 -13.817   8.704  1.00  0.00     0.166 HD
ENDBRANCH  23  25
ENDBRANCH  22  23
ENDBRANCH   1  22
TORSDOF 6
ENDMDL
