MODEL 1
REMARK VINA RESULT:      -8.9      0.000      0.000
REMARK  5 active torsions:
REMARK  status: ('A' for Active; 'I' for Inactive)
REMARK    1  A    between atoms: C_2  and  C_3 
REMARK    2  A    between atoms: C_8  and  C_9 
REMARK       I    between atoms: C_9  and  N_10 
REMARK    3  A    between atoms: N_10  and  C_11 
REMARK    4  A    between atoms: C_11  and  C_12 
REMARK    5  A    between atoms: C_19  and  C_20 
ROOT
HETATM    1  C   UNL     1      40.324 -15.640   2.031  1.00  0.00     0.118 C 
HETATM    2  N   UNL     1      40.537 -14.853   3.238  1.00  0.00    -0.366 N 
HETATM    3  C   UNL     1      41.541 -15.115   4.102  1.00  0.00     0.123 A 
HETATM    4  N   UNL     1      42.341 -16.215   3.965  1.00  0.00    -0.240 N 
HETATM    5  N   UNL     1      43.250 -16.353   4.946  1.00  0.00    -0.165 NA
HETATM    6  C   UNL     1      43.071 -15.247   5.704  1.00  0.00     0.148 A 
HETATM    7  C   UNL     1      41.995 -14.458   5.214  1.00  0.00     0.088 A 
HETATM    8  C   UNL     1      42.213 -17.193   2.904  1.00  0.00     0.221 C 
HETATM    9  C   UNL     1      40.833 -17.081   2.226  1.00  0.00     0.066 C 
HETATM   10  H   UNL     1      40.014 -13.980   3.296  1.00  0.00     0.161 HD
ENDROOT
BRANCH   6  11
HETATM   11  C   UNL     1      43.916 -14.949   6.873  1.00  0.00     0.272 C 
HETATM   12  N   UNL     1      44.501 -13.706   6.819  1.00  0.00    -0.353 N 
HETATM   13  H   UNL     1      44.405 -13.212   5.936  1.00  0.00     0.162 HD
HETATM   14  O   UNL     1      44.074 -15.735   7.802  1.00  0.00    -0.266 OA
BRANCH  12  15
HETATM   15  C   UNL     1      45.432 -13.229   7.818  1.00  0.00     0.155 C 
BRANCH  15  16
HETATM   16  C   UNL     1      44.758 -12.369   8.889  1.00  0.00     0.139 C 
HETATM   17  O   UNL     1      44.420 -13.165  10.043  1.00  0.00    -0.384 OA
HETATM   18  C   UNL     1      44.492 -12.322  11.201  1.00  0.00     0.168 C 
HETATM   19  C   UNL     1      45.037 -10.977  10.760  1.00  0.00     0.029 C 
HETATM   20  C   UNL     1      45.671 -11.282   9.426  1.00  0.00     0.035 C 
ENDBRANCH  15  16
ENDBRANCH  12  15
ENDBRANCH   6  11
BRANCH   8  21
HETATM   21  C   UNL     1      43.373 -17.082   1.941  1.00  0.00     0.409 C 
HETATM   22  F   UNL     1      43.888 -15.832   1.901  1.00  0.00    -0.169 F 
HETATM   23  F   UNL     1      44.387 -17.895   2.344  1.00  0.00    -0.169 F 
HETATM   24  F   UNL     1      43.068 -17.436   0.678  1.00  0.00    -0.169 F 
ENDBRANCH   8  21
BRANCH   1  25
HETATM   25  C   UNL     1      40.825 -14.939   0.778  1.00  0.00    -0.034 A 
HETATM   26  C   UNL     1      41.408 -13.666   0.892  1.00  0.00     0.011 A 
HETATM   27  C   UNL     1      41.903 -12.996  -0.232  1.00  0.00     0.026 A 
HETATM   28  C   UNL     1      41.825 -13.585  -1.496  1.00  0.00     0.055 A 
HETATM   29  C   UNL     1      41.252 -14.851  -1.632  1.00  0.00     0.056 A 
HETATM   30 CL   UNL     1      42.460 -12.702  -2.836  1.00  0.00    -0.083 Cl
HETATM   31  C   UNL     1      40.764 -15.521  -0.502  1.00  0.00     0.034 A 
HETATM   32 CL   UNL     1      41.117 -15.647  -3.160  1.00  0.00    -0.083 Cl
ENDBRANCH   1  25
TORSDOF 5
ENDMDL
MODEL 2
REMARK VINA RESULT:      -8.7      4.640      8.542
REMARK  5 active torsions:
REMARK  status: ('A' for Active; 'I' for Inactive)
REMARK    1  A    between atoms: C_2  and  C_3 
REMARK    2  A    between atoms: C_8  and  C_9 
REMARK       I    between atoms: C_9  and  N_10 
REMARK    3  A    between atoms: N_10  and  C_11 
REMARK    4  A    between atoms: C_11  and  C_12 
REMARK    5  A    between atoms: C_19  and  C_20 
ROOT
HETATM    1  C   UNL     1      40.957 -16.854   4.675  1.00  0.00     0.118 C 
HETATM    2  N   UNL     1      40.291 -16.664   3.392  1.00  0.00    -0.366 N 
HETATM    3  C   UNL     1      40.507 -15.575   2.623  1.00  0.00     0.123 A 
HETATM    4  N   UNL     1      41.265 -14.524   3.057  1.00  0.00    -0.240 N 
HETATM    5  N   UNL     1      41.327 -13.501   2.188  1.00  0.00    -0.165 NA
HETATM    6  C   UNL     1      40.637 -13.952   1.115  1.00  0.00     0.148 A 
HETATM    7  C   UNL     1      40.094 -15.243   1.360  1.00  0.00     0.088 A 
HETATM    8  C   UNL     1      41.911 -14.461   4.353  1.00  0.00     0.221 C 
HETATM    9  C   UNL     1      41.297 -15.496   5.316  1.00  0.00     0.066 C 
HETATM   10  H   UNL     1      39.808 -17.479   3.018  1.00  0.00     0.161 HD
ENDROOT
BRANCH   6  11
HETATM   11  C   UNL     1      40.504 -13.165  -0.123  1.00  0.00     0.272 C 
HETATM   12  N   UNL     1      40.701 -13.907  -1.264  1.00  0.00    -0.353 N 
HETATM   13  H   UNL     1      41.054 -14.850  -1.120  1.00  0.00     0.162 HD
HETATM   14  O   UNL     1      40.236 -11.967  -0.128  1.00  0.00    -0.266 OA
BRANCH  12  15
HETATM   15  C   UNL     1      40.697 -13.330  -2.589  1.00  0.00     0.155 C 
BRANCH  15  16
HETATM   16  C   UNL     1      39.703 -14.018  -3.528  1.00  0.00     0.139 C 
HETATM   17  O   UNL     1      40.190 -15.316  -3.923  1.00  0.00    -0.384 OA
HETATM   18  C   UNL     1      39.056 -16.168  -4.142  1.00  0.00     0.168 C 
HETATM   19  C   UNL     1      37.816 -15.401  -3.727  1.00  0.00     0.029 C 
HETATM   20  C   UNL     1      38.366 -14.294  -2.864  1.00  0.00     0.035 C 
ENDBRANCH  15  16
ENDBRANCH  12  15
ENDBRANCH   6  11
BRANCH   8  21
HETATM   21  C   UNL     1      43.410 -14.587   4.202  1.00  0.00     0.409 C 
HETATM   22  F   UNL     1      44.012 -13.387   4.037  1.00  0.00    -0.169 F 
HETATM   23  F   UNL     1      43.944 -15.124   5.332  1.00  0.00    -0.169 F 
HETATM   24  F   UNL     1      43.789 -15.375   3.179  1.00  0.00    -0.169 F 
ENDBRANCH   8  21
BRANCH   1  25
HETATM   25  C   UNL     1      42.111 -17.841   4.595  1.00  0.00    -0.034 A 
HETATM   26  C   UNL     1      42.781 -18.207   5.775  1.00  0.00     0.011 A 
HETATM   27  C   UNL     1      43.833 -19.129   5.750  1.00  0.00     0.026 A 
HETATM   28  C   UNL     1      44.237 -19.706   4.544  1.00  0.00     0.055 A 
HETATM   29  C   UNL     1      43.583 -19.359   3.360  1.00  0.00     0.056 A 
HETATM   30 CL   UNL     1      45.539 -20.839   4.590  1.00  0.00    -0.083 Cl
HETATM   31  C   UNL     1      42.526 -18.440   3.391  1.00  0.00     0.034 A 
HETATM   32 CL   UNL     1      44.024 -20.027   1.829  1.00  0.00    -0.083 Cl
ENDBRANCH   1  25
TORSDOF 5
ENDMDL
MODEL 3
REMARK VINA RESULT:      -8.5      3.919      5.265
REMARK  5 active torsions:
REMARK  status: ('A' for Active; 'I' for Inactive)
REMARK    1  A    between atoms: C_2  and  C_3 
REMARK    2  A    between atoms: C_8  and  C_9 
REMARK       I    between atoms: C_9  and  N_10 
REMARK    3  A    between atoms: N_10  and  C_11 
REMARK    4  A    between atoms: C_11  and  C_12 
REMARK    5  A    between atoms: C_19  and  C_20 
ROOT
HETATM    1  C   UNL     1      43.599 -15.691   2.477  1.00  0.00     0.118 C 
HETATM    2  N   UNL     1      43.454 -14.831   3.644  1.00  0.00    -0.366 N 
HETATM    3  C   UNL     1      42.258 -14.342   4.035  1.00  0.00     0.123 A 
HETATM    4  N   UNL     1      41.127 -14.518   3.287  1.00  0.00    -0.240 N 
HETATM    5  N   UNL     1      40.038 -13.916   3.794  1.00  0.00    -0.165 NA
HETATM    6  C   UNL     1      40.478 -13.393   4.962  1.00  0.00     0.148 A 
HETATM    7  C   UNL     1      41.870 -13.626   5.136  1.00  0.00     0.088 A 
HETATM    8  C   UNL     1      41.083 -15.236   2.028  1.00  0.00     0.221 C 
HETATM    9  C   UNL     1      42.500 -15.390   1.441  1.00  0.00     0.066 C 
HETATM   10  H   UNL     1      44.265 -14.777   4.259  1.00  0.00     0.161 HD
ENDROOT
BRANCH   6  11
HETATM   11  C   UNL     1      39.584 -12.688   5.895  1.00  0.00     0.272 C 
HETATM   12  N   UNL     1      40.217 -12.261   7.039  1.00  0.00    -0.353 N 
HETATM   13  H   UNL     1      41.164 -12.604   7.171  1.00  0.00     0.162 HD
HETATM   14  O   UNL     1      38.393 -12.497   5.665  1.00  0.00    -0.266 OA
BRANCH  12  15
HETATM   15  C   UNL     1      39.522 -11.616   8.130  1.00  0.00     0.155 C 
BRANCH  15  16
HETATM   16  C   UNL     1      40.432 -10.698   8.948  1.00  0.00     0.139 C 
HETATM   17  O   UNL     1      40.501 -11.138  10.319  1.00  0.00    -0.384 OA
HETATM   18  C   UNL     1      41.794 -10.791  10.833  1.00  0.00     0.168 C 
HETATM   19  C   UNL     1      42.614 -10.236   9.684  1.00  0.00     0.029 C 
HETATM   20  C   UNL     1      41.871 -10.719   8.464  1.00  0.00     0.035 C 
ENDBRANCH  15  16
ENDBRANCH  12  15
ENDBRANCH   6  11
BRANCH   8  21
HETATM   21  C   UNL     1      40.348 -16.547   2.194  1.00  0.00     0.409 C 
HETATM   22  F   UNL     1      39.009 -16.404   2.063  1.00  0.00    -0.169 F 
HETATM   23  F   UNL     1      40.732 -17.417   1.222  1.00  0.00    -0.169 F 
HETATM   24  F   UNL     1      40.578 -17.154   3.373  1.00  0.00    -0.169 F 
ENDBRANCH   8  21
BRANCH   1  25
HETATM   25  C   UNL     1      43.759 -17.158   2.847  1.00  0.00    -0.034 A 
HETATM   26  C   UNL     1      43.875 -18.113   1.822  1.00  0.00     0.011 A 
HETATM   27  C   UNL     1      44.046 -19.470   2.118  1.00  0.00     0.026 A 
HETATM   28  C   UNL     1      44.106 -19.901   3.445  1.00  0.00     0.055 A 
HETATM   29  C   UNL     1      43.995 -18.968   4.479  1.00  0.00     0.056 A 
HETATM   30 CL   UNL     1      44.323 -21.589   3.735  1.00  0.00    -0.083 Cl
HETATM   31  C   UNL     1      43.830 -17.610   4.177  1.00  0.00     0.034 A 
HETATM   32 CL   UNL     1      44.057 -19.421   6.145  1.00  0.00    -0.083 Cl
ENDBRANCH   1  25
TORSDOF 5
ENDMDL
MODEL 4
REMARK VINA RESULT:      -8.3      5.369      7.650
REMARK  5 active torsions:
REMARK  status: ('A' for Active; 'I' for Inactive)
REMARK    1  A    between atoms: C_2  and  C_3 
REMARK    2  A    between atoms: C_8  and  C_9 
REMARK       I    between atoms: C_9  and  N_10 
REMARK    3  A    between atoms: N_10  and  C_11 
REMARK    4  A    between atoms: C_11  and  C_12 
REMARK    5  A    between atoms: C_19  and  C_20 
ROOT
HETATM    1  C   UNL     1      40.662 -16.751   2.525  1.00  0.00     0.118 C 
HETATM    2  N   UNL     1      40.630 -16.493   1.091  1.00  0.00    -0.366 N 
HETATM    3  C   UNL     1      41.113 -15.353   0.552  1.00  0.00     0.123 A 
HETATM    4  N   UNL     1      41.544 -14.315   1.329  1.00  0.00    -0.240 N 
HETATM    5  N   UNL     1      41.937 -13.237   0.629  1.00  0.00    -0.165 NA
HETATM    6  C   UNL     1      41.821 -13.634  -0.659  1.00  0.00     0.148 A 
HETATM    7  C   UNL     1      41.290 -14.950  -0.744  1.00  0.00     0.088 A 
HETATM    8  C   UNL     1      41.541 -14.321   2.778  1.00  0.00     0.221 C 
HETATM    9  C   UNL     1      40.613 -15.429   3.314  1.00  0.00     0.066 C 
HETATM   10  H   UNL     1      40.405 -17.294   0.503  1.00  0.00     0.161 HD
ENDROOT
BRANCH   6  11
HETATM   11  C   UNL     1      42.215 -12.773  -1.786  1.00  0.00     0.272 C 
HETATM   12  N   UNL     1      41.938 -11.442  -1.577  1.00  0.00    -0.353 N 
HETATM   13  H   UNL     1      41.374 -11.233  -0.758  1.00  0.00     0.162 HD
HETATM   14  O   UNL     1      42.744 -13.205  -2.807  1.00  0.00    -0.266 OA
BRANCH  12  15
HETATM   15  C   UNL     1      42.166 -10.423  -2.577  1.00  0.00     0.155 C 
BRANCH  15  16
HETATM   16  C   UNL     1      42.629  -9.096  -1.972  1.00  0.00     0.139 C 
HETATM   17  O   UNL     1      41.730  -8.671  -0.928  1.00  0.00    -0.384 OA
HETATM   18  C   UNL     1      42.489  -7.931   0.039  1.00  0.00     0.168 C 
HETATM   19  C   UNL     1      43.951  -8.025  -0.353  1.00  0.00     0.029 C 
HETATM   20  C   UNL     1      43.982  -9.204  -1.293  1.00  0.00     0.035 C 
ENDBRANCH  15  16
ENDBRANCH  12  15
ENDBRANCH   6  11
BRANCH   8  21
HETATM   21  C   UNL     1      42.954 -14.402   3.309  1.00  0.00     0.409 C 
HETATM   22  F   UNL     1      43.547 -13.189   3.379  1.00  0.00    -0.169 F 
HETATM   23  F   UNL     1      42.942 -14.889   4.579  1.00  0.00    -0.169 F 
HETATM   24  F   UNL     1      43.759 -15.207   2.591  1.00  0.00    -0.169 F 
ENDBRANCH   8  21
BRANCH   1  25
HETATM   25  C   UNL     1      41.777 -17.704   2.925  1.00  0.00    -0.034 A 
HETATM   26  C   UNL     1      42.528 -18.339   1.920  1.00  0.00     0.011 A 
HETATM   27  C   UNL     1      43.577 -19.206   2.244  1.00  0.00     0.026 A 
HETATM   28  C   UNL     1      43.899 -19.456   3.580  1.00  0.00     0.055 A 
HETATM   29  C   UNL     1      43.168 -18.834   4.593  1.00  0.00     0.056 A 
HETATM   30 CL   UNL     1      45.209 -20.533   3.904  1.00  0.00    -0.083 Cl
HETATM   31  C   UNL     1      42.122 -17.962   4.264  1.00  0.00     0.034 A 
HETATM   32 CL   UNL     1      43.503 -19.093   6.269  1.00  0.00    -0.083 Cl
ENDBRANCH   1  25
TORSDOF 5
ENDMDL
MODEL 5
REMARK VINA RESULT:      -7.9      5.122      8.771
REMARK  5 active torsions:
REMARK  status: ('A' for Active; 'I' for Inactive)
REMARK    1  A    between atoms: C_2  and  C_3 
REMARK    2  A    between atoms: C_8  and  C_9 
REMARK       I    between atoms: C_9  and  N_10 
REMARK    3  A    between atoms: N_10  and  C_11 
REMARK    4  A    between atoms: C_11  and  C_12 
REMARK    5  A    between atoms: C_19  and  C_20 
ROOT
HETATM    1  C   UNL     1      40.749 -16.589   2.470  1.00  0.00     0.118 C 
HETATM    2  N   UNL     1      40.758 -16.161   1.078  1.00  0.00    -0.366 N 
HETATM    3  C   UNL     1      41.299 -14.986   0.689  1.00  0.00     0.123 A 
HETATM    4  N   UNL     1      41.755 -14.067   1.592  1.00  0.00    -0.240 N 
HETATM    5  N   UNL     1      42.206 -12.931   1.034  1.00  0.00    -0.165 NA
HETATM    6  C   UNL     1      42.103 -13.166  -0.294  1.00  0.00     0.148 A 
HETATM    7  C   UNL     1      41.520 -14.438  -0.547  1.00  0.00     0.088 A 
HETATM    8  C   UNL     1      41.719 -14.247   3.030  1.00  0.00     0.221 C 
HETATM    9  C   UNL     1      40.736 -15.371   3.413  1.00  0.00     0.066 C 
HETATM   10  H   UNL     1      40.514 -16.874   0.393  1.00  0.00     0.161 HD
ENDROOT
BRANCH   6  11
HETATM   11  C   UNL     1      42.556 -12.193  -1.302  1.00  0.00     0.272 C 
HETATM   12  N   UNL     1      42.026 -12.416  -2.552  1.00  0.00    -0.353 N 
HETATM   13  H   UNL     1      41.517 -13.289  -2.664  1.00  0.00     0.162 HD
HETATM   14  O   UNL     1      43.326 -11.272  -1.045  1.00  0.00    -0.266 OA
BRANCH  12  15
HETATM   15  C   UNL     1      42.389 -11.635  -3.713  1.00  0.00     0.155 C 
BRANCH  15  16
HETATM   16  C   UNL     1      41.412 -10.488  -3.980  1.00  0.00     0.139 C 
HETATM   17  O   UNL     1      41.968  -9.558  -4.931  1.00  0.00    -0.384 OA
HETATM   18  C   UNL     1      40.884  -8.982  -5.674  1.00  0.00     0.168 C 
HETATM   19  C   UNL     1      39.611  -9.694  -5.260  1.00  0.00     0.029 C 
HETATM   20  C   UNL     1      40.117 -10.959  -4.615  1.00  0.00     0.035 C 
ENDBRANCH  15  16
ENDBRANCH  12  15
ENDBRANCH   6  11
BRANCH   8  21
HETATM   21  C   UNL     1      43.117 -14.453   3.571  1.00  0.00     0.409 C 
HETATM   22  F   UNL     1      43.903 -15.141   2.712  1.00  0.00    -0.169 F 
HETATM   23  F   UNL     1      43.722 -13.248   3.753  1.00  0.00    -0.169 F 
HETATM   24  F   UNL     1      43.153 -15.090   4.756  1.00  0.00    -0.169 F 
ENDBRANCH   8  21
BRANCH   1  25
HETATM   25  C   UNL     1      41.815 -17.631   2.770  1.00  0.00    -0.034 A 
HETATM   26  C   UNL     1      42.482 -18.256   1.702  1.00  0.00     0.011 A 
HETATM   27  C   UNL     1      43.485 -19.203   1.934  1.00  0.00     0.026 A 
HETATM   28  C   UNL     1      43.845 -19.545   3.239  1.00  0.00     0.055 A 
HETATM   29  C   UNL     1      43.197 -18.934   4.315  1.00  0.00     0.056 A 
HETATM   30 CL   UNL     1      45.094 -20.717   3.449  1.00  0.00    -0.083 Cl
HETATM   31  C   UNL     1      42.198 -17.981   4.078  1.00  0.00     0.034 A 
HETATM   32 CL   UNL     1      43.584 -19.304   5.959  1.00  0.00    -0.083 Cl
ENDBRANCH   1  25
TORSDOF 5
ENDMDL
MODEL 6
REMARK VINA RESULT:      -7.8      5.462      7.051
REMARK  5 active torsions:
REMARK  status: ('A' for Active; 'I' for Inactive)
REMARK    1  A    between atoms: C_2  and  C_3 
REMARK    2  A    between atoms: C_8  and  C_9 
REMARK       I    between atoms: C_9  and  N_10 
REMARK    3  A    between atoms: N_10  and  C_11 
REMARK    4  A    between atoms: C_11  and  C_12 
REMARK    5  A    between atoms: C_19  and  C_20 
ROOT
HETATM    1  C   UNL     1      38.080 -14.035   0.640  1.00  0.00     0.118 C 
HETATM    2  N   UNL     1      38.624 -15.049   1.534  1.00  0.00    -0.366 N 
HETATM    3  C   UNL     1      39.918 -15.430   1.489  1.00  0.00     0.123 A 
HETATM    4  N   UNL     1      40.768 -14.982   0.516  1.00  0.00    -0.240 N 
HETATM    5  N   UNL     1      42.003 -15.508   0.588  1.00  0.00    -0.165 NA
HETATM    6  C   UNL     1      41.961 -16.270   1.705  1.00  0.00     0.148 A 
HETATM    7  C   UNL     1      40.663 -16.259   2.285  1.00  0.00     0.088 A 
HETATM    8  C   UNL     1      40.391 -14.068  -0.542  1.00  0.00     0.221 C 
HETATM    9  C   UNL     1      38.857 -14.010  -0.689  1.00  0.00     0.066 C 
HETATM   10  H   UNL     1      38.030 -15.311   2.319  1.00  0.00     0.161 HD
ENDROOT
BRANCH   6  11
HETATM   11  C   UNL     1      43.140 -16.993   2.209  1.00  0.00     0.272 C 
HETATM   12  N   UNL     1      42.826 -18.003   3.089  1.00  0.00    -0.353 N 
HETATM   13  H   UNL     1      41.857 -18.033   3.395  1.00  0.00     0.162 HD
HETATM   14  O   UNL     1      44.288 -16.721   1.869  1.00  0.00    -0.266 OA
BRANCH  12  15
HETATM   15  C   UNL     1      43.825 -18.794   3.770  1.00  0.00     0.155 C 
BRANCH  15  16
HETATM   16  C   UNL     1      44.359 -19.939   2.906  1.00  0.00     0.139 C 
HETATM   17  O   UNL     1      44.691 -21.081   3.722  1.00  0.00    -0.384 OA
HETATM   18  C   UNL     1      44.479 -22.264   2.939  1.00  0.00     0.168 C 
HETATM   19  C   UNL     1      43.852 -21.841   1.625  1.00  0.00     0.029 C 
HETATM   20  C   UNL     1      43.328 -20.458   1.921  1.00  0.00     0.035 C 
ENDBRANCH  15  16
ENDBRANCH  12  15
ENDBRANCH   6  11
BRANCH   8  21
HETATM   21  C   UNL     1      41.031 -12.715  -0.325  1.00  0.00     0.409 C 
HETATM   22  F   UNL     1      40.240 -11.700  -0.740  1.00  0.00    -0.169 F 
HETATM   23  F   UNL     1      41.239 -12.512   1.004  1.00  0.00    -0.169 F 
HETATM   24  F   UNL     1      42.224 -12.574  -0.931  1.00  0.00    -0.169 F 
ENDBRANCH   8  21
BRANCH   1  25
HETATM   25  C   UNL     1      37.911 -12.684   1.318  1.00  0.00    -0.034 A 
HETATM   26  C   UNL     1      37.044 -11.736   0.750  1.00  0.00     0.011 A 
HETATM   27  C   UNL     1      36.842 -10.490   1.353  1.00  0.00     0.026 A 
HETATM   28  C   UNL     1      37.504 -10.165   2.540  1.00  0.00     0.055 A 
HETATM   29  C   UNL     1      38.369 -11.094   3.123  1.00  0.00     0.056 A 
HETATM   30 CL   UNL     1      37.203  -8.612   3.230  1.00  0.00    -0.083 Cl
HETATM   31  C   UNL     1      38.562 -12.343   2.518  1.00  0.00     0.034 A 
HETATM   32 CL   UNL     1      39.225 -10.767   4.588  1.00  0.00    -0.083 Cl
ENDBRANCH   1  25
TORSDOF 5
ENDMDL
MODEL 7
REMARK VINA RESULT:      -7.7      4.447      7.677
REMARK  5 active torsions:
REMARK  status: ('A' for Active; 'I' for Inactive)
REMARK    1  A    between atoms: C_2  and  C_3 
REMARK    2  A    between atoms: C_8  and  C_9 
REMARK       I    between atoms: C_9  and  N_10 
REMARK    3  A    between atoms: N_10  and  C_11 
REMARK    4  A    between atoms: C_11  and  C_12 
REMARK    5  A    between atoms: C_19  and  C_20 
ROOT
HETATM    1  C   UNL     1      40.883 -16.662   4.883  1.00  0.00     0.118 C 
HETATM    2  N   UNL     1      40.241 -15.926   3.801  1.00  0.00    -0.366 N 
HETATM    3  C   UNL     1      40.585 -14.658   3.488  1.00  0.00     0.123 A 
HETATM    4  N   UNL     1      41.465 -13.941   4.250  1.00  0.00    -0.240 N 
HETATM    5  N   UNL     1      41.647 -12.678   3.828  1.00  0.00    -0.165 NA
HETATM    6  C   UNL     1      40.904 -12.609   2.699  1.00  0.00     0.148 A 
HETATM    7  C   UNL     1      40.210 -13.828   2.466  1.00  0.00     0.088 A 
HETATM    8  C   UNL     1      42.117 -14.447   5.441  1.00  0.00     0.221 C 
HETATM    9  C   UNL     1      41.386 -15.696   5.972  1.00  0.00     0.066 C 
HETATM   10  H   UNL     1      39.663 -16.480   3.171  1.00  0.00     0.161 HD
ENDROOT
BRANCH   6  11
HETATM   11  C   UNL     1      40.863 -11.401   1.858  1.00  0.00     0.272 C 
HETATM   12  N   UNL     1      40.783 -11.677   0.512  1.00  0.00    -0.353 N 
HETATM   13  H   UNL     1      40.909 -12.652   0.255  1.00  0.00     0.162 HD
HETATM   14  O   UNL     1      40.892 -10.264   2.317  1.00  0.00    -0.266 OA
BRANCH  12  15
HETATM   15  C   UNL     1      40.808 -10.651  -0.505  1.00  0.00     0.155 C 
BRANCH  15  16
HETATM   16  C   UNL     1      41.477 -11.120  -1.799  1.00  0.00     0.139 C 
HETATM   17  O   UNL     1      42.688 -11.847  -1.512  1.00  0.00    -0.384 OA
HETATM   18  C   UNL     1      42.873 -12.828  -2.543  1.00  0.00     0.168 C 
HETATM   19  C   UNL     1      41.645 -12.800  -3.432  1.00  0.00     0.029 C 
HETATM   20  C   UNL     1      40.617 -12.098  -2.580  1.00  0.00     0.035 C 
ENDBRANCH  15  16
ENDBRANCH  12  15
ENDBRANCH   6  11
BRANCH   8  21
HETATM   21  C   UNL     1      43.590 -14.670   5.181  1.00  0.00     0.409 C 
HETATM   22  F   UNL     1      44.094 -15.683   5.923  1.00  0.00    -0.169 F 
HETATM   23  F   UNL     1      43.780 -15.025   3.882  1.00  0.00    -0.169 F 
HETATM   24  F   UNL     1      44.353 -13.584   5.404  1.00  0.00    -0.169 F 
ENDBRANCH   8  21
BRANCH   1  25
HETATM   25  C   UNL     1      41.909 -17.666   4.381  1.00  0.00    -0.034 A 
HETATM   26  C   UNL     1      42.167 -17.751   3.002  1.00  0.00     0.011 A 
HETATM   27  C   UNL     1      43.120 -18.644   2.501  1.00  0.00     0.026 A 
HETATM   28  C   UNL     1      43.836 -19.472   3.368  1.00  0.00     0.055 A 
HETATM   29  C   UNL     1      43.598 -19.402   4.742  1.00  0.00     0.056 A 
HETATM   30 CL   UNL     1      44.999 -20.546   2.679  1.00  0.00    -0.083 Cl
HETATM   31  C   UNL     1      42.647 -18.501   5.240  1.00  0.00     0.034 A 
HETATM   32 CL   UNL     1      44.441 -20.393   5.879  1.00  0.00    -0.083 Cl
ENDBRANCH   1  25
TORSDOF 5
ENDMDL
MODEL 8
REMARK VINA RESULT:      -7.7      4.166      6.041
REMARK  5 active torsions:
REMARK  status: ('A' for Active; 'I' for Inactive)
REMARK    1  A    between atoms: C_2  and  C_3 
REMARK    2  A    between atoms: C_8  and  C_9 
REMARK       I    between atoms: C_9  and  N_10 
REMARK    3  A    between atoms: N_10  and  C_11 
REMARK    4  A    between atoms: C_11  and  C_12 
REMARK    5  A    between atoms: C_19  and  C_20 
ROOT
HETATM    1  C   UNL     1      41.319 -11.931   2.009  1.00  0.00     0.118 C 
HETATM    2  N   UNL     1      42.351 -12.794   2.569  1.00  0.00    -0.366 N 
HETATM    3  C   UNL     1      42.077 -14.025   3.052  1.00  0.00     0.123 A 
HETATM    4  N   UNL     1      40.796 -14.488   3.165  1.00  0.00    -0.240 N 
HETATM    5  N   UNL     1      40.704 -15.708   3.719  1.00  0.00    -0.165 NA
HETATM    6  C   UNL     1      41.994 -16.075   3.900  1.00  0.00     0.148 A 
HETATM    7  C   UNL     1      42.882 -15.035   3.509  1.00  0.00     0.088 A 
HETATM    8  C   UNL     1      39.618 -13.735   2.783  1.00  0.00     0.221 C 
HETATM    9  C   UNL     1      39.951 -12.236   2.650  1.00  0.00     0.066 C 
HETATM   10  H   UNL     1      43.312 -12.503   2.398  1.00  0.00     0.161 HD
ENDROOT
BRANCH   6  11
HETATM   11  C   UNL     1      42.370 -17.395   4.433  1.00  0.00     0.272 C 
HETATM   12  N   UNL     1      43.674 -17.740   4.163  1.00  0.00    -0.353 N 
HETATM   13  H   UNL     1      44.166 -17.128   3.518  1.00  0.00     0.162 HD
HETATM   14  O   UNL     1      41.593 -18.109   5.060  1.00  0.00    -0.266 OA
BRANCH  12  15
HETATM   15  C   UNL     1      44.239 -19.021   4.521  1.00  0.00     0.155 C 
BRANCH  15  16
HETATM   16  C   UNL     1      44.550 -19.890   3.301  1.00  0.00     0.139 C 
HETATM   17  O   UNL     1      44.830 -21.247   3.699  1.00  0.00    -0.384 OA
HETATM   18  C   UNL     1      44.408 -22.117   2.639  1.00  0.00     0.168 C 
HETATM   19  C   UNL     1      43.705 -21.268   1.598  1.00  0.00     0.029 C 
HETATM   20  C   UNL     1      43.374 -20.003   2.349  1.00  0.00     0.035 C 
ENDBRANCH  15  16
ENDBRANCH  12  15
ENDBRANCH   6  11
BRANCH   8  21
HETATM   21  C   UNL     1      38.992 -14.329   1.541  1.00  0.00     0.409 C 
HETATM   22  F   UNL     1      38.277 -13.419   0.841  1.00  0.00    -0.169 F 
HETATM   23  F   UNL     1      39.965 -14.772   0.701  1.00  0.00    -0.169 F 
HETATM   24  F   UNL     1      38.183 -15.377   1.788  1.00  0.00    -0.169 F 
ENDBRANCH   8  21
BRANCH   1  25
HETATM   25  C   UNL     1      41.332 -11.911   0.489  1.00  0.00    -0.034 A 
HETATM   26  C   UNL     1      42.296 -12.670  -0.198  1.00  0.00     0.011 A 
HETATM   27  C   UNL     1      42.329 -12.697  -1.596  1.00  0.00     0.026 A 
HETATM   28  C   UNL     1      41.399 -11.966  -2.339  1.00  0.00     0.055 A 
HETATM   29  C   UNL     1      40.431 -11.208  -1.677  1.00  0.00     0.056 A 
HETATM   30 CL   UNL     1      41.498 -12.051  -4.060  1.00  0.00    -0.083 Cl
HETATM   31  C   UNL     1      40.398 -11.188  -0.276  1.00  0.00     0.034 A 
HETATM   32 CL   UNL     1      39.248 -10.275  -2.523  1.00  0.00    -0.083 Cl
ENDBRANCH   1  25
TORSDOF 5
ENDMDL
MODEL 9
REMARK VINA RESULT:      -7.4      5.210      6.822
REMARK  5 active torsions:
REMARK  status: ('A' for Active; 'I' for Inactive)
REMARK    1  A    between atoms: C_2  and  C_3 
REMARK    2  A    between atoms: C_8  and  C_9 
REMARK       I    between atoms: C_9  and  N_10 
REMARK    3  A    between atoms: N_10  and  C_11 
REMARK    4  A    between atoms: C_11  and  C_12 
REMARK    5  A    between atoms: C_19  and  C_20 
ROOT
HETATM    1  C   UNL     1      39.507 -12.520  -0.973  1.00  0.00     0.118 C 
HETATM    2  N   UNL     1      40.171 -12.793   0.294  1.00  0.00    -0.366 N 
HETATM    3  C   UNL     1      40.862 -13.932   0.515  1.00  0.00     0.123 A 
HETATM    4  N   UNL     1      40.873 -14.956  -0.390  1.00  0.00    -0.240 N 
HETATM    5  N   UNL     1      41.563 -16.036   0.017  1.00  0.00    -0.165 NA
HETATM    6  C   UNL     1      42.079 -15.654   1.208  1.00  0.00     0.148 A 
HETATM    7  C   UNL     1      41.645 -14.347   1.560  1.00  0.00     0.088 A 
HETATM    8  C   UNL     1      40.172 -14.935  -1.658  1.00  0.00     0.221 C 
HETATM    9  C   UNL     1      39.093 -13.834  -1.663  1.00  0.00     0.066 C 
HETATM   10  H   UNL     1      40.253 -12.002   0.931  1.00  0.00     0.161 HD
ENDROOT
BRANCH   6  11
HETATM   11  C   UNL     1      42.974 -16.522   1.992  1.00  0.00     0.272 C 
HETATM   12  N   UNL     1      42.341 -17.628   2.511  1.00  0.00    -0.353 N 
HETATM   13  H   UNL     1      41.329 -17.638   2.422  1.00  0.00     0.162 HD
HETATM   14  O   UNL     1      44.166 -16.280   2.157  1.00  0.00    -0.266 OA
BRANCH  12  15
HETATM   15  C   UNL     1      43.001 -18.578   3.378  1.00  0.00     0.155 C 
BRANCH  15  16
HETATM   16  C   UNL     1      43.823 -19.611   2.603  1.00  0.00     0.139 C 
HETATM   17  O   UNL     1      44.536 -20.477   3.508  1.00  0.00    -0.384 OA
HETATM   18  C   UNL     1      44.667 -21.762   2.884  1.00  0.00     0.168 C 
HETATM   19  C   UNL     1      43.873 -21.729   1.592  1.00  0.00     0.029 C 
HETATM   20  C   UNL     1      42.958 -20.545   1.778  1.00  0.00     0.035 C 
ENDBRANCH  15  16
ENDBRANCH  12  15
ENDBRANCH   6  11
BRANCH   8  21
HETATM   21  C   UNL     1      41.154 -14.828  -2.803  1.00  0.00     0.409 C 
HETATM   22  F   UNL     1      41.640 -16.034  -3.176  1.00  0.00    -0.169 F 
HETATM   23  F   UNL     1      40.530 -14.317  -3.898  1.00  0.00    -0.169 F 
HETATM   24  F   UNL     1      42.205 -14.028  -2.544  1.00  0.00    -0.169 F 
ENDBRANCH   8  21
BRANCH   1  25
HETATM   25  C   UNL     1      40.285 -11.547  -1.845  1.00  0.00    -0.034 A 
HETATM   26  C   UNL     1      39.774 -11.200  -3.108  1.00  0.00     0.011 A 
HETATM   27  C   UNL     1      40.445 -10.291  -3.933  1.00  0.00     0.026 A 
HETATM   28  C   UNL     1      41.643  -9.709  -3.512  1.00  0.00     0.055 A 
HETATM   29  C   UNL     1      42.168 -10.038  -2.260  1.00  0.00     0.056 A 
HETATM   30 CL   UNL     1      42.415  -8.593  -4.580  1.00  0.00    -0.083 Cl
HETATM   31  C   UNL     1      41.488 -10.943  -1.435  1.00  0.00     0.034 A 
HETATM   32 CL   UNL     1      43.644  -9.362  -1.669  1.00  0.00    -0.083 Cl
ENDBRANCH   1  25
TORSDOF 5
ENDMDL
MODEL 10
REMARK VINA RESULT:      -7.3      4.273      6.729
REMARK  5 active torsions:
REMARK  status: ('A' for Active; 'I' for Inactive)
REMARK    1  A    between atoms: C_2  and  C_3 
REMARK    2  A    between atoms: C_8  and  C_9 
REMARK       I    between atoms: C_9  and  N_10 
REMARK    3  A    between atoms: N_10  and  C_11 
REMARK    4  A    between atoms: C_11  and  C_12 
REMARK    5  A    between atoms: C_19  and  C_20 
ROOT
HETATM    1  C   UNL     1      42.122 -12.200   4.576  1.00  0.00     0.118 C 
HETATM    2  N   UNL     1      42.879 -12.839   3.508  1.00  0.00    -0.366 N 
HETATM    3  C   UNL     1      42.962 -14.181   3.387  1.00  0.00     0.123 A 
HETATM    4  N   UNL     1      42.448 -15.024   4.332  1.00  0.00    -0.240 N 
HETATM    5  N   UNL     1      42.671 -16.325   4.081  1.00  0.00    -0.165 NA
HETATM    6  C   UNL     1      43.292 -16.316   2.879  1.00  0.00     0.148 A 
HETATM    7  C   UNL     1      43.507 -14.987   2.423  1.00  0.00     0.088 A 
HETATM    8  C   UNL     1      41.768 -14.587   5.535  1.00  0.00     0.221 C 
HETATM    9  C   UNL     1      42.074 -13.103   5.823  1.00  0.00     0.066 C 
HETATM   10  H   UNL     1      43.178 -12.227   2.750  1.00  0.00     0.161 HD
ENDROOT
BRANCH   6  11
HETATM   11  C   UNL     1      43.669 -17.556   2.179  1.00  0.00     0.272 C 
HETATM   12  N   UNL     1      43.487 -18.687   2.940  1.00  0.00    -0.353 N 
HETATM   13  H   UNL     1      43.263 -18.528   3.918  1.00  0.00     0.162 HD
HETATM   14  O   UNL     1      44.097 -17.571   1.029  1.00  0.00    -0.266 OA
BRANCH  12  15
HETATM   15  C   UNL     1      43.862 -20.009   2.489  1.00  0.00     0.155 C 
BRANCH  15  16
HETATM   16  C   UNL     1      44.708 -20.764   3.515  1.00  0.00     0.139 C 
HETATM   17  O   UNL     1      44.346 -20.378   4.857  1.00  0.00    -0.384 OA
HETATM   18  C   UNL     1      44.563 -21.506   5.717  1.00  0.00     0.168 C 
HETATM   19  C   UNL     1      44.942 -22.687   4.843  1.00  0.00     0.029 C 
HETATM   20  C   UNL     1      44.480 -22.264   3.471  1.00  0.00     0.035 C 
ENDBRANCH  15  16
ENDBRANCH  12  15
ENDBRANCH   6  11
BRANCH   8  21
HETATM   21  C   UNL     1      40.290 -14.896   5.447  1.00  0.00     0.409 C 
HETATM   22  F   UNL     1      39.535 -13.977   6.090  1.00  0.00    -0.169 F 
HETATM   23  F   UNL     1      39.890 -14.871   4.147  1.00  0.00    -0.169 F 
HETATM   24  F   UNL     1      39.958 -16.106   5.934  1.00  0.00    -0.169 F 
ENDBRANCH   8  21
BRANCH   1  25
HETATM   25  C   UNL     1      40.776 -11.671   4.105  1.00  0.00    -0.034 A 
HETATM   26  C   UNL     1      39.982 -10.928   4.996  1.00  0.00     0.011 A 
HETATM   27  C   UNL     1      38.748 -10.404   4.597  1.00  0.00     0.026 A 
HETATM   28  C   UNL     1      38.280 -10.612   3.298  1.00  0.00     0.055 A 
HETATM   29  C   UNL     1      39.053 -11.347   2.396  1.00  0.00     0.056 A 
HETATM   30 CL   UNL     1      36.750  -9.933   2.874  1.00  0.00    -0.083 Cl
HETATM   31  C   UNL     1      40.291 -11.863   2.798  1.00  0.00     0.034 A 
HETATM   32 CL   UNL     1      38.543 -11.649   0.772  1.00  0.00    -0.083 Cl
ENDBRANCH   1  25
TORSDOF 5
ENDMDL
