MODEL 1
REMARK VINA RESULT:      -9.2      0.000      0.000
REMARK  6 active torsions:
REMARK  status: ('A' for Active; 'I' for Inactive)
REMARK    1  A    between atoms: N_6  and  C_8 
REMARK    2  A    between atoms: C_8  and  C_9 
REMARK    3  A    between atoms: C_9  and  C_10 
REMARK    4  A    between atoms: C_10  and  N_11 
REMARK       I    between atoms: N_11  and  C_12 
REMARK       I    between atoms: C_12  and  N_13 
REMARK    5  A    between atoms: N_13  and  N_14 
REMARK       I    between atoms: N_14  and  C_15 
REMARK    6  A    between atoms: C_15  and  C_16 
ROOT
HETATM    1  N   UNL     1      43.973 -13.179   7.389  1.00  0.00    -0.342 N 
HETATM    2  C   UNL     1      44.210 -12.700   8.650  1.00  0.00     0.334 C 
HETATM    3  N   UNL     1      43.287 -11.768   9.047  1.00  0.00    -0.249 N 
HETATM    4  O   UNL     1      45.213 -13.010   9.294  1.00  0.00    -0.246 OA
HETATM    5  H   UNL     1      43.084 -12.949   6.957  1.00  0.00     0.164 HD
HETATM    6  H   UNL     1      42.337 -11.795   8.673  1.00  0.00     0.192 HD
ENDROOT
BRANCH   1   7
HETATM    7  C   UNL     1      44.776 -14.219   6.787  1.00  0.00     0.126 C 
BRANCH   7   8
HETATM    8  C   UNL     1      44.019 -15.532   6.577  1.00  0.00     0.047 C 
BRANCH   8   9
HETATM    9  C   UNL     1      42.959 -15.555   5.473  1.00  0.00     0.237 C 
BRANCH   9  10
HETATM   10  N   UNL     1      43.193 -16.604   4.421  1.00  0.00    -0.067 N 
HETATM   11  C   UNL     1      43.833 -17.868   4.932  1.00  0.00     0.274 C 
HETATM   12  C   UNL     1      43.880 -18.993   3.935  1.00  0.00    -0.026 A 
HETATM   13  C   UNL     1      43.121 -18.957   2.750  1.00  0.00    -0.049 A 
HETATM   14  C   UNL     1      44.659 -20.126   4.217  1.00  0.00     0.009 A 
HETATM   15  C   UNL     1      43.186 -20.031   1.853  1.00  0.00     0.007 A 
HETATM   16  C   UNL     1      42.282 -17.752   2.413  1.00  0.00     0.067 C 
HETATM   17  C   UNL     1      43.971 -21.147   2.143  1.00  0.00     0.001 A 
HETATM   18  C   UNL     1      44.703 -21.196   3.325  1.00  0.00     0.001 A 
HETATM   19  C   UNL     1      41.933 -16.923   3.647  1.00  0.00     0.240 C 
HETATM   20  H   UNL     1      43.821 -16.172   3.712  1.00  0.00     0.280 HD
ENDBRANCH   9  10
ENDBRANCH   8   9
ENDBRANCH   7   8
ENDBRANCH   1   7
BRANCH   3  21
HETATM   21  N   UNL     1      43.365 -11.249  10.347  1.00  0.00    -0.261 N 
HETATM   22  C   UNL     1      42.190 -10.885  10.983  1.00  0.00     0.277 C 
HETATM   23  O   UNL     1      41.107 -11.070  10.424  1.00  0.00    -0.265 OA
HETATM   24  H   UNL     1      44.276 -11.163  10.788  1.00  0.00     0.190 HD
BRANCH  22  25
HETATM   25  C   UNL     1      42.324 -10.286  12.300  1.00  0.00     0.075 A 
HETATM   26  S   UNL     1      41.104 -10.426  13.502  1.00  0.00    -0.077 SA
HETATM   27  C   UNL     1      42.024  -9.550  14.621  1.00  0.00     0.052 A 
HETATM   28 BR   UNL     1      41.440  -9.192  16.364  1.00  0.00    -0.043 Br
HETATM   29  C   UNL     1      43.232  -9.134  14.125  1.00  0.00     0.028 A 
HETATM   30  C   UNL     1      43.406  -9.562  12.774  1.00  0.00     0.026 A 
ENDBRANCH  22  25
ENDBRANCH   3  21
TORSDOF 6
ENDMDL
MODEL 2
REMARK VINA RESULT:      -8.9      7.213      9.728
REMARK  6 active torsions:
REMARK  status: ('A' for Active; 'I' for Inactive)
REMARK    1  A    between atoms: N_6  and  C_8 
REMARK    2  A    between atoms: C_8  and  C_9 
REMARK    3  A    between atoms: C_9  and  C_10 
REMARK    4  A    between atoms: C_10  and  N_11 
REMARK       I    between atoms: N_11  and  C_12 
REMARK       I    between atoms: C_12  and  N_13 
REMARK    5  A    between atoms: N_13  and  N_14 
REMARK       I    between atoms: N_14  and  C_15 
REMARK    6  A    between atoms: C_15  and  C_16 
ROOT
HETATM    1  N   UNL     1      40.333 -15.973   4.613  1.00  0.00    -0.342 N 
HETATM    2  C   UNL     1      40.531 -15.295   3.439  1.00  0.00     0.334 C 
HETATM    3  N   UNL     1      40.043 -15.967   2.349  1.00  0.00    -0.249 N 
HETATM    4  O   UNL     1      41.176 -14.248   3.385  1.00  0.00    -0.246 OA
HETATM    5  H   UNL     1      39.718 -16.779   4.593  1.00  0.00     0.164 HD
HETATM    6  H   UNL     1      39.253 -16.607   2.451  1.00  0.00     0.192 HD
ENDROOT
BRANCH   1   7
HETATM    7  C   UNL     1      40.702 -15.427   5.899  1.00  0.00     0.126 C 
BRANCH   7   8
HETATM    8  C   UNL     1      41.921 -16.107   6.525  1.00  0.00     0.047 C 
BRANCH   8   9
HETATM    9  C   UNL     1      43.134 -16.332   5.618  1.00  0.00     0.237 C 
BRANCH   9  10
HETATM   10  N   UNL     1      43.352 -17.770   5.233  1.00  0.00    -0.067 N 
HETATM   11  C   UNL     1      43.233 -18.045   3.757  1.00  0.00     0.274 C 
HETATM   12  C   UNL     1      43.652 -19.429   3.343  1.00  0.00    -0.026 A 
HETATM   13  C   UNL     1      44.372 -20.270   4.212  1.00  0.00    -0.049 A 
HETATM   14  C   UNL     1      43.361 -19.872   2.043  1.00  0.00     0.009 A 
HETATM   15  C   UNL     1      44.751 -21.548   3.783  1.00  0.00     0.007 A 
HETATM   16  C   UNL     1      44.692 -19.829   5.616  1.00  0.00     0.067 C 
HETATM   17  C   UNL     1      44.449 -21.978   2.491  1.00  0.00     0.001 A 
HETATM   18  C   UNL     1      43.758 -21.140   1.621  1.00  0.00     0.001 A 
HETATM   19  C   UNL     1      44.659 -18.309   5.770  1.00  0.00     0.240 C 
HETATM   20  H   UNL     1      42.627 -18.321   5.738  1.00  0.00     0.280 HD
ENDBRANCH   9  10
ENDBRANCH   8   9
ENDBRANCH   7   8
ENDBRANCH   1   7
BRANCH   3  21
HETATM   21  N   UNL     1      40.111 -15.354   1.090  1.00  0.00    -0.261 N 
HETATM   22  C   UNL     1      41.046 -15.819   0.181  1.00  0.00     0.277 C 
HETATM   23  O   UNL     1      41.756 -16.784   0.470  1.00  0.00    -0.265 OA
HETATM   24  H   UNL     1      39.470 -14.595   0.877  1.00  0.00     0.190 HD
BRANCH  22  25
HETATM   25  C   UNL     1      41.129 -15.108  -1.084  1.00  0.00     0.075 A 
HETATM   26  S   UNL     1      41.548 -13.445  -1.177  1.00  0.00    -0.077 SA
HETATM   27  C   UNL     1      41.453 -13.454  -2.867  1.00  0.00     0.052 A 
HETATM   28 BR   UNL     1      41.797 -11.943  -3.918  1.00  0.00    -0.043 Br
HETATM   29  C   UNL     1      41.103 -14.675  -3.385  1.00  0.00     0.028 A 
HETATM   30  C   UNL     1      40.914 -15.636  -2.347  1.00  0.00     0.026 A 
ENDBRANCH  22  25
ENDBRANCH   3  21
TORSDOF 6
ENDMDL
MODEL 3
REMARK VINA RESULT:      -8.7      6.456      8.412
REMARK  6 active torsions:
REMARK  status: ('A' for Active; 'I' for Inactive)
REMARK    1  A    between atoms: N_6  and  C_8 
REMARK    2  A    between atoms: C_8  and  C_9 
REMARK    3  A    between atoms: C_9  and  C_10 
REMARK    4  A    between atoms: C_10  and  N_11 
REMARK       I    between atoms: N_11  and  C_12 
REMARK       I    between atoms: C_12  and  N_13 
REMARK    5  A    between atoms: N_13  and  N_14 
REMARK       I    between atoms: N_14  and  C_15 
REMARK    6  A    between atoms: C_15  and  C_16 
ROOT
HETATM    1  N   UNL     1      42.046 -15.398   6.381  1.00  0.00    -0.342 N 
HETATM    2  C   UNL     1      41.616 -14.843   5.205  1.00  0.00     0.334 C 
HETATM    3  N   UNL     1      40.357 -15.255   4.854  1.00  0.00    -0.249 N 
HETATM    4  O   UNL     1      42.342 -14.138   4.505  1.00  0.00    -0.246 OA
HETATM    5  H   UNL     1      41.364 -15.893   6.946  1.00  0.00     0.164 HD
HETATM    6  H   UNL     1      39.686 -15.528   5.573  1.00  0.00     0.192 HD
ENDROOT
BRANCH   1   7
HETATM    7  C   UNL     1      43.314 -15.058   6.985  1.00  0.00     0.126 C 
BRANCH   7   8
HETATM    8  C   UNL     1      44.473 -15.935   6.509  1.00  0.00     0.047 C 
BRANCH   8   9
HETATM    9  C   UNL     1      44.305 -17.450   6.655  1.00  0.00     0.237 C 
BRANCH   9  10
HETATM   10  N   UNL     1      44.434 -18.208   5.362  1.00  0.00    -0.067 N 
HETATM   11  C   UNL     1      44.534 -19.701   5.523  1.00  0.00     0.274 C 
HETATM   12  C   UNL     1      44.454 -20.476   4.235  1.00  0.00    -0.026 A 
HETATM   13  C   UNL     1      44.020 -19.872   3.040  1.00  0.00    -0.049 A 
HETATM   14  C   UNL     1      44.772 -21.843   4.237  1.00  0.00     0.009 A 
HETATM   15  C   UNL     1      43.951 -20.632   1.866  1.00  0.00     0.007 A 
HETATM   16  C   UNL     1      43.680 -18.405   3.002  1.00  0.00     0.067 C 
HETATM   17  C   UNL     1      44.277 -21.987   1.881  1.00  0.00     0.001 A 
HETATM   18  C   UNL     1      44.684 -22.593   3.066  1.00  0.00     0.001 A 
HETATM   19  C   UNL     1      43.338 -17.851   4.384  1.00  0.00     0.240 C 
HETATM   20  H   UNL     1      45.302 -17.859   4.905  1.00  0.00     0.280 HD
ENDBRANCH   9  10
ENDBRANCH   8   9
ENDBRANCH   7   8
ENDBRANCH   1   7
BRANCH   3  21
HETATM   21  N   UNL     1      39.761 -14.706   3.709  1.00  0.00    -0.261 N 
HETATM   22  C   UNL     1      39.864 -15.401   2.515  1.00  0.00     0.277 C 
HETATM   23  O   UNL     1      40.424 -16.499   2.491  1.00  0.00    -0.265 OA
HETATM   24  H   UNL     1      39.264 -13.823   3.788  1.00  0.00     0.190 HD
BRANCH  22  25
HETATM   25  C   UNL     1      39.294 -14.761   1.342  1.00  0.00     0.075 A 
HETATM   26  S   UNL     1      40.230 -14.396  -0.052  1.00  0.00    -0.077 SA
HETATM   27  C   UNL     1      38.885 -13.764  -0.863  1.00  0.00     0.052 A 
HETATM   28 BR   UNL     1      38.970 -13.084  -2.605  1.00  0.00    -0.043 Br
HETATM   29  C   UNL     1      37.734 -13.803  -0.119  1.00  0.00     0.028 A 
HETATM   30  C   UNL     1      37.973 -14.383   1.164  1.00  0.00     0.026 A 
ENDBRANCH  22  25
ENDBRANCH   3  21
TORSDOF 6
ENDMDL
MODEL 4
REMARK VINA RESULT:      -8.7      1.695      2.591
REMARK  6 active torsions:
REMARK  status: ('A' for Active; 'I' for Inactive)
REMARK    1  A    between atoms: N_6  and  C_8 
REMARK    2  A    between atoms: C_8  and  C_9 
REMARK    3  A    between atoms: C_9  and  C_10 
REMARK    4  A    between atoms: C_10  and  N_11 
REMARK       I    between atoms: N_11  and  C_12 
REMARK       I    between atoms: C_12  and  N_13 
REMARK    5  A    between atoms: N_13  and  N_14 
REMARK       I    between atoms: N_14  and  C_15 
REMARK    6  A    between atoms: C_15  and  C_16 
ROOT
HETATM    1  N   UNL     1      43.955 -14.016   5.545  1.00  0.00    -0.342 N 
HETATM    2  C   UNL     1      43.334 -13.155   6.410  1.00  0.00     0.334 C 
HETATM    3  N   UNL     1      43.988 -13.043   7.609  1.00  0.00    -0.249 N 
HETATM    4  O   UNL     1      42.249 -12.632   6.154  1.00  0.00    -0.246 OA
HETATM    5  H   UNL     1      44.886 -14.337   5.787  1.00  0.00     0.164 HD
HETATM    6  H   UNL     1      44.998 -13.189   7.659  1.00  0.00     0.192 HD
ENDROOT
BRANCH   1   7
HETATM    7  C   UNL     1      43.483 -14.240   4.197  1.00  0.00     0.126 C 
BRANCH   7   8
HETATM    8  C   UNL     1      42.450 -15.363   4.089  1.00  0.00     0.047 C 
BRANCH   8   9
HETATM    9  C   UNL     1      42.324 -16.310   5.285  1.00  0.00     0.237 C 
BRANCH   9  10
HETATM   10  N   UNL     1      42.785 -17.715   5.005  1.00  0.00    -0.067 N 
HETATM   11  C   UNL     1      42.749 -18.105   3.551  1.00  0.00     0.274 C 
HETATM   12  C   UNL     1      43.400 -19.425   3.241  1.00  0.00    -0.026 A 
HETATM   13  C   UNL     1      44.228 -20.073   4.176  1.00  0.00    -0.049 A 
HETATM   14  C   UNL     1      43.218 -19.997   1.973  1.00  0.00     0.009 A 
HETATM   15  C   UNL     1      44.823 -21.297   3.843  1.00  0.00     0.007 A 
HETATM   16  C   UNL     1      44.438 -19.491   5.550  1.00  0.00     0.067 C 
HETATM   17  C   UNL     1      44.627 -21.858   2.582  1.00  0.00     0.001 A 
HETATM   18  C   UNL     1      43.828 -21.207   1.647  1.00  0.00     0.001 A 
HETATM   19  C   UNL     1      44.151 -17.991   5.595  1.00  0.00     0.240 C 
HETATM   20  H   UNL     1      42.150 -18.343   5.539  1.00  0.00     0.280 HD
ENDBRANCH   9  10
ENDBRANCH   8   9
ENDBRANCH   7   8
ENDBRANCH   1   7
BRANCH   3  21
HETATM   21  N   UNL     1      43.504 -12.135   8.562  1.00  0.00    -0.261 N 
HETATM   22  C   UNL     1      44.132 -12.078   9.795  1.00  0.00     0.277 C 
HETATM   23  O   UNL     1      45.124 -12.777  10.012  1.00  0.00    -0.265 OA
HETATM   24  H   UNL     1      42.716 -11.541   8.320  1.00  0.00     0.190 HD
BRANCH  22  25
HETATM   25  C   UNL     1      43.553 -11.175  10.776  1.00  0.00     0.075 A 
HETATM   26  S   UNL     1      41.871 -10.827  10.825  1.00  0.00    -0.077 SA
HETATM   27  C   UNL     1      42.059  -9.818  12.171  1.00  0.00     0.052 A 
HETATM   28 BR   UNL     1      40.626  -8.936  12.993  1.00  0.00    -0.043 Br
HETATM   29  C   UNL     1      43.358  -9.714  12.595  1.00  0.00     0.028 A 
HETATM   30  C   UNL     1      44.227 -10.503  11.783  1.00  0.00     0.026 A 
ENDBRANCH  22  25
ENDBRANCH   3  21
TORSDOF 6
ENDMDL
MODEL 5
REMARK VINA RESULT:      -8.5      2.496      3.833
REMARK  6 active torsions:
REMARK  status: ('A' for Active; 'I' for Inactive)
REMARK    1  A    between atoms: N_6  and  C_8 
REMARK    2  A    between atoms: C_8  and  C_9 
REMARK    3  A    between atoms: C_9  and  C_10 
REMARK    4  A    between atoms: C_10  and  N_11 
REMARK       I    between atoms: N_11  and  C_12 
REMARK       I    between atoms: C_12  and  N_13 
REMARK    5  A    between atoms: N_13  and  N_14 
REMARK       I    between atoms: N_14  and  C_15 
REMARK    6  A    between atoms: C_15  and  C_16 
ROOT
HETATM    1  N   UNL     1      41.807 -14.518   4.347  1.00  0.00    -0.342 N 
HETATM    2  C   UNL     1      41.824 -13.729   5.466  1.00  0.00     0.334 C 
HETATM    3  N   UNL     1      43.031 -13.754   6.115  1.00  0.00    -0.249 N 
HETATM    4  O   UNL     1      40.818 -13.153   5.882  1.00  0.00    -0.246 OA
HETATM    5  H   UNL     1      42.691 -14.886   4.016  1.00  0.00     0.164 HD
HETATM    6  H   UNL     1      43.891 -13.933   5.594  1.00  0.00     0.192 HD
ENDROOT
BRANCH   1   7
HETATM    7  C   UNL     1      40.663 -14.594   3.466  1.00  0.00     0.126 C 
BRANCH   7   8
HETATM    8  C   UNL     1      40.608 -15.883   2.645  1.00  0.00     0.047 C 
BRANCH   8   9
HETATM    9  C   UNL     1      41.931 -16.400   2.072  1.00  0.00     0.237 C 
BRANCH   9  10
HETATM   10  N   UNL     1      42.449 -17.639   2.750  1.00  0.00    -0.067 N 
HETATM   11  C   UNL     1      42.800 -18.763   1.811  1.00  0.00     0.274 C 
HETATM   12  C   UNL     1      43.510 -19.920   2.459  1.00  0.00    -0.026 A 
HETATM   13  C   UNL     1      44.059 -19.816   3.751  1.00  0.00    -0.049 A 
HETATM   14  C   UNL     1      43.672 -21.114   1.739  1.00  0.00     0.009 A 
HETATM   15  C   UNL     1      44.720 -20.915   4.313  1.00  0.00     0.007 A 
HETATM   16  C   UNL     1      43.895 -18.552   4.554  1.00  0.00     0.067 C 
HETATM   17  C   UNL     1      44.866 -22.098   3.589  1.00  0.00     0.001 A 
HETATM   18  C   UNL     1      44.346 -22.196   2.302  1.00  0.00     0.001 A 
HETATM   19  C   UNL     1      43.607 -17.337   3.674  1.00  0.00     0.240 C 
HETATM   20  H   UNL     1      41.693 -17.959   3.391  1.00  0.00     0.280 HD
ENDBRANCH   9  10
ENDBRANCH   8   9
ENDBRANCH   7   8
ENDBRANCH   1   7
BRANCH   3  21
HETATM   21  N   UNL     1      43.214 -12.932   7.236  1.00  0.00    -0.261 N 
HETATM   22  C   UNL     1      44.454 -12.928   7.854  1.00  0.00     0.277 C 
HETATM   23  O   UNL     1      45.377 -13.596   7.384  1.00  0.00    -0.265 OA
HETATM   24  H   UNL     1      42.440 -12.358   7.557  1.00  0.00     0.190 HD
BRANCH  22  25
HETATM   25  C   UNL     1      44.577 -12.116   9.053  1.00  0.00     0.075 A 
HETATM   26  S   UNL     1      43.221 -11.385   9.812  1.00  0.00    -0.077 SA
HETATM   27  C   UNL     1      44.185 -10.728  11.038  1.00  0.00     0.052 A 
HETATM   28 BR   UNL     1      43.493  -9.698  12.440  1.00  0.00    -0.043 Br
HETATM   29  C   UNL     1      45.516 -11.028  10.902  1.00  0.00     0.028 A 
HETATM   30  C   UNL     1      45.744 -11.834   9.746  1.00  0.00     0.026 A 
ENDBRANCH  22  25
ENDBRANCH   3  21
TORSDOF 6
ENDMDL
MODEL 6
REMARK VINA RESULT:      -8.5      4.978     11.589
REMARK  6 active torsions:
REMARK  status: ('A' for Active; 'I' for Inactive)
REMARK    1  A    between atoms: N_6  and  C_8 
REMARK    2  A    between atoms: C_8  and  C_9 
REMARK    3  A    between atoms: C_9  and  C_10 
REMARK    4  A    between atoms: C_10  and  N_11 
REMARK       I    between atoms: N_11  and  C_12 
REMARK       I    between atoms: C_12  and  N_13 
REMARK    5  A    between atoms: N_13  and  N_14 
REMARK       I    between atoms: N_14  and  C_15 
REMARK    6  A    between atoms: C_15  and  C_16 
ROOT
HETATM    1  N   UNL     1      44.369 -13.656   8.305  1.00  0.00    -0.342 N 
HETATM    2  C   UNL     1      44.394 -14.381   7.143  1.00  0.00     0.334 C 
HETATM    3  N   UNL     1      43.686 -15.551   7.233  1.00  0.00    -0.249 N 
HETATM    4  O   UNL     1      45.073 -14.046   6.172  1.00  0.00    -0.246 OA
HETATM    5  H   UNL     1      43.719 -13.945   9.027  1.00  0.00     0.164 HD
HETATM    6  H   UNL     1      42.894 -15.625   7.873  1.00  0.00     0.192 HD
ENDROOT
BRANCH   1   7
HETATM    7  C   UNL     1      44.988 -12.355   8.424  1.00  0.00     0.126 C 
BRANCH   7   8
HETATM    8  C   UNL     1      44.970 -11.797   9.848  1.00  0.00     0.047 C 
BRANCH   8   9
HETATM    9  C   UNL     1      44.065 -12.505  10.861  1.00  0.00     0.237 C 
BRANCH   9  10
HETATM   10  N   UNL     1      42.998 -11.623  11.449  1.00  0.00    -0.067 N 
HETATM   11  C   UNL     1      43.175 -11.321  12.913  1.00  0.00     0.274 C 
HETATM   12  C   UNL     1      42.234 -10.279  13.456  1.00  0.00    -0.026 A 
HETATM   13  C   UNL     1      41.479  -9.455  12.601  1.00  0.00    -0.049 A 
HETATM   14  C   UNL     1      42.147 -10.092  14.844  1.00  0.00     0.009 A 
HETATM   15  C   UNL     1      40.623  -8.491  13.147  1.00  0.00     0.007 A 
HETATM   16  C   UNL     1      41.543  -9.636  11.107  1.00  0.00     0.067 C 
HETATM   17  C   UNL     1      40.541  -8.321  14.529  1.00  0.00     0.001 A 
HETATM   18  C   UNL     1      41.304  -9.118  15.376  1.00  0.00     0.001 A 
HETATM   19  C   UNL     1      42.821 -10.344  10.661  1.00  0.00     0.240 C 
HETATM   20  H   UNL     1      42.096 -12.127  11.315  1.00  0.00     0.280 HD
ENDBRANCH   9  10
ENDBRANCH   8   9
ENDBRANCH   7   8
ENDBRANCH   1   7
BRANCH   3  21
HETATM   21  N   UNL     1      43.564 -16.356   6.091  1.00  0.00    -0.261 N 
HETATM   22  C   UNL     1      44.223 -17.575   6.071  1.00  0.00     0.277 C 
HETATM   23  O   UNL     1      44.853 -17.948   7.063  1.00  0.00    -0.265 OA
HETATM   24  H   UNL     1      42.991 -16.031   5.318  1.00  0.00     0.190 HD
BRANCH  22  25
HETATM   25  C   UNL     1      44.126 -18.344   4.842  1.00  0.00     0.075 A 
HETATM   26  S   UNL     1      44.580 -19.998   4.755  1.00  0.00    -0.077 SA
HETATM   27  C   UNL     1      44.144 -20.093   3.122  1.00  0.00     0.052 A 
HETATM   28 BR   UNL     1      44.296 -21.664   2.114  1.00  0.00    -0.043 Br
HETATM   29  C   UNL     1      43.671 -18.910   2.616  1.00  0.00     0.028 A 
HETATM   30  C   UNL     1      43.661 -17.893   3.617  1.00  0.00     0.026 A 
ENDBRANCH  22  25
ENDBRANCH   3  21
TORSDOF 6
ENDMDL
MODEL 7
REMARK VINA RESULT:      -8.4      2.367      2.799
REMARK  6 active torsions:
REMARK  status: ('A' for Active; 'I' for Inactive)
REMARK    1  A    between atoms: N_6  and  C_8 
REMARK    2  A    between atoms: C_8  and  C_9 
REMARK    3  A    between atoms: C_9  and  C_10 
REMARK    4  A    between atoms: C_10  and  N_11 
REMARK       I    between atoms: N_11  and  C_12 
REMARK       I    between atoms: C_12  and  N_13 
REMARK    5  A    between atoms: N_13  and  N_14 
REMARK       I    between atoms: N_14  and  C_15 
REMARK    6  A    between atoms: C_15  and  C_16 
ROOT
HETATM    1  N   UNL     1      40.625 -12.292   4.739  1.00  0.00    -0.342 N 
HETATM    2  C   UNL     1      41.307 -12.221   5.924  1.00  0.00     0.334 C 
HETATM    3  N   UNL     1      40.696 -11.405   6.840  1.00  0.00    -0.249 N 
HETATM    4  O   UNL     1      42.403 -12.758   6.087  1.00  0.00    -0.246 OA
HETATM    5  H   UNL     1      39.690 -11.901   4.709  1.00  0.00     0.164 HD
HETATM    6  H   UNL     1      39.683 -11.273   6.816  1.00  0.00     0.192 HD
ENDROOT
BRANCH   1   7
HETATM    7  C   UNL     1      41.044 -13.145   3.649  1.00  0.00     0.126 C 
BRANCH   7   8
HETATM    8  C   UNL     1      40.359 -14.513   3.646  1.00  0.00     0.047 C 
BRANCH   8   9
HETATM    9  C   UNL     1      40.970 -15.600   4.534  1.00  0.00     0.237 C 
BRANCH   9  10
HETATM   10  N   UNL     1      41.853 -16.569   3.796  1.00  0.00    -0.067 N 
HETATM   11  C   UNL     1      42.551 -17.572   4.676  1.00  0.00     0.274 C 
HETATM   12  C   UNL     1      43.265 -18.667   3.931  1.00  0.00    -0.026 A 
HETATM   13  C   UNL     1      43.037 -18.894   2.561  1.00  0.00    -0.049 A 
HETATM   14  C   UNL     1      44.141 -19.512   4.631  1.00  0.00     0.009 A 
HETATM   15  C   UNL     1      43.717 -19.931   1.909  1.00  0.00     0.007 A 
HETATM   16  C   UNL     1      42.112 -18.000   1.779  1.00  0.00     0.067 C 
HETATM   17  C   UNL     1      44.589 -20.758   2.616  1.00  0.00     0.001 A 
HETATM   18  C   UNL     1      44.798 -20.551   3.975  1.00  0.00     0.001 A 
HETATM   19  C   UNL     1      41.114 -17.268   2.676  1.00  0.00     0.240 C 
HETATM   20  H   UNL     1      42.570 -15.996   3.304  1.00  0.00     0.280 HD
ENDBRANCH   9  10
ENDBRANCH   8   9
ENDBRANCH   7   8
ENDBRANCH   1   7
BRANCH   3  21
HETATM   21  N   UNL     1      41.246 -11.300   8.125  1.00  0.00    -0.261 N 
HETATM   22  C   UNL     1      41.946 -10.149   8.450  1.00  0.00     0.277 C 
HETATM   23  O   UNL     1      42.027  -9.229   7.633  1.00  0.00    -0.265 OA
HETATM   24  H   UNL     1      41.109 -12.062   8.783  1.00  0.00     0.190 HD
BRANCH  22  25
HETATM   25  C   UNL     1      42.558 -10.113   9.767  1.00  0.00     0.075 A 
HETATM   26  S   UNL     1      41.838  -9.293  11.093  1.00  0.00    -0.077 SA
HETATM   27  C   UNL     1      43.088  -9.758  12.136  1.00  0.00     0.052 A 
HETATM   28 BR   UNL     1      43.135  -9.287  13.948  1.00  0.00    -0.043 Br
HETATM   29  C   UNL     1      44.055 -10.512  11.523  1.00  0.00     0.028 A 
HETATM   30  C   UNL     1      43.746 -10.718  10.145  1.00  0.00     0.026 A 
ENDBRANCH  22  25
ENDBRANCH   3  21
TORSDOF 6
ENDMDL
MODEL 8
REMARK VINA RESULT:      -8.3      5.061     11.285
REMARK  6 active torsions:
REMARK  status: ('A' for Active; 'I' for Inactive)
REMARK    1  A    between atoms: N_6  and  C_8 
REMARK    2  A    between atoms: C_8  and  C_9 
REMARK    3  A    between atoms: C_9  and  C_10 
REMARK    4  A    between atoms: C_10  and  N_11 
REMARK       I    between atoms: N_11  and  C_12 
REMARK       I    between atoms: C_12  and  N_13 
REMARK    5  A    between atoms: N_13  and  N_14 
REMARK       I    between atoms: N_14  and  C_15 
REMARK    6  A    between atoms: C_15  and  C_16 
ROOT
HETATM    1  N   UNL     1      39.450 -13.089   6.912  1.00  0.00    -0.342 N 
HETATM    2  C   UNL     1      40.133 -13.823   5.979  1.00  0.00     0.334 C 
HETATM    3  N   UNL     1      39.921 -15.171   6.104  1.00  0.00    -0.249 N 
HETATM    4  O   UNL     1      40.929 -13.310   5.192  1.00  0.00    -0.246 OA
HETATM    5  H   UNL     1      38.747 -13.567   7.465  1.00  0.00     0.164 HD
HETATM    6  H   UNL     1      39.044 -15.519   6.496  1.00  0.00     0.192 HD
ENDROOT
BRANCH   1   7
HETATM    7  C   UNL     1      39.467 -11.644   6.931  1.00  0.00     0.126 C 
BRANCH   7   8
HETATM    8  C   UNL     1      40.048 -11.056   8.219  1.00  0.00     0.047 C 
BRANCH   8   9
HETATM    9  C   UNL     1      41.525 -10.653   8.196  1.00  0.00     0.237 C 
BRANCH   9  10
HETATM   10  N   UNL     1      42.046 -10.162   9.518  1.00  0.00    -0.067 N 
HETATM   11  C   UNL     1      41.041 -10.204  10.639  1.00  0.00     0.274 C 
HETATM   12  C   UNL     1      41.611  -9.913  12.001  1.00  0.00    -0.026 A 
HETATM   13  C   UNL     1      42.999  -9.910  12.231  1.00  0.00    -0.049 A 
HETATM   14  C   UNL     1      40.736  -9.691  13.075  1.00  0.00     0.009 A 
HETATM   15  C   UNL     1      43.487  -9.644  13.517  1.00  0.00     0.007 A 
HETATM   16  C   UNL     1      43.966 -10.135  11.098  1.00  0.00     0.067 C 
HETATM   17  C   UNL     1      42.606  -9.417  14.574  1.00  0.00     0.001 A 
HETATM   18  C   UNL     1      41.233  -9.444  14.354  1.00  0.00     0.001 A 
HETATM   19  C   UNL     1      43.322 -10.868   9.922  1.00  0.00     0.240 C 
HETATM   20  H   UNL     1      42.342  -9.175   9.368  1.00  0.00     0.280 HD
ENDBRANCH   9  10
ENDBRANCH   8   9
ENDBRANCH   7   8
ENDBRANCH   1   7
BRANCH   3  21
HETATM   21  N   UNL     1      40.499 -16.037   5.166  1.00  0.00    -0.261 N 
HETATM   22  C   UNL     1      41.586 -16.801   5.557  1.00  0.00     0.277 C 
HETATM   23  O   UNL     1      41.988 -16.746   6.722  1.00  0.00    -0.265 OA
HETATM   24  H   UNL     1      40.103 -16.087   4.232  1.00  0.00     0.190 HD
BRANCH  22  25
HETATM   25  C   UNL     1      42.198 -17.631   4.533  1.00  0.00     0.075 A 
HETATM   26  S   UNL     1      43.415 -18.788   4.894  1.00  0.00    -0.077 SA
HETATM   27  C   UNL     1      43.514 -19.276   3.276  1.00  0.00     0.052 A 
HETATM   28 BR   UNL     1      44.672 -20.623   2.685  1.00  0.00    -0.043 Br
HETATM   29  C   UNL     1      42.665 -18.589   2.448  1.00  0.00     0.028 A 
HETATM   30  C   UNL     1      41.900 -17.631   3.180  1.00  0.00     0.026 A 
ENDBRANCH  22  25
ENDBRANCH   3  21
TORSDOF 6
ENDMDL
MODEL 9
REMARK VINA RESULT:      -8.3      4.911     11.456
REMARK  6 active torsions:
REMARK  status: ('A' for Active; 'I' for Inactive)
REMARK    1  A    between atoms: N_6  and  C_8 
REMARK    2  A    between atoms: C_8  and  C_9 
REMARK    3  A    between atoms: C_9  and  C_10 
REMARK    4  A    between atoms: C_10  and  N_11 
REMARK       I    between atoms: N_11  and  C_12 
REMARK       I    between atoms: C_12  and  N_13 
REMARK    5  A    between atoms: N_13  and  N_14 
REMARK       I    between atoms: N_14  and  C_15 
REMARK    6  A    between atoms: C_15  and  C_16 
ROOT
HETATM    1  N   UNL     1      44.505 -13.163   8.628  1.00  0.00    -0.342 N 
HETATM    2  C   UNL     1      44.663 -13.904   7.486  1.00  0.00     0.334 C 
HETATM    3  N   UNL     1      43.774 -14.942   7.399  1.00  0.00    -0.249 N 
HETATM    4  O   UNL     1      45.583 -13.701   6.693  1.00  0.00    -0.246 OA
HETATM    5  H   UNL     1      43.675 -13.330   9.186  1.00  0.00     0.164 HD
HETATM    6  H   UNL     1      42.860 -14.875   7.850  1.00  0.00     0.192 HD
ENDROOT
BRANCH   1   7
HETATM    7  C   UNL     1      45.285 -11.978   8.902  1.00  0.00     0.126 C 
BRANCH   7   8
HETATM    8  C   UNL     1      45.106 -11.443  10.323  1.00  0.00     0.047 C 
BRANCH   8   9
HETATM    9  C   UNL     1      43.847 -11.879  11.078  1.00  0.00     0.237 C 
BRANCH   9  10
HETATM   10  N   UNL     1      42.980 -10.738  11.533  1.00  0.00    -0.067 N 
HETATM   11  C   UNL     1      41.504 -10.962  11.342  1.00  0.00     0.274 C 
HETATM   12  C   UNL     1      40.625  -9.921  11.982  1.00  0.00    -0.026 A 
HETATM   13  C   UNL     1      41.135  -9.006  12.922  1.00  0.00    -0.049 A 
HETATM   14  C   UNL     1      39.257  -9.895  11.670  1.00  0.00     0.009 A 
HETATM   15  C   UNL     1      40.280  -8.059  13.501  1.00  0.00     0.007 A 
HETATM   16  C   UNL     1      42.600  -9.001  13.272  1.00  0.00     0.067 C 
HETATM   17  C   UNL     1      38.924  -8.040  13.176  1.00  0.00     0.001 A 
HETATM   18  C   UNL     1      38.412  -8.959  12.265  1.00  0.00     0.001 A 
HETATM   19  C   UNL     1      43.276 -10.336  12.961  1.00  0.00     0.240 C 
HETATM   20  H   UNL     1      43.270  -9.909  10.974  1.00  0.00     0.280 HD
ENDBRANCH   9  10
ENDBRANCH   8   9
ENDBRANCH   7   8
ENDBRANCH   1   7
BRANCH   3  21
HETATM   21  N   UNL     1      43.774 -15.738   6.245  1.00  0.00    -0.261 N 
HETATM   22  C   UNL     1      43.842 -17.113   6.393  1.00  0.00     0.277 C 
HETATM   23  O   UNL     1      43.849 -17.610   7.521  1.00  0.00    -0.265 OA
HETATM   24  H   UNL     1      43.714 -15.287   5.336  1.00  0.00     0.190 HD
BRANCH  22  25
HETATM   25  C   UNL     1      43.912 -17.894   5.169  1.00  0.00     0.075 A 
HETATM   26  S   UNL     1      44.381 -19.547   5.159  1.00  0.00    -0.077 SA
HETATM   27  C   UNL     1      44.164 -19.660   3.484  1.00  0.00     0.052 A 
HETATM   28 BR   UNL     1      44.454 -21.239   2.521  1.00  0.00    -0.043 Br
HETATM   29  C   UNL     1      43.754 -18.485   2.909  1.00  0.00     0.028 A 
HETATM   30  C   UNL     1      43.609 -17.458   3.890  1.00  0.00     0.026 A 
ENDBRANCH  22  25
ENDBRANCH   3  21
TORSDOF 6
ENDMDL
MODEL 10
REMARK VINA RESULT:      -8.1      6.971     10.071
REMARK  6 active torsions:
REMARK  status: ('A' for Active; 'I' for Inactive)
REMARK    1  A    between atoms: N_6  and  C_8 
REMARK    2  A    between atoms: C_8  and  C_9 
REMARK    3  A    between atoms: C_9  and  C_10 
REMARK    4  A    between atoms: C_10  and  N_11 
REMARK       I    between atoms: N_11  and  C_12 
REMARK       I    between atoms: C_12  and  N_13 
REMARK    5  A    between atoms: N_13  and  N_14 
REMARK       I    between atoms: N_14  and  C_15 
REMARK    6  A    between atoms: C_15  and  C_16 
ROOT
HETATM    1  N   UNL     1      40.320 -15.101   0.729  1.00  0.00    -0.342 N 
HETATM    2  C   UNL     1      40.557 -16.304   1.340  1.00  0.00     0.334 C 
HETATM    3  N   UNL     1      41.765 -16.849   0.989  1.00  0.00    -0.249 N 
HETATM    4  O   UNL     1      39.714 -16.864   2.041  1.00  0.00    -0.246 OA
HETATM    5  H   UNL     1      41.092 -14.660   0.241  1.00  0.00     0.164 HD
HETATM    6  H   UNL     1      42.541 -16.245   0.716  1.00  0.00     0.192 HD
ENDROOT
BRANCH   1   7
HETATM    7  C   UNL     1      39.142 -14.309   1.001  1.00  0.00     0.126 C 
BRANCH   7   8
HETATM    8  C   UNL     1      39.222 -13.524   2.312  1.00  0.00     0.047 C 
BRANCH   8   9
HETATM    9  C   UNL     1      40.516 -12.754   2.585  1.00  0.00     0.237 C 
BRANCH   9  10
HETATM   10  N   UNL     1      41.352 -13.334   3.692  1.00  0.00    -0.067 N 
HETATM   11  C   UNL     1      40.751 -14.543   4.359  1.00  0.00     0.274 C 
HETATM   12  C   UNL     1      41.669 -15.249   5.320  1.00  0.00    -0.026 A 
HETATM   13  C   UNL     1      43.049 -14.979   5.350  1.00  0.00    -0.049 A 
HETATM   14  C   UNL     1      41.143 -16.234   6.170  1.00  0.00     0.009 A 
HETATM   15  C   UNL     1      43.870 -15.666   6.254  1.00  0.00     0.007 A 
HETATM   16  C   UNL     1      43.644 -13.920   4.458  1.00  0.00     0.067 C 
HETATM   17  C   UNL     1      43.333 -16.637   7.098  1.00  0.00     0.001 A 
HETATM   18  C   UNL     1      41.972 -16.924   7.053  1.00  0.00     0.001 A 
HETATM   19  C   UNL     1      42.767 -13.625   3.242  1.00  0.00     0.240 C 
HETATM   20  H   UNL     1      41.464 -12.579   4.401  1.00  0.00     0.280 HD
ENDBRANCH   9  10
ENDBRANCH   8   9
ENDBRANCH   7   8
ENDBRANCH   1   7
BRANCH   3  21
HETATM   21  N   UNL     1      42.170 -18.044   1.599  1.00  0.00    -0.261 N 
HETATM   22  C   UNL     1      43.527 -18.288   1.732  1.00  0.00     0.277 C 
HETATM   23  O   UNL     1      44.342 -17.439   1.366  1.00  0.00    -0.265 OA
HETATM   24  H   UNL     1      41.462 -18.692   1.932  1.00  0.00     0.190 HD
BRANCH  22  25
HETATM   25  C   UNL     1      43.902 -19.570   2.305  1.00  0.00     0.075 A 
HETATM   26  S   UNL     1      44.415 -19.733   3.937  1.00  0.00    -0.077 SA
HETATM   27  C   UNL     1      44.594 -21.408   3.775  1.00  0.00     0.052 A 
HETATM   28 BR   UNL     1      45.149 -22.516   5.179  1.00  0.00    -0.043 Br
HETATM   29  C   UNL     1      44.290 -21.869   2.520  1.00  0.00     0.028 A 
HETATM   30  C   UNL     1      43.889 -20.799   1.665  1.00  0.00     0.026 A 
ENDBRANCH  22  25
ENDBRANCH   3  21
TORSDOF 6
ENDMDL
