MODEL 1
REMARK VINA RESULT:      -9.4      0.000      0.000
REMARK  6 active torsions:
REMARK  status: ('A' for Active; 'I' for Inactive)
REMARK    1  A    between atoms: O_2  and  C_3 
REMARK    2  A    between atoms: C_10  and  C_11 
REMARK    3  A    between atoms: C_11  and  C_12 
REMARK    4  A    between atoms: C_12  and  N_13 
REMARK       I    between atoms: N_13  and  C_14 
REMARK    5  A    between atoms: C_14  and  C_15 
REMARK    6  A    between atoms: C_21  and  C_22 
ROOT
HETATM    1  N   UNL     1      39.680 -15.208   2.712  1.00  0.00    -0.357 N 
HETATM    2  C   UNL     1      40.756 -16.015   2.401  1.00  0.00     0.251 C 
HETATM    3  O   UNL     1      40.906 -16.549   1.308  1.00  0.00    -0.268 OA
HETATM    4  H   UNL     1      39.782 -14.553   3.477  1.00  0.00     0.162 HD
ENDROOT
BRANCH   2   5
HETATM    5  C   UNL     1      41.778 -16.214   3.469  1.00  0.00     0.033 A 
HETATM    6  C   UNL     1      42.418 -17.478   3.503  1.00  0.00     0.033 A 
HETATM    7  C   UNL     1      43.304 -17.588   4.575  1.00  0.00     0.033 A 
HETATM    8  C   UNL     1      43.593 -16.563   5.550  1.00  0.00     0.097 A 
HETATM    9  C   UNL     1      44.077 -18.670   4.916  1.00  0.00     0.124 A 
HETATM   10  N   UNL     1      44.506 -17.027   6.416  1.00  0.00    -0.127 NA
HETATM   11  C   UNL     1      42.954 -15.312   5.498  1.00  0.00     0.036 A 
HETATM   12  O   UNL     1      44.802 -18.318   6.023  1.00  0.00    -0.211 OA
HETATM   13  C   UNL     1      42.034 -15.179   4.432  1.00  0.00     0.019 A 
BRANCH   9  14
HETATM   14  C   UNL     1      44.304 -20.030   4.437  1.00  0.00     0.001 A 
HETATM   15  C   UNL     1      44.611 -21.075   5.319  1.00  0.00     0.014 A 
HETATM   16  C   UNL     1      44.822 -22.375   4.846  1.00  0.00     0.001 A 
HETATM   17  C   UNL     1      44.738 -22.646   3.483  1.00  0.00     0.000 A 
HETATM   18  C   UNL     1      44.447 -21.617   2.590  1.00  0.00     0.001 A 
HETATM   19  C   UNL     1      44.232 -20.321   3.065  1.00  0.00     0.014 A 
ENDBRANCH   9  14
ENDBRANCH   2   5
BRANCH   1  20
HETATM   20  C   UNL     1      38.694 -14.872   1.697  1.00  0.00     0.127 C 
BRANCH  20  21
HETATM   21  C   UNL     1      38.779 -13.412   1.247  1.00  0.00     0.060 C 
BRANCH  21  22
HETATM   22  C   UNL     1      40.048 -13.095   0.517  1.00  0.00    -0.029 A 
HETATM   23  C   UNL     1      40.428 -13.538  -0.792  1.00  0.00     0.001 A 
HETATM   24  C   UNL     1      39.817 -14.358  -1.769  1.00  0.00     0.051 A 
HETATM   25  C   UNL     1      41.676 -12.983  -1.074  1.00  0.00     0.043 A 
HETATM   26  C   UNL     1      40.470 -14.589  -2.986  1.00  0.00     0.069 A 
HETATM   27  C   UNL     1      41.712 -14.002  -3.233  1.00  0.00     0.039 A 
HETATM   28  C   UNL     1      42.343 -13.194  -2.283  1.00  0.00     0.033 A 
HETATM   29  N   UNL     1      42.055 -12.253   0.028  1.00  0.00    -0.365 N 
HETATM   30  H   UNL     1      42.927 -11.747   0.109  1.00  0.00     0.165 HD
HETATM   31  C   UNL     1      41.084 -12.311   0.990  1.00  0.00     0.096 A 
BRANCH  26  32
HETATM   32  O   UNL     1      39.990 -15.356  -4.013  1.00  0.00    -0.356 OA
HETATM   33  C   UNL     1      38.597 -15.642  -4.004  1.00  0.00     0.210 C 
ENDBRANCH  26  32
ENDBRANCH  21  22
ENDBRANCH  20  21
ENDBRANCH   1  20
TORSDOF 6
ENDMDL
MODEL 2
REMARK VINA RESULT:      -9.4      1.089      1.684
REMARK  6 active torsions:
REMARK  status: ('A' for Active; 'I' for Inactive)
REMARK    1  A    between atoms: O_2  and  C_3 
REMARK    2  A    between atoms: C_10  and  C_11 
REMARK    3  A    between atoms: C_11  and  C_12 
REMARK    4  A    between atoms: C_12  and  N_13 
REMARK       I    between atoms: N_13  and  C_14 
REMARK    5  A    between atoms: C_14  and  C_15 
REMARK    6  A    between atoms: C_21  and  C_22 
ROOT
HETATM    1  N   UNL     1      39.983 -14.758   3.038  1.00  0.00    -0.357 N 
HETATM    2  C   UNL     1      40.607 -15.985   2.943  1.00  0.00     0.251 C 
HETATM    3  O   UNL     1      40.297 -16.839   2.120  1.00  0.00    -0.268 OA
HETATM    4  H   UNL     1      40.486 -14.002   3.488  1.00  0.00     0.162 HD
ENDROOT
BRANCH   2   5
HETATM    5  C   UNL     1      41.725 -16.248   3.897  1.00  0.00     0.033 A 
HETATM    6  C   UNL     1      42.372 -17.503   3.781  1.00  0.00     0.033 A 
HETATM    7  C   UNL     1      43.353 -17.678   4.757  1.00  0.00     0.033 A 
HETATM    8  C   UNL     1      43.724 -16.721   5.773  1.00  0.00     0.097 A 
HETATM    9  C   UNL     1      44.160 -18.772   4.947  1.00  0.00     0.124 A 
HETATM   10  N   UNL     1      44.715 -17.235   6.518  1.00  0.00    -0.127 NA
HETATM   11  C   UNL     1      43.076 -15.479   5.870  1.00  0.00     0.036 A 
HETATM   12  O   UNL     1      44.981 -18.491   6.007  1.00  0.00    -0.211 OA
HETATM   13  C   UNL     1      42.061 -15.281   4.905  1.00  0.00     0.019 A 
BRANCH   9  14
HETATM   14  C   UNL     1      44.350 -20.091   4.353  1.00  0.00     0.001 A 
HETATM   15  C   UNL     1      44.279 -20.287   2.967  1.00  0.00     0.014 A 
HETATM   16  C   UNL     1      44.468 -21.558   2.410  1.00  0.00     0.001 A 
HETATM   17  C   UNL     1      44.721 -22.651   3.234  1.00  0.00     0.000 A 
HETATM   18  C   UNL     1      44.781 -22.478   4.614  1.00  0.00     0.001 A 
HETATM   19  C   UNL     1      44.597 -21.208   5.168  1.00  0.00     0.014 A 
ENDBRANCH   9  14
ENDBRANCH   2   5
BRANCH   1  20
HETATM   20  C   UNL     1      38.959 -14.376   2.079  1.00  0.00     0.127 C 
BRANCH  20  21
HETATM   21  C   UNL     1      39.423 -13.277   1.121  1.00  0.00     0.060 C 
BRANCH  21  22
HETATM   22  C   UNL     1      40.167 -13.808  -0.067  1.00  0.00    -0.029 A 
HETATM   23  C   UNL     1      39.608 -14.274  -1.302  1.00  0.00     0.001 A 
HETATM   24  C   UNL     1      38.289 -14.401  -1.799  1.00  0.00     0.051 A 
HETATM   25  C   UNL     1      40.669 -14.652  -2.123  1.00  0.00     0.043 A 
HETATM   26  C   UNL     1      38.083 -14.895  -3.092  1.00  0.00     0.069 A 
HETATM   27  C   UNL     1      39.174 -15.248  -3.886  1.00  0.00     0.039 A 
HETATM   28  C   UNL     1      40.486 -15.141  -3.419  1.00  0.00     0.033 A 
HETATM   29  N   UNL     1      41.827 -14.451  -1.410  1.00  0.00    -0.365 N 
HETATM   30  H   UNL     1      42.756 -14.651  -1.756  1.00  0.00     0.165 HD
HETATM   31  C   UNL     1      41.538 -13.941  -0.173  1.00  0.00     0.096 A 
BRANCH  26  32
HETATM   32  O   UNL     1      36.864 -15.065  -3.693  1.00  0.00    -0.356 OA
HETATM   33  C   UNL     1      36.469 -14.073  -4.632  1.00  0.00     0.210 C 
ENDBRANCH  26  32
ENDBRANCH  21  22
ENDBRANCH  20  21
ENDBRANCH   1  20
TORSDOF 6
ENDMDL
MODEL 3
REMARK VINA RESULT:      -9.3      4.803      8.353
REMARK  6 active torsions:
REMARK  status: ('A' for Active; 'I' for Inactive)
REMARK    1  A    between atoms: O_2  and  C_3 
REMARK    2  A    between atoms: C_10  and  C_11 
REMARK    3  A    between atoms: C_11  and  C_12 
REMARK    4  A    between atoms: C_12  and  N_13 
REMARK       I    between atoms: N_13  and  C_14 
REMARK    5  A    between atoms: C_14  and  C_15 
REMARK    6  A    between atoms: C_21  and  C_22 
ROOT
HETATM    1  N   UNL     1      44.344 -12.976   8.234  1.00  0.00    -0.357 N 
HETATM    2  C   UNL     1      44.702 -13.566   7.039  1.00  0.00     0.251 C 
HETATM    3  O   UNL     1      45.861 -13.654   6.649  1.00  0.00    -0.268 OA
HETATM    4  H   UNL     1      43.451 -13.227   8.639  1.00  0.00     0.162 HD
ENDROOT
BRANCH   2   5
HETATM    5  C   UNL     1      43.597 -14.129   6.209  1.00  0.00     0.033 A 
HETATM    6  C   UNL     1      43.792 -15.437   5.702  1.00  0.00     0.033 A 
HETATM    7  C   UNL     1      42.737 -15.846   4.886  1.00  0.00     0.033 A 
HETATM    8  C   UNL     1      41.551 -15.080   4.579  1.00  0.00     0.097 A 
HETATM    9  C   UNL     1      42.603 -17.041   4.224  1.00  0.00     0.124 A 
HETATM   10  N   UNL     1      40.756 -15.805   3.779  1.00  0.00    -0.127 NA
HETATM   11  C   UNL     1      41.372 -13.785   5.095  1.00  0.00     0.036 A 
HETATM   12  O   UNL     1      41.402 -17.007   3.565  1.00  0.00    -0.211 OA
HETATM   13  C   UNL     1      42.437 -13.336   5.911  1.00  0.00     0.019 A 
BRANCH   9  14
HETATM   14  C   UNL     1      43.373 -18.266   4.039  1.00  0.00     0.001 A 
HETATM   15  C   UNL     1      43.578 -18.818   2.767  1.00  0.00     0.014 A 
HETATM   16  C   UNL     1      44.323 -19.992   2.604  1.00  0.00     0.001 A 
HETATM   17  C   UNL     1      44.865 -20.635   3.714  1.00  0.00     0.000 A 
HETATM   18  C   UNL     1      44.660 -20.109   4.987  1.00  0.00     0.001 A 
HETATM   19  C   UNL     1      43.921 -18.934   5.147  1.00  0.00     0.014 A 
ENDBRANCH   9  14
ENDBRANCH   2   5
BRANCH   1  20
HETATM   20  C   UNL     1      45.364 -12.499   9.154  1.00  0.00     0.127 C 
BRANCH  20  21
HETATM   21  C   UNL     1      44.989 -11.172   9.819  1.00  0.00     0.060 C 
BRANCH  21  22
HETATM   22  C   UNL     1      43.685 -11.230  10.553  1.00  0.00    -0.029 A 
HETATM   23  C   UNL     1      42.397 -10.835  10.064  1.00  0.00     0.001 A 
HETATM   24  C   UNL     1      41.933 -10.291   8.843  1.00  0.00     0.051 A 
HETATM   25  C   UNL     1      41.472 -11.084  11.076  1.00  0.00     0.043 A 
HETATM   26  C   UNL     1      40.569 -10.021   8.680  1.00  0.00     0.069 A 
HETATM   27  C   UNL     1      39.675 -10.301   9.713  1.00  0.00     0.039 A 
HETATM   28  C   UNL     1      40.106 -10.830  10.933  1.00  0.00     0.033 A 
HETATM   29  N   UNL     1      42.168 -11.587  12.149  1.00  0.00    -0.365 N 
HETATM   30  H   UNL     1      41.752 -11.850  13.032  1.00  0.00     0.165 HD
HETATM   31  C   UNL     1      43.500 -11.683  11.846  1.00  0.00     0.096 A 
BRANCH  26  32
HETATM   32  O   UNL     1      39.991  -9.500   7.553  1.00  0.00    -0.356 OA
HETATM   33  C   UNL     1      39.781 -10.394   6.467  1.00  0.00     0.210 C 
ENDBRANCH  26  32
ENDBRANCH  21  22
ENDBRANCH  20  21
ENDBRANCH   1  20
TORSDOF 6
ENDMDL
MODEL 4
REMARK VINA RESULT:      -9.3      1.773      2.131
REMARK  6 active torsions:
REMARK  status: ('A' for Active; 'I' for Inactive)
REMARK    1  A    between atoms: O_2  and  C_3 
REMARK    2  A    between atoms: C_10  and  C_11 
REMARK    3  A    between atoms: C_11  and  C_12 
REMARK    4  A    between atoms: C_12  and  N_13 
REMARK       I    between atoms: N_13  and  C_14 
REMARK    5  A    between atoms: C_14  and  C_15 
REMARK    6  A    between atoms: C_21  and  C_22 
ROOT
HETATM    1  N   UNL     1      41.214 -14.389   3.515  1.00  0.00    -0.357 N 
HETATM    2  C   UNL     1      42.592 -14.386   3.578  1.00  0.00     0.251 C 
HETATM    3  O   UNL     1      43.298 -13.649   2.899  1.00  0.00    -0.268 OA
HETATM    4  H   UNL     1      40.702 -14.758   4.307  1.00  0.00     0.162 HD
ENDROOT
BRANCH   2   5
HETATM    5  C   UNL     1      43.223 -15.332   4.545  1.00  0.00     0.033 A 
HETATM    6  C   UNL     1      43.444 -16.653   4.083  1.00  0.00     0.033 A 
HETATM    7  C   UNL     1      43.974 -17.474   5.078  1.00  0.00     0.033 A 
HETATM    8  C   UNL     1      44.301 -17.075   6.428  1.00  0.00     0.097 A 
HETATM    9  C   UNL     1      44.297 -18.805   4.983  1.00  0.00     0.124 A 
HETATM   10  N   UNL     1      44.803 -18.129   7.087  1.00  0.00    -0.127 NA
HETATM   11  C   UNL     1      44.080 -15.759   6.867  1.00  0.00     0.036 A 
HETATM   12  O   UNL     1      44.802 -19.187   6.198  1.00  0.00    -0.211 OA
HETATM   13  C   UNL     1      43.524 -14.908   5.884  1.00  0.00     0.019 A 
BRANCH   9  14
HETATM   14  C   UNL     1      44.233 -19.863   3.981  1.00  0.00     0.001 A 
HETATM   15  C   UNL     1      44.728 -21.149   4.241  1.00  0.00     0.014 A 
HETATM   16  C   UNL     1      44.655 -22.156   3.272  1.00  0.00     0.001 A 
HETATM   17  C   UNL     1      44.095 -21.888   2.026  1.00  0.00     0.000 A 
HETATM   18  C   UNL     1      43.611 -20.613   1.744  1.00  0.00     0.001 A 
HETATM   19  C   UNL     1      43.679 -19.610   2.715  1.00  0.00     0.014 A 
ENDBRANCH   9  14
ENDBRANCH   2   5
BRANCH   1  20
HETATM   20  C   UNL     1      40.512 -13.425   2.681  1.00  0.00     0.127 C 
BRANCH  20  21
HETATM   21  C   UNL     1      39.524 -14.084   1.716  1.00  0.00     0.060 C 
BRANCH  21  22
HETATM   22  C   UNL     1      40.194 -14.747   0.551  1.00  0.00    -0.029 A 
HETATM   23  C   UNL     1      40.136 -14.347  -0.824  1.00  0.00     0.001 A 
HETATM   24  C   UNL     1      39.486 -13.299  -1.517  1.00  0.00     0.051 A 
HETATM   25  C   UNL     1      40.924 -15.238  -1.551  1.00  0.00     0.043 A 
HETATM   26  C   UNL     1      39.650 -13.179  -2.902  1.00  0.00     0.069 A 
HETATM   27  C   UNL     1      40.461 -14.083  -3.589  1.00  0.00     0.039 A 
HETATM   28  C   UNL     1      41.108 -15.133  -2.932  1.00  0.00     0.033 A 
HETATM   29  N   UNL     1      41.423 -16.160  -0.661  1.00  0.00    -0.365 N 
HETATM   30  H   UNL     1      42.022 -16.934  -0.912  1.00  0.00     0.165 HD
HETATM   31  C   UNL     1      40.993 -15.873   0.606  1.00  0.00     0.096 A 
BRANCH  26  32
HETATM   32  O   UNL     1      39.082 -12.213  -3.690  1.00  0.00    -0.356 OA
HETATM   33  C   UNL     1      37.761 -11.808  -3.356  1.00  0.00     0.210 C 
ENDBRANCH  26  32
ENDBRANCH  21  22
ENDBRANCH  20  21
ENDBRANCH   1  20
TORSDOF 6
ENDMDL
MODEL 5
REMARK VINA RESULT:      -9.2      5.603      9.595
REMARK  6 active torsions:
REMARK  status: ('A' for Active; 'I' for Inactive)
REMARK    1  A    between atoms: O_2  and  C_3 
REMARK    2  A    between atoms: C_10  and  C_11 
REMARK    3  A    between atoms: C_11  and  C_12 
REMARK    4  A    between atoms: C_12  and  N_13 
REMARK       I    between atoms: N_13  and  C_14 
REMARK    5  A    between atoms: C_14  and  C_15 
REMARK    6  A    between atoms: C_21  and  C_22 
ROOT
HETATM    1  N   UNL     1      44.272 -13.101   8.295  1.00  0.00    -0.357 N 
HETATM    2  C   UNL     1      44.690 -13.657   7.103  1.00  0.00     0.251 C 
HETATM    3  O   UNL     1      45.857 -13.651   6.727  1.00  0.00    -0.268 OA
HETATM    4  H   UNL     1      43.397 -13.424   8.689  1.00  0.00     0.162 HD
ENDROOT
BRANCH   2   5
HETATM    5  C   UNL     1      43.644 -14.304   6.258  1.00  0.00     0.033 A 
HETATM    6  C   UNL     1      43.839 -15.673   5.950  1.00  0.00     0.033 A 
HETATM    7  C   UNL     1      42.846 -16.166   5.104  1.00  0.00     0.033 A 
HETATM    8  C   UNL     1      41.718 -15.424   4.590  1.00  0.00     0.097 A 
HETATM    9  C   UNL     1      42.731 -17.437   4.597  1.00  0.00     0.124 A 
HETATM   10  N   UNL     1      40.972 -16.234   3.825  1.00  0.00    -0.127 NA
HETATM   11  C   UNL     1      41.537 -14.068   4.911  1.00  0.00     0.036 A 
HETATM   12  O   UNL     1      41.594 -17.467   3.833  1.00  0.00    -0.211 OA
HETATM   13  C   UNL     1      42.541 -13.535   5.753  1.00  0.00     0.019 A 
BRANCH   9  14
HETATM   14  C   UNL     1      43.473 -18.692   4.648  1.00  0.00     0.001 A 
HETATM   15  C   UNL     1      43.636 -19.399   5.848  1.00  0.00     0.014 A 
HETATM   16  C   UNL     1      44.346 -20.604   5.881  1.00  0.00     0.001 A 
HETATM   17  C   UNL     1      44.913 -21.114   4.716  1.00  0.00     0.000 A 
HETATM   18  C   UNL     1      44.774 -20.419   3.518  1.00  0.00     0.001 A 
HETATM   19  C   UNL     1      44.059 -19.218   3.485  1.00  0.00     0.014 A 
ENDBRANCH   9  14
ENDBRANCH   2   5
BRANCH   1  20
HETATM   20  C   UNL     1      45.240 -12.547   9.229  1.00  0.00     0.127 C 
BRANCH  20  21
HETATM   21  C   UNL     1      44.941 -11.092   9.598  1.00  0.00     0.060 C 
BRANCH  21  22
HETATM   22  C   UNL     1      43.480 -10.823   9.792  1.00  0.00    -0.029 A 
HETATM   23  C   UNL     1      42.786 -10.665  11.036  1.00  0.00     0.001 A 
HETATM   24  C   UNL     1      43.179 -10.711  12.394  1.00  0.00     0.051 A 
HETATM   25  C   UNL     1      41.449 -10.408  10.737  1.00  0.00     0.043 A 
HETATM   26  C   UNL     1      42.226 -10.496  13.397  1.00  0.00     0.069 A 
HETATM   27  C   UNL     1      40.900 -10.226  13.054  1.00  0.00     0.039 A 
HETATM   28  C   UNL     1      40.483 -10.183  11.721  1.00  0.00     0.033 A 
HETATM   29  N   UNL     1      41.325 -10.433   9.368  1.00  0.00    -0.365 N 
HETATM   30  H   UNL     1      40.459 -10.288   8.867  1.00  0.00     0.165 HD
HETATM   31  C   UNL     1      42.541 -10.679   8.789  1.00  0.00     0.096 A 
BRANCH  26  32
HETATM   32  O   UNL     1      42.471 -10.510  14.744  1.00  0.00    -0.356 OA
HETATM   33  C   UNL     1      41.845  -9.497  15.521  1.00  0.00     0.210 C 
ENDBRANCH  26  32
ENDBRANCH  21  22
ENDBRANCH  20  21
ENDBRANCH   1  20
TORSDOF 6
ENDMDL
MODEL 6
REMARK VINA RESULT:      -8.9      4.781      8.380
REMARK  6 active torsions:
REMARK  status: ('A' for Active; 'I' for Inactive)
REMARK    1  A    between atoms: O_2  and  C_3 
REMARK    2  A    between atoms: C_10  and  C_11 
REMARK    3  A    between atoms: C_11  and  C_12 
REMARK    4  A    between atoms: C_12  and  N_13 
REMARK       I    between atoms: N_13  and  C_14 
REMARK    5  A    between atoms: C_14  and  C_15 
REMARK    6  A    between atoms: C_21  and  C_22 
ROOT
HETATM    1  N   UNL     1      39.934 -12.590   6.971  1.00  0.00    -0.357 N 
HETATM    2  C   UNL     1      39.371 -12.621   5.712  1.00  0.00     0.251 C 
HETATM    3  O   UNL     1      38.555 -11.796   5.316  1.00  0.00    -0.268 OA
HETATM    4  H   UNL     1      40.813 -13.074   7.111  1.00  0.00     0.162 HD
ENDROOT
BRANCH   2   5
HETATM    5  C   UNL     1      39.812 -13.721   4.804  1.00  0.00     0.033 A 
HETATM    6  C   UNL     1      40.711 -14.669   5.352  1.00  0.00     0.033 A 
HETATM    7  C   UNL     1      41.114 -15.614   4.409  1.00  0.00     0.033 A 
HETATM    8  C   UNL     1      40.681 -15.683   3.032  1.00  0.00     0.097 A 
HETATM    9  C   UNL     1      41.983 -16.661   4.589  1.00  0.00     0.124 A 
HETATM   10  N   UNL     1      41.267 -16.734   2.440  1.00  0.00    -0.127 NA
HETATM   11  C   UNL     1      39.783 -14.737   2.508  1.00  0.00     0.036 A 
HETATM   12  O   UNL     1      42.062 -17.333   3.398  1.00  0.00    -0.211 OA
HETATM   13  C   UNL     1      39.373 -13.753   3.437  1.00  0.00     0.019 A 
BRANCH   9  14
HETATM   14  C   UNL     1      42.810 -17.207   5.661  1.00  0.00     0.001 A 
HETATM   15  C   UNL     1      43.988 -17.915   5.388  1.00  0.00     0.014 A 
HETATM   16  C   UNL     1      44.774 -18.429   6.427  1.00  0.00     0.001 A 
HETATM   17  C   UNL     1      44.386 -18.249   7.751  1.00  0.00     0.000 A 
HETATM   18  C   UNL     1      43.211 -17.560   8.041  1.00  0.00     0.001 A 
HETATM   19  C   UNL     1      42.431 -17.043   7.004  1.00  0.00     0.014 A 
ENDBRANCH   9  14
ENDBRANCH   2   5
BRANCH   1  20
HETATM   20  C   UNL     1      39.644 -11.492   7.881  1.00  0.00     0.127 C 
BRANCH  20  21
HETATM   21  C   UNL     1      40.642 -10.339   7.754  1.00  0.00     0.060 C 
BRANCH  21  22
HETATM   22  C   UNL     1      41.398 -10.074   9.021  1.00  0.00    -0.029 A 
HETATM   23  C   UNL     1      42.659 -10.632   9.410  1.00  0.00     0.001 A 
HETATM   24  C   UNL     1      43.555 -11.550   8.813  1.00  0.00     0.051 A 
HETATM   25  C   UNL     1      42.990 -10.088  10.651  1.00  0.00     0.043 A 
HETATM   26  C   UNL     1      44.743 -11.885   9.473  1.00  0.00     0.069 A 
HETATM   27  C   UNL     1      45.043 -11.305  10.706  1.00  0.00     0.039 A 
HETATM   28  C   UNL     1      44.173 -10.402  11.323  1.00  0.00     0.033 A 
HETATM   29  N   UNL     1      41.961  -9.252  11.016  1.00  0.00    -0.365 N 
HETATM   30  H   UNL     1      41.927  -8.728  11.880  1.00  0.00     0.165 HD
HETATM   31  C   UNL     1      41.000  -9.233  10.043  1.00  0.00     0.096 A 
BRANCH  26  32
HETATM   32  O   UNL     1      45.694 -12.753   9.007  1.00  0.00    -0.356 OA
HETATM   33  C   UNL     1      45.528 -13.234   7.679  1.00  0.00     0.210 C 
ENDBRANCH  26  32
ENDBRANCH  21  22
ENDBRANCH  20  21
ENDBRANCH   1  20
TORSDOF 6
ENDMDL
MODEL 7
REMARK VINA RESULT:      -8.8      2.273      3.016
REMARK  6 active torsions:
REMARK  status: ('A' for Active; 'I' for Inactive)
REMARK    1  A    between atoms: O_2  and  C_3 
REMARK    2  A    between atoms: C_10  and  C_11 
REMARK    3  A    between atoms: C_11  and  C_12 
REMARK    4  A    between atoms: C_12  and  N_13 
REMARK       I    between atoms: N_13  and  C_14 
REMARK    5  A    between atoms: C_14  and  C_15 
REMARK    6  A    between atoms: C_21  and  C_22 
ROOT
HETATM    1  N   UNL     1      40.920 -15.019   3.473  1.00  0.00    -0.357 N 
HETATM    2  C   UNL     1      41.016 -15.196   4.838  1.00  0.00     0.251 C 
HETATM    3  O   UNL     1      40.151 -14.836   5.629  1.00  0.00    -0.268 OA
HETATM    4  H   UNL     1      41.480 -15.614   2.875  1.00  0.00     0.162 HD
ENDROOT
BRANCH   2   5
HETATM    5  C   UNL     1      42.244 -15.879   5.343  1.00  0.00     0.033 A 
HETATM    6  C   UNL     1      42.638 -17.055   4.660  1.00  0.00     0.033 A 
HETATM    7  C   UNL     1      43.753 -17.654   5.247  1.00  0.00     0.033 A 
HETATM    8  C   UNL     1      44.474 -17.165   6.400  1.00  0.00     0.097 A 
HETATM    9  C   UNL     1      44.390 -18.805   4.856  1.00  0.00     0.124 A 
HETATM   10  N   UNL     1      45.495 -17.994   6.662  1.00  0.00    -0.127 NA
HETATM   11  C   UNL     1      44.072 -15.993   7.062  1.00  0.00     0.036 A 
HETATM   12  O   UNL     1      45.443 -18.996   5.712  1.00  0.00    -0.211 OA
HETATM   13  C   UNL     1      42.930 -15.375   6.500  1.00  0.00     0.019 A 
BRANCH   9  14
HETATM   14  C   UNL     1      44.237 -19.829   3.829  1.00  0.00     0.001 A 
HETATM   15  C   UNL     1      43.627 -19.547   2.598  1.00  0.00     0.014 A 
HETATM   16  C   UNL     1      43.491 -20.539   1.620  1.00  0.00     0.001 A 
HETATM   17  C   UNL     1      43.955 -21.829   1.863  1.00  0.00     0.000 A 
HETATM   18  C   UNL     1      44.551 -22.131   3.084  1.00  0.00     0.001 A 
HETATM   19  C   UNL     1      44.691 -21.139   4.058  1.00  0.00     0.014 A 
ENDBRANCH   9  14
ENDBRANCH   2   5
BRANCH   1  20
HETATM   20  C   UNL     1      39.712 -14.461   2.886  1.00  0.00     0.127 C 
BRANCH  20  21
HETATM   21  C   UNL     1      39.375 -15.076   1.526  1.00  0.00     0.060 C 
BRANCH  21  22
HETATM   22  C   UNL     1      39.069 -14.051   0.477  1.00  0.00    -0.029 A 
HETATM   23  C   UNL     1      39.962 -13.069  -0.061  1.00  0.00     0.001 A 
HETATM   24  C   UNL     1      41.315 -12.731   0.182  1.00  0.00     0.051 A 
HETATM   25  C   UNL     1      39.258 -12.347  -1.024  1.00  0.00     0.043 A 
HETATM   26  C   UNL     1      41.910 -11.693  -0.546  1.00  0.00     0.069 A 
HETATM   27  C   UNL     1      41.173 -11.007  -1.512  1.00  0.00     0.039 A 
HETATM   28  C   UNL     1      39.833 -11.313  -1.766  1.00  0.00     0.033 A 
HETATM   29  N   UNL     1      37.979 -12.851  -1.055  1.00  0.00    -0.365 N 
HETATM   30  H   UNL     1      37.242 -12.510  -1.657  1.00  0.00     0.165 HD
HETATM   31  C   UNL     1      37.854 -13.878  -0.159  1.00  0.00     0.096 A 
BRANCH  26  32
HETATM   32  O   UNL     1      43.205 -11.269  -0.412  1.00  0.00    -0.356 OA
HETATM   33  C   UNL     1      43.595 -10.146  -1.192  1.00  0.00     0.210 C 
ENDBRANCH  26  32
ENDBRANCH  21  22
ENDBRANCH  20  21
ENDBRANCH   1  20
TORSDOF 6
ENDMDL
MODEL 8
REMARK VINA RESULT:      -8.7      4.649      8.045
REMARK  6 active torsions:
REMARK  status: ('A' for Active; 'I' for Inactive)
REMARK    1  A    between atoms: O_2  and  C_3 
REMARK    2  A    between atoms: C_10  and  C_11 
REMARK    3  A    between atoms: C_11  and  C_12 
REMARK    4  A    between atoms: C_12  and  N_13 
REMARK       I    between atoms: N_13  and  C_14 
REMARK    5  A    between atoms: C_14  and  C_15 
REMARK    6  A    between atoms: C_21  and  C_22 
ROOT
HETATM    1  N   UNL     1      39.695 -13.180   5.267  1.00  0.00    -0.357 N 
HETATM    2  C   UNL     1      40.135 -14.485   5.193  1.00  0.00     0.251 C 
HETATM    3  O   UNL     1      40.253 -15.216   6.170  1.00  0.00    -0.268 OA
HETATM    4  H   UNL     1      39.311 -12.759   4.430  1.00  0.00     0.162 HD
ENDROOT
BRANCH   2   5
HETATM    5  C   UNL     1      40.463 -15.009   3.834  1.00  0.00     0.033 A 
HETATM    6  C   UNL     1      41.318 -16.137   3.781  1.00  0.00     0.033 A 
HETATM    7  C   UNL     1      41.617 -16.506   2.470  1.00  0.00     0.033 A 
HETATM    8  C   UNL     1      41.125 -15.868   1.271  1.00  0.00     0.097 A 
HETATM    9  C   UNL     1      42.420 -17.538   2.052  1.00  0.00     0.124 A 
HETATM   10  N   UNL     1      41.614 -16.510   0.200  1.00  0.00    -0.127 NA
HETATM   11  C   UNL     1      40.272 -14.753   1.342  1.00  0.00     0.036 A 
HETATM   12  O   UNL     1      42.405 -17.535   0.682  1.00  0.00    -0.211 OA
HETATM   13  C   UNL     1      39.968 -14.343   2.661  1.00  0.00     0.019 A 
BRANCH   9  14
HETATM   14  C   UNL     1      43.252 -18.574   2.657  1.00  0.00     0.001 A 
HETATM   15  C   UNL     1      43.794 -18.421   3.941  1.00  0.00     0.014 A 
HETATM   16  C   UNL     1      44.586 -19.424   4.510  1.00  0.00     0.001 A 
HETATM   17  C   UNL     1      44.854 -20.591   3.800  1.00  0.00     0.000 A 
HETATM   18  C   UNL     1      44.335 -20.755   2.518  1.00  0.00     0.001 A 
HETATM   19  C   UNL     1      43.540 -19.754   1.953  1.00  0.00     0.014 A 
ENDBRANCH   9  14
ENDBRANCH   2   5
BRANCH   1  20
HETATM   20  C   UNL     1      39.251 -12.624   6.536  1.00  0.00     0.127 C 
BRANCH  20  21
HETATM   21  C   UNL     1      39.845 -11.242   6.819  1.00  0.00     0.060 C 
BRANCH  21  22
HETATM   22  C   UNL     1      39.975 -10.946   8.281  1.00  0.00    -0.029 A 
HETATM   23  C   UNL     1      41.187 -10.761   9.024  1.00  0.00     0.001 A 
HETATM   24  C   UNL     1      42.561 -10.797   8.688  1.00  0.00     0.051 A 
HETATM   25  C   UNL     1      40.830 -10.486  10.343  1.00  0.00     0.043 A 
HETATM   26  C   UNL     1      43.521 -10.554   9.678  1.00  0.00     0.069 A 
HETATM   27  C   UNL     1      43.120 -10.267  10.983  1.00  0.00     0.039 A 
HETATM   28  C   UNL     1      41.770 -10.233  11.344  1.00  0.00     0.033 A 
HETATM   29  N   UNL     1      39.458 -10.526  10.410  1.00  0.00    -0.365 N 
HETATM   30  H   UNL     1      38.919 -10.373  11.252  1.00  0.00     0.165 HD
HETATM   31  C   UNL     1      38.932 -10.799   9.176  1.00  0.00     0.096 A 
BRANCH  26  32
HETATM   32  O   UNL     1      44.877 -10.555   9.488  1.00  0.00    -0.356 OA
HETATM   33  C   UNL     1      45.494 -11.820   9.280  1.00  0.00     0.210 C 
ENDBRANCH  26  32
ENDBRANCH  21  22
ENDBRANCH  20  21
ENDBRANCH   1  20
TORSDOF 6
ENDMDL
MODEL 9
REMARK VINA RESULT:      -8.7      1.954      2.840
REMARK  6 active torsions:
REMARK  status: ('A' for Active; 'I' for Inactive)
REMARK    1  A    between atoms: O_2  and  C_3 
REMARK    2  A    between atoms: C_10  and  C_11 
REMARK    3  A    between atoms: C_11  and  C_12 
REMARK    4  A    between atoms: C_12  and  N_13 
REMARK       I    between atoms: N_13  and  C_14 
REMARK    5  A    between atoms: C_14  and  C_15 
REMARK    6  A    between atoms: C_21  and  C_22 
ROOT
HETATM    1  N   UNL     1      42.984 -14.950   3.876  1.00  0.00    -0.357 N 
HETATM    2  C   UNL     1      43.489 -14.870   5.158  1.00  0.00     0.251 C 
HETATM    3  O   UNL     1      43.827 -13.817   5.687  1.00  0.00    -0.268 OA
HETATM    4  H   UNL     1      42.431 -15.763   3.633  1.00  0.00     0.162 HD
ENDROOT
BRANCH   2   5
HETATM    5  C   UNL     1      43.605 -16.150   5.917  1.00  0.00     0.033 A 
HETATM    6  C   UNL     1      43.789 -17.325   5.148  1.00  0.00     0.033 A 
HETATM    7  C   UNL     1      43.817 -18.472   5.942  1.00  0.00     0.033 A 
HETATM    8  C   UNL     1      43.702 -18.514   7.382  1.00  0.00     0.097 A 
HETATM    9  C   UNL     1      43.966 -19.773   5.532  1.00  0.00     0.124 A 
HETATM   10  N   UNL     1      43.790 -19.788   7.792  1.00  0.00    -0.127 NA
HETATM   11  C   UNL     1      43.525 -17.337   8.129  1.00  0.00     0.036 A 
HETATM   12  O   UNL     1      43.955 -20.557   6.655  1.00  0.00    -0.211 OA
HETATM   13  C   UNL     1      43.472 -16.160   7.347  1.00  0.00     0.019 A 
BRANCH   9  14
HETATM   14  C   UNL     1      44.112 -20.499   4.275  1.00  0.00     0.001 A 
HETATM   15  C   UNL     1      44.620 -21.805   4.238  1.00  0.00     0.014 A 
HETATM   16  C   UNL     1      44.750 -22.492   3.025  1.00  0.00     0.001 A 
HETATM   17  C   UNL     1      44.383 -21.877   1.831  1.00  0.00     0.000 A 
HETATM   18  C   UNL     1      43.890 -20.575   1.846  1.00  0.00     0.001 A 
HETATM   19  C   UNL     1      43.756 -19.893   3.059  1.00  0.00     0.014 A 
ENDBRANCH   9  14
ENDBRANCH   2   5
BRANCH   1  20
HETATM   20  C   UNL     1      42.736 -13.742   3.106  1.00  0.00     0.127 C 
BRANCH  20  21
HETATM   21  C   UNL     1      42.291 -14.034   1.671  1.00  0.00     0.060 C 
BRANCH  21  22
HETATM   22  C   UNL     1      40.829 -13.793   1.448  1.00  0.00    -0.029 A 
HETATM   23  C   UNL     1      40.110 -13.907   0.214  1.00  0.00     0.001 A 
HETATM   24  C   UNL     1      40.477 -14.244  -1.111  1.00  0.00     0.051 A 
HETATM   25  C   UNL     1      38.774 -13.613   0.480  1.00  0.00     0.043 A 
HETATM   26  C   UNL     1      39.500 -14.275  -2.112  1.00  0.00     0.069 A 
HETATM   27  C   UNL     1      38.171 -13.989  -1.799  1.00  0.00     0.039 A 
HETATM   28  C   UNL     1      37.781 -13.646  -0.501  1.00  0.00     0.033 A 
HETATM   29  N   UNL     1      38.684 -13.305   1.818  1.00  0.00    -0.365 N 
HETATM   30  H   UNL     1      37.830 -13.041   2.290  1.00  0.00     0.165 HD
HETATM   31  C   UNL     1      39.913 -13.413   2.411  1.00  0.00     0.096 A 
BRANCH  26  32
HETATM   32  O   UNL     1      39.718 -14.587  -3.428  1.00  0.00    -0.356 OA
HETATM   33  C   UNL     1      39.384 -15.907  -3.838  1.00  0.00     0.210 C 
ENDBRANCH  26  32
ENDBRANCH  21  22
ENDBRANCH  20  21
ENDBRANCH   1  20
TORSDOF 6
ENDMDL
MODEL 10
REMARK VINA RESULT:      -8.6      2.331      3.222
REMARK  6 active torsions:
REMARK  status: ('A' for Active; 'I' for Inactive)
REMARK    1  A    between atoms: O_2  and  C_3 
REMARK    2  A    between atoms: C_10  and  C_11 
REMARK    3  A    between atoms: C_11  and  C_12 
REMARK    4  A    between atoms: C_12  and  N_13 
REMARK       I    between atoms: N_13  and  C_14 
REMARK    5  A    between atoms: C_14  and  C_15 
REMARK    6  A    between atoms: C_21  and  C_22 
ROOT
HETATM    1  N   UNL     1      42.299 -15.002   1.970  1.00  0.00    -0.357 N 
HETATM    2  C   UNL     1      42.598 -14.415   3.182  1.00  0.00     0.251 C 
HETATM    3  O   UNL     1      42.391 -13.232   3.430  1.00  0.00    -0.268 OA
HETATM    4  H   UNL     1      42.182 -16.008   1.944  1.00  0.00     0.162 HD
ENDROOT
BRANCH   2   5
HETATM    5  C   UNL     1      43.190 -15.298   4.230  1.00  0.00     0.033 A 
HETATM    6  C   UNL     1      43.428 -16.644   3.860  1.00  0.00     0.033 A 
HETATM    7  C   UNL     1      43.917 -17.401   4.924  1.00  0.00     0.033 A 
HETATM    8  C   UNL     1      44.191 -16.919   6.258  1.00  0.00     0.097 A 
HETATM    9  C   UNL     1      44.243 -18.735   4.925  1.00  0.00     0.124 A 
HETATM   10  N   UNL     1      44.666 -17.929   7.001  1.00  0.00    -0.127 NA
HETATM   11  C   UNL     1      43.954 -15.578   6.606  1.00  0.00     0.036 A 
HETATM   12  O   UNL     1      44.699 -19.040   6.181  1.00  0.00    -0.211 OA
HETATM   13  C   UNL     1      43.438 -14.790   5.551  1.00  0.00     0.019 A 
BRANCH   9  14
HETATM   14  C   UNL     1      44.217 -19.854   3.989  1.00  0.00     0.001 A 
HETATM   15  C   UNL     1      44.756 -21.103   4.326  1.00  0.00     0.014 A 
HETATM   16  C   UNL     1      44.720 -22.169   3.420  1.00  0.00     0.001 A 
HETATM   17  C   UNL     1      44.153 -21.997   2.160  1.00  0.00     0.000 A 
HETATM   18  C   UNL     1      43.626 -20.759   1.802  1.00  0.00     0.001 A 
HETATM   19  C   UNL     1      43.657 -19.697   2.710  1.00  0.00     0.014 A 
ENDBRANCH   9  14
ENDBRANCH   2   5
BRANCH   1  20
HETATM   20  C   UNL     1      41.621 -14.243   0.931  1.00  0.00     0.127 C 
BRANCH  20  21
HETATM   21  C   UNL     1      41.395 -15.055  -0.346  1.00  0.00     0.060 C 
BRANCH  21  22
HETATM   22  C   UNL     1      41.301 -14.205  -1.575  1.00  0.00    -0.029 A 
HETATM   23  C   UNL     1      41.914 -12.929  -1.795  1.00  0.00     0.001 A 
HETATM   24  C   UNL     1      42.738 -12.085  -1.012  1.00  0.00     0.051 A 
HETATM   25  C   UNL     1      41.574 -12.519  -3.083  1.00  0.00     0.043 A 
HETATM   26  C   UNL     1      43.190 -10.872  -1.545  1.00  0.00     0.069 A 
HETATM   27  C   UNL     1      42.839 -10.507  -2.845  1.00  0.00     0.039 A 
HETATM   28  C   UNL     1      42.020 -11.317  -3.638  1.00  0.00     0.033 A 
HETATM   29  N   UNL     1      40.765 -13.492  -3.620  1.00  0.00    -0.365 N 
HETATM   30  H   UNL     1      40.358 -13.455  -4.545  1.00  0.00     0.165 HD
HETATM   31  C   UNL     1      40.595 -14.512  -2.724  1.00  0.00     0.096 A 
BRANCH  26  32
HETATM   32  O   UNL     1      43.991  -9.969  -0.899  1.00  0.00    -0.356 OA
HETATM   33  C   UNL     1      43.564  -8.612  -0.907  1.00  0.00     0.210 C 
ENDBRANCH  26  32
ENDBRANCH  21  22
ENDBRANCH  20  21
ENDBRANCH   1  20
TORSDOF 6
ENDMDL
