MODEL 1
REMARK VINA RESULT:      -8.9      0.000      0.000
REMARK  3 active torsions:
REMARK  status: ('A' for Active; 'I' for Inactive)
REMARK    1  A    between atoms: C_3  and  C_4 
REMARK       I    between atoms: C_4  and  N_5 
REMARK    2  A    between atoms: N_5  and  C_6 
REMARK    3  A    between atoms: C_13  and  C_14 
REMARK       I    between atoms: C_14  and  N_15 
ROOT
HETATM    1  C   UNL     1      42.072 -15.586   1.436  1.00  0.00     0.035 A 
HETATM    2  C   UNL     1      41.695 -15.697   0.090  1.00  0.00     0.046 A 
HETATM    3  C   UNL     1      40.787 -14.765  -0.457  1.00  0.00     0.030 A 
HETATM    4  C   UNL     1      40.275 -13.767   0.362  1.00  0.00     0.063 A 
HETATM    5  N   UNL     1      39.437 -13.039  -0.435  1.00  0.00    -0.277 N 
HETATM    6  H   UNL     1      38.885 -12.231  -0.170  1.00  0.00     0.189 HD
HETATM    7  N   UNL     1      39.370 -13.464  -1.708  1.00  0.00    -0.168 NA
HETATM    8  C   UNL     1      40.203 -14.529  -1.738  1.00  0.00     0.156 A 
HETATM    9  C   UNL     1      40.622 -13.631   1.708  1.00  0.00     0.034 A 
HETATM   10  C   UNL     1      41.538 -14.557   2.222  1.00  0.00     0.032 A 
ENDROOT
BRANCH   1  11
HETATM   11  N   UNL     1      43.007 -16.439   2.052  1.00  0.00    -0.325 N 
HETATM   12  C   UNL     1      42.873 -17.129   3.243  1.00  0.00     0.252 C 
HETATM   13  O   UNL     1      41.946 -17.035   4.043  1.00  0.00    -0.270 OA
HETATM   14  H   UNL     1      43.907 -16.552   1.596  1.00  0.00     0.169 HD
BRANCH  12  15
HETATM   15  C   UNL     1      44.001 -18.141   3.473  1.00  0.00     0.229 C 
HETATM   16  C   UNL     1      43.881 -18.716   4.898  1.00  0.00     0.056 C 
HETATM   17  C   UNL     1      44.771 -17.993   5.898  1.00  0.00     0.018 C 
HETATM   18  C   UNL     1      44.265 -20.124   4.620  1.00  0.00    -0.018 A 
HETATM   19  C   UNL     1      44.244 -20.343   3.251  1.00  0.00     0.076 A 
HETATM   20  C   UNL     1      44.544 -21.159   5.496  1.00  0.00     0.010 A 
HETATM   21  O   UNL     1      43.921 -19.233   2.516  1.00  0.00    -0.335 OA
HETATM   22  C   UNL     1      44.502 -21.583   2.705  1.00  0.00     0.037 A 
HETATM   23  C   UNL     1      44.799 -22.633   3.576  1.00  0.00     0.003 A 
HETATM   24  C   UNL     1      44.820 -22.422   4.964  1.00  0.00     0.001 A 
ENDBRANCH  12  15
ENDBRANCH   1  11
BRANCH   8  25
HETATM   25  C   UNL     1      40.430 -15.283  -2.979  1.00  0.00     0.270 C 
HETATM   26  N   UNL     1      39.697 -16.433  -3.076  1.00  0.00    -0.365 N 
HETATM   27  H   UNL     1      39.064 -16.670  -2.321  1.00  0.00     0.159 HD
HETATM   28  H   UNL     1      39.773 -17.006  -3.902  1.00  0.00     0.159 HD
HETATM   29  O   UNL     1      41.193 -14.940  -3.876  1.00  0.00    -0.266 OA
ENDBRANCH   8  25
TORSDOF 3
ENDMDL
MODEL 2
REMARK VINA RESULT:      -8.9      3.319      5.087
REMARK  3 active torsions:
REMARK  status: ('A' for Active; 'I' for Inactive)
REMARK    1  A    between atoms: C_3  and  C_4 
REMARK       I    between atoms: C_4  and  N_5 
REMARK    2  A    between atoms: N_5  and  C_6 
REMARK    3  A    between atoms: C_13  and  C_14 
REMARK       I    between atoms: C_14  and  N_15 
ROOT
HETATM    1  C   UNL     1      41.484 -14.579   3.811  1.00  0.00     0.035 A 
HETATM    2  C   UNL     1      41.161 -13.849   4.963  1.00  0.00     0.046 A 
HETATM    3  C   UNL     1      40.115 -12.901   4.916  1.00  0.00     0.030 A 
HETATM    4  C   UNL     1      39.441 -12.705   3.717  1.00  0.00     0.063 A 
HETATM    5  N   UNL     1      38.508 -11.742   3.980  1.00  0.00    -0.277 N 
HETATM    6  H   UNL     1      37.836 -11.345   3.332  1.00  0.00     0.189 HD
HETATM    7  N   UNL     1      38.501 -11.305   5.250  1.00  0.00    -0.168 NA
HETATM    8  C   UNL     1      39.488 -12.015   5.843  1.00  0.00     0.156 A 
HETATM    9  C   UNL     1      39.742 -13.409   2.549  1.00  0.00     0.034 A 
HETATM   10  C   UNL     1      40.771 -14.356   2.626  1.00  0.00     0.032 A 
ENDROOT
BRANCH   1  11
HETATM   11  N   UNL     1      42.477 -15.576   3.778  1.00  0.00    -0.325 N 
HETATM   12  C   UNL     1      42.500 -16.778   4.463  1.00  0.00     0.252 C 
HETATM   13  O   UNL     1      41.699 -17.149   5.316  1.00  0.00    -0.270 OA
HETATM   14  H   UNL     1      43.300 -15.395   3.212  1.00  0.00     0.169 HD
BRANCH  12  15
HETATM   15  C   UNL     1      43.625 -17.706   3.994  1.00  0.00     0.229 C 
HETATM   16  C   UNL     1      43.924 -18.736   5.101  1.00  0.00     0.056 C 
HETATM   17  C   UNL     1      45.085 -18.319   5.992  1.00  0.00     0.018 C 
HETATM   18  C   UNL     1      44.181 -19.929   4.253  1.00  0.00    -0.018 A 
HETATM   19  C   UNL     1      43.751 -19.674   2.961  1.00  0.00     0.076 A 
HETATM   20  C   UNL     1      44.690 -21.170   4.596  1.00  0.00     0.010 A 
HETATM   21  O   UNL     1      43.245 -18.413   2.782  1.00  0.00    -0.335 OA
HETATM   22  C   UNL     1      43.812 -20.630   1.967  1.00  0.00     0.037 A 
HETATM   23  C   UNL     1      44.334 -21.882   2.296  1.00  0.00     0.003 A 
HETATM   24  C   UNL     1      44.771 -22.151   3.603  1.00  0.00     0.001 A 
ENDBRANCH  12  15
ENDBRANCH   1  11
BRANCH   8  25
HETATM   25  C   UNL     1      39.798 -11.844   7.269  1.00  0.00     0.270 C 
HETATM   26  N   UNL     1      39.079 -12.659   8.099  1.00  0.00    -0.365 N 
HETATM   27  H   UNL     1      38.418 -13.308   7.688  1.00  0.00     0.159 HD
HETATM   28  H   UNL     1      39.239 -12.626   9.093  1.00  0.00     0.159 HD
HETATM   29  O   UNL     1      40.627 -11.058   7.715  1.00  0.00    -0.266 OA
ENDBRANCH   8  25
TORSDOF 3
ENDMDL
MODEL 3
REMARK VINA RESULT:      -8.7      1.890      2.996
REMARK  3 active torsions:
REMARK  status: ('A' for Active; 'I' for Inactive)
REMARK    1  A    between atoms: C_3  and  C_4 
REMARK       I    between atoms: C_4  and  N_5 
REMARK    2  A    between atoms: N_5  and  C_6 
REMARK    3  A    between atoms: C_13  and  C_14 
REMARK       I    between atoms: C_14  and  N_15 
ROOT
HETATM    1  C   UNL     1      40.243 -15.608   1.349  1.00  0.00     0.035 A 
HETATM    2  C   UNL     1      40.782 -15.377   0.077  1.00  0.00     0.046 A 
HETATM    3  C   UNL     1      40.224 -14.373  -0.744  1.00  0.00     0.030 A 
HETATM    4  C   UNL     1      39.139 -13.646  -0.271  1.00  0.00     0.063 A 
HETATM    5  N   UNL     1      38.827 -12.770  -1.272  1.00  0.00    -0.277 N 
HETATM    6  H   UNL     1      38.080 -12.083  -1.276  1.00  0.00     0.189 HD
HETATM    7  N   UNL     1      39.623 -12.849  -2.350  1.00  0.00    -0.168 NA
HETATM    8  C   UNL     1      40.496 -13.834  -2.038  1.00  0.00     0.156 A 
HETATM    9  C   UNL     1      38.572 -13.854   0.988  1.00  0.00     0.034 A 
HETATM   10  C   UNL     1      39.154 -14.844   1.790  1.00  0.00     0.032 A 
ENDROOT
BRANCH   1  11
HETATM   11  N   UNL     1      40.764 -16.554   2.252  1.00  0.00    -0.325 N 
HETATM   12  C   UNL     1      42.088 -16.772   2.587  1.00  0.00     0.252 C 
HETATM   13  O   UNL     1      43.069 -16.246   2.071  1.00  0.00    -0.270 OA
HETATM   14  H   UNL     1      40.104 -17.184   2.700  1.00  0.00     0.169 HD
BRANCH  12  15
HETATM   15  C   UNL     1      42.249 -17.722   3.779  1.00  0.00     0.229 C 
HETATM   16  C   UNL     1      43.738 -18.094   3.930  1.00  0.00     0.056 C 
HETATM   17  C   UNL     1      44.084 -19.411   3.253  1.00  0.00     0.018 C 
HETATM   18  C   UNL     1      43.831 -18.107   5.413  1.00  0.00    -0.018 A 
HETATM   19  C   UNL     1      42.702 -17.506   5.948  1.00  0.00     0.076 A 
HETATM   20  C   UNL     1      44.854 -18.547   6.235  1.00  0.00     0.010 A 
HETATM   21  O   UNL     1      41.793 -17.095   5.009  1.00  0.00    -0.335 OA
HETATM   22  C   UNL     1      42.544 -17.325   7.307  1.00  0.00     0.037 A 
HETATM   23  C   UNL     1      43.562 -17.776   8.149  1.00  0.00     0.003 A 
HETATM   24  C   UNL     1      44.711 -18.383   7.616  1.00  0.00     0.001 A 
ENDBRANCH  12  15
ENDBRANCH   1  11
BRANCH   8  25
HETATM   25  C   UNL     1      41.566 -14.226  -2.965  1.00  0.00     0.270 C 
HETATM   26  N   UNL     1      42.694 -13.458  -2.872  1.00  0.00    -0.365 N 
HETATM   27  H   UNL     1      42.718 -12.711  -2.189  1.00  0.00     0.159 HD
HETATM   28  H   UNL     1      43.489 -13.666  -3.457  1.00  0.00     0.159 HD
HETATM   29  O   UNL     1      41.496 -15.157  -3.760  1.00  0.00    -0.266 OA
ENDBRANCH   8  25
TORSDOF 3
ENDMDL
MODEL 4
REMARK VINA RESULT:      -8.6      5.754      8.679
REMARK  3 active torsions:
REMARK  status: ('A' for Active; 'I' for Inactive)
REMARK    1  A    between atoms: C_3  and  C_4 
REMARK       I    between atoms: C_4  and  N_5 
REMARK    2  A    between atoms: N_5  and  C_6 
REMARK    3  A    between atoms: C_13  and  C_14 
REMARK       I    between atoms: C_14  and  N_15 
ROOT
HETATM    1  C   UNL     1      44.750 -13.769   7.247  1.00  0.00     0.035 A 
HETATM    2  C   UNL     1      44.009 -13.196   8.289  1.00  0.00     0.046 A 
HETATM    3  C   UNL     1      44.589 -12.181   9.080  1.00  0.00     0.030 A 
HETATM    4  C   UNL     1      45.893 -11.786   8.813  1.00  0.00     0.063 A 
HETATM    5  N   UNL     1      46.171 -10.811   9.729  1.00  0.00    -0.277 N 
HETATM    6  H   UNL     1      47.039 -10.296   9.834  1.00  0.00     0.189 HD
HETATM    7  N   UNL     1      45.157 -10.522  10.560  1.00  0.00    -0.168 NA
HETATM    8  C   UNL     1      44.169 -11.359  10.169  1.00  0.00     0.156 A 
HETATM    9  C   UNL     1      46.663 -12.340   7.788  1.00  0.00     0.034 A 
HETATM   10  C   UNL     1      46.059 -13.333   7.007  1.00  0.00     0.032 A 
ENDROOT
BRANCH   1  11
HETATM   11  N   UNL     1      44.236 -14.751   6.379  1.00  0.00    -0.325 N 
HETATM   12  C   UNL     1      43.662 -15.965   6.712  1.00  0.00     0.252 C 
HETATM   13  O   UNL     1      43.593 -16.458   7.834  1.00  0.00    -0.270 OA
HETATM   14  H   UNL     1      44.316 -14.580   5.381  1.00  0.00     0.169 HD
BRANCH  12  15
HETATM   15  C   UNL     1      43.007 -16.659   5.513  1.00  0.00     0.229 C 
HETATM   16  C   UNL     1      43.142 -15.757   4.271  1.00  0.00     0.056 C 
HETATM   17  C   UNL     1      41.907 -14.900   4.032  1.00  0.00     0.018 C 
HETATM   18  C   UNL     1      43.390 -16.801   3.244  1.00  0.00    -0.018 A 
HETATM   19  C   UNL     1      43.688 -18.000   3.872  1.00  0.00     0.076 A 
HETATM   20  C   UNL     1      43.421 -16.700   1.863  1.00  0.00     0.010 A 
HETATM   21  O   UNL     1      43.646 -17.937   5.240  1.00  0.00    -0.335 OA
HETATM   22  C   UNL     1      44.021 -19.135   3.161  1.00  0.00     0.037 A 
HETATM   23  C   UNL     1      44.044 -19.051   1.768  1.00  0.00     0.003 A 
HETATM   24  C   UNL     1      43.746 -17.840   1.122  1.00  0.00     0.001 A 
ENDBRANCH  12  15
ENDBRANCH   1  11
BRANCH   8  25
HETATM   25  C   UNL     1      42.855 -11.347  10.828  1.00  0.00     0.270 C 
HETATM   26  N   UNL     1      42.853 -11.904  12.078  1.00  0.00    -0.365 N 
HETATM   27  H   UNL     1      43.724 -12.260  12.452  1.00  0.00     0.159 HD
HETATM   28  H   UNL     1      41.999 -11.923  12.614  1.00  0.00     0.159 HD
HETATM   29  O   UNL     1      41.832 -10.882  10.340  1.00  0.00    -0.266 OA
ENDBRANCH   8  25
TORSDOF 3
ENDMDL
MODEL 5
REMARK VINA RESULT:      -8.5      4.276      6.298
REMARK  3 active torsions:
REMARK  status: ('A' for Active; 'I' for Inactive)
REMARK    1  A    between atoms: C_3  and  C_4 
REMARK       I    between atoms: C_4  and  N_5 
REMARK    2  A    between atoms: N_5  and  C_6 
REMARK    3  A    between atoms: C_13  and  C_14 
REMARK       I    between atoms: C_14  and  N_15 
ROOT
HETATM    1  C   UNL     1      40.318 -13.763   4.505  1.00  0.00     0.035 A 
HETATM    2  C   UNL     1      40.184 -13.280   5.813  1.00  0.00     0.046 A 
HETATM    3  C   UNL     1      39.732 -11.959   6.024  1.00  0.00     0.030 A 
HETATM    4  C   UNL     1      39.448 -11.163   4.922  1.00  0.00     0.063 A 
HETATM    5  N   UNL     1      39.047  -9.963   5.437  1.00  0.00    -0.277 N 
HETATM    6  H   UNL     1      38.764  -9.137   4.920  1.00  0.00     0.189 HD
HETATM    7  N   UNL     1      39.028  -9.910   6.779  1.00  0.00    -0.168 NA
HETATM    8  C   UNL     1      39.446 -11.139   7.157  1.00  0.00     0.156 A 
HETATM    9  C   UNL     1      39.578 -11.609   3.605  1.00  0.00     0.034 A 
HETATM   10  C   UNL     1      40.010 -12.929   3.422  1.00  0.00     0.032 A 
ENDROOT
BRANCH   1  11
HETATM   11  N   UNL     1      40.715 -15.079   4.201  1.00  0.00    -0.325 N 
HETATM   12  C   UNL     1      41.995 -15.603   4.196  1.00  0.00     0.252 C 
HETATM   13  O   UNL     1      43.040 -14.979   4.353  1.00  0.00    -0.270 OA
HETATM   14  H   UNL     1      39.989 -15.732   3.919  1.00  0.00     0.169 HD
BRANCH  12  15
HETATM   15  C   UNL     1      42.012 -17.128   4.048  1.00  0.00     0.229 C 
HETATM   16  C   UNL     1      42.516 -17.493   2.638  1.00  0.00     0.056 C 
HETATM   17  C   UNL     1      41.382 -17.738   1.655  1.00  0.00     0.018 C 
HETATM   18  C   UNL     1      43.323 -18.693   2.978  1.00  0.00    -0.018 A 
HETATM   19  C   UNL     1      43.507 -18.749   4.350  1.00  0.00     0.076 A 
HETATM   20  C   UNL     1      43.913 -19.632   2.148  1.00  0.00     0.010 A 
HETATM   21  O   UNL     1      42.889 -17.737   5.035  1.00  0.00    -0.335 OA
HETATM   22  C   UNL     1      44.272 -19.731   4.947  1.00  0.00     0.037 A 
HETATM   23  C   UNL     1      44.861 -20.691   4.123  1.00  0.00     0.003 A 
HETATM   24  C   UNL     1      44.683 -20.642   2.731  1.00  0.00     0.001 A 
ENDBRANCH  12  15
ENDBRANCH   1  11
BRANCH   8  25
HETATM   25  C   UNL     1      39.550 -11.504   8.577  1.00  0.00     0.270 C 
HETATM   26  N   UNL     1      38.800 -12.592   8.930  1.00  0.00    -0.365 N 
HETATM   27  H   UNL     1      38.256 -13.059   8.215  1.00  0.00     0.159 HD
HETATM   28  H   UNL     1      38.823 -12.928   9.880  1.00  0.00     0.159 HD
HETATM   29  O   UNL     1      40.243 -10.918   9.401  1.00  0.00    -0.266 OA
ENDBRANCH   8  25
TORSDOF 3
ENDMDL
MODEL 6
REMARK VINA RESULT:      -8.5      2.684      8.403
REMARK  3 active torsions:
REMARK  status: ('A' for Active; 'I' for Inactive)
REMARK    1  A    between atoms: C_3  and  C_4 
REMARK       I    between atoms: C_4  and  N_5 
REMARK    2  A    between atoms: N_5  and  C_6 
REMARK    3  A    between atoms: C_13  and  C_14 
REMARK       I    between atoms: C_14  and  N_15 
ROOT
HETATM    1  C   UNL     1      42.826 -17.341   2.326  1.00  0.00     0.035 A 
HETATM    2  C   UNL     1      43.000 -17.122   3.698  1.00  0.00     0.046 A 
HETATM    3  C   UNL     1      43.674 -18.087   4.478  1.00  0.00     0.030 A 
HETATM    4  C   UNL     1      44.135 -19.243   3.862  1.00  0.00     0.063 A 
HETATM    5  N   UNL     1      44.727 -19.971   4.855  1.00  0.00    -0.277 N 
HETATM    6  H   UNL     1      45.172 -20.879   4.769  1.00  0.00     0.189 HD
HETATM    7  N   UNL     1      44.710 -19.383   6.062  1.00  0.00    -0.168 NA
HETATM    8  C   UNL     1      44.065 -18.215   5.845  1.00  0.00     0.156 A 
HETATM    9  C   UNL     1      43.971 -19.498   2.498  1.00  0.00     0.034 A 
HETATM   10  C   UNL     1      43.315 -18.518   1.744  1.00  0.00     0.032 A 
ENDROOT
BRANCH   1  11
HETATM   11  N   UNL     1      42.209 -16.414   1.464  1.00  0.00    -0.325 N 
HETATM   12  C   UNL     1      40.864 -16.105   1.368  1.00  0.00     0.252 C 
HETATM   13  O   UNL     1      39.941 -16.668   1.949  1.00  0.00    -0.270 OA
HETATM   14  H   UNL     1      42.804 -15.924   0.803  1.00  0.00     0.169 HD
BRANCH  12  15
HETATM   15  C   UNL     1      40.598 -14.880   0.487  1.00  0.00     0.229 C 
HETATM   16  C   UNL     1      41.501 -13.719   0.951  1.00  0.00     0.056 C 
HETATM   17  C   UNL     1      40.794 -12.774   1.910  1.00  0.00     0.018 C 
HETATM   18  C   UNL     1      41.836 -13.135  -0.373  1.00  0.00    -0.018 A 
HETATM   19  C   UNL     1      41.475 -14.025  -1.372  1.00  0.00     0.076 A 
HETATM   20  C   UNL     1      42.471 -11.944  -0.684  1.00  0.00     0.010 A 
HETATM   21  O   UNL     1      40.884 -15.171  -0.908  1.00  0.00    -0.335 OA
HETATM   22  C   UNL     1      41.723 -13.770  -2.705  1.00  0.00     0.037 A 
HETATM   23  C   UNL     1      42.351 -12.567  -3.034  1.00  0.00     0.003 A 
HETATM   24  C   UNL     1      42.723 -11.659  -2.029  1.00  0.00     0.001 A 
ENDBRANCH  12  15
ENDBRANCH   1  11
BRANCH   8  25
HETATM   25  C   UNL     1      43.849 -17.250   6.932  1.00  0.00     0.270 C 
HETATM   26  N   UNL     1      43.221 -17.775   8.028  1.00  0.00    -0.365 N 
HETATM   27  H   UNL     1      42.970 -18.757   8.019  1.00  0.00     0.159 HD
HETATM   28  H   UNL     1      43.048 -17.192   8.832  1.00  0.00     0.159 HD
HETATM   29  O   UNL     1      44.193 -16.074   6.903  1.00  0.00    -0.266 OA
ENDBRANCH   8  25
TORSDOF 3
ENDMDL
MODEL 7
REMARK VINA RESULT:      -8.5      2.614      8.007
REMARK  3 active torsions:
REMARK  status: ('A' for Active; 'I' for Inactive)
REMARK    1  A    between atoms: C_3  and  C_4 
REMARK       I    between atoms: C_4  and  N_5 
REMARK    2  A    between atoms: N_5  and  C_6 
REMARK    3  A    between atoms: C_13  and  C_14 
REMARK       I    between atoms: C_14  and  N_15 
ROOT
HETATM    1  C   UNL     1      42.941 -17.184   2.288  1.00  0.00     0.035 A 
HETATM    2  C   UNL     1      43.209 -18.523   1.973  1.00  0.00     0.046 A 
HETATM    3  C   UNL     1      43.801 -19.361   2.942  1.00  0.00     0.030 A 
HETATM    4  C   UNL     1      44.120 -18.828   4.185  1.00  0.00     0.063 A 
HETATM    5  N   UNL     1      44.673 -19.860   4.889  1.00  0.00    -0.277 N 
HETATM    6  H   UNL     1      45.028 -19.834   5.840  1.00  0.00     0.189 HD
HETATM    7  N   UNL     1      44.727 -21.025   4.223  1.00  0.00    -0.168 NA
HETATM    8  C   UNL     1      44.188 -20.733   3.017  1.00  0.00     0.156 A 
HETATM    9  C   UNL     1      43.875 -17.497   4.530  1.00  0.00     0.034 A 
HETATM   10  C   UNL     1      43.271 -16.691   3.557  1.00  0.00     0.032 A 
ENDROOT
BRANCH   1  11
HETATM   11  N   UNL     1      42.310 -16.290   1.402  1.00  0.00    -0.325 N 
HETATM   12  C   UNL     1      40.959 -16.025   1.279  1.00  0.00     0.252 C 
HETATM   13  O   UNL     1      40.044 -16.609   1.853  1.00  0.00    -0.270 OA
HETATM   14  H   UNL     1      42.902 -15.791   0.744  1.00  0.00     0.169 HD
BRANCH  12  15
HETATM   15  C   UNL     1      40.670 -14.822   0.374  1.00  0.00     0.229 C 
HETATM   16  C   UNL     1      41.564 -13.642   0.802  1.00  0.00     0.056 C 
HETATM   17  C   UNL     1      40.858 -12.684   1.749  1.00  0.00     0.018 C 
HETATM   18  C   UNL     1      41.878 -13.083  -0.538  1.00  0.00    -0.018 A 
HETATM   19  C   UNL     1      41.516 -13.999  -1.513  1.00  0.00     0.076 A 
HETATM   20  C   UNL     1      42.497 -11.893  -0.882  1.00  0.00     0.010 A 
HETATM   21  O   UNL     1      40.943 -15.141  -1.018  1.00  0.00    -0.335 OA
HETATM   22  C   UNL     1      41.747 -13.770  -2.854  1.00  0.00     0.037 A 
HETATM   23  C   UNL     1      42.358 -12.569  -3.216  1.00  0.00     0.003 A 
HETATM   24  C   UNL     1      42.731 -11.635  -2.236  1.00  0.00     0.001 A 
ENDBRANCH  12  15
ENDBRANCH   1  11
BRANCH   8  25
HETATM   25  C   UNL     1      44.043 -21.763   1.978  1.00  0.00     0.270 C 
HETATM   26  N   UNL     1      42.767 -21.906   1.508  1.00  0.00    -0.365 N 
HETATM   27  H   UNL     1      42.041 -21.308   1.885  1.00  0.00     0.159 HD
HETATM   28  H   UNL     1      42.576 -22.576   0.780  1.00  0.00     0.159 HD
HETATM   29  O   UNL     1      44.961 -22.447   1.539  1.00  0.00    -0.266 OA
ENDBRANCH   8  25
TORSDOF 3
ENDMDL
MODEL 8
REMARK VINA RESULT:      -8.2      3.405      8.819
REMARK  3 active torsions:
REMARK  status: ('A' for Active; 'I' for Inactive)
REMARK    1  A    between atoms: C_3  and  C_4 
REMARK       I    between atoms: C_4  and  N_5 
REMARK    2  A    between atoms: N_5  and  C_6 
REMARK    3  A    between atoms: C_13  and  C_14 
REMARK       I    between atoms: C_14  and  N_15 
ROOT
HETATM    1  C   UNL     1      41.827 -17.587   3.346  1.00  0.00     0.035 A 
HETATM    2  C   UNL     1      42.293 -18.246   4.491  1.00  0.00     0.046 A 
HETATM    3  C   UNL     1      43.381 -19.141   4.385  1.00  0.00     0.030 A 
HETATM    4  C   UNL     1      43.952 -19.357   3.137  1.00  0.00     0.063 A 
HETATM    5  N   UNL     1      44.957 -20.257   3.351  1.00  0.00    -0.277 N 
HETATM    6  H   UNL     1      45.588 -20.649   2.660  1.00  0.00     0.189 HD
HETATM    7  N   UNL     1      45.104 -20.635   4.631  1.00  0.00    -0.168 NA
HETATM    8  C   UNL     1      44.138 -19.950   5.284  1.00  0.00     0.156 A 
HETATM    9  C   UNL     1      43.507 -18.724   1.975  1.00  0.00     0.034 A 
HETATM   10  C   UNL     1      42.439 -17.828   2.109  1.00  0.00     0.032 A 
ENDROOT
BRANCH   1  11
HETATM   11  N   UNL     1      40.781 -16.645   3.365  1.00  0.00    -0.325 N 
HETATM   12  C   UNL     1      40.876 -15.270   3.481  1.00  0.00     0.252 C 
HETATM   13  O   UNL     1      41.897 -14.623   3.698  1.00  0.00    -0.270 OA
HETATM   14  H   UNL     1      39.831 -17.002   3.321  1.00  0.00     0.169 HD
BRANCH  12  15
HETATM   15  C   UNL     1      39.542 -14.559   3.225  1.00  0.00     0.229 C 
HETATM   16  C   UNL     1      39.773 -13.035   3.231  1.00  0.00     0.056 C 
HETATM   17  C   UNL     1      39.476 -12.403   4.582  1.00  0.00     0.018 C 
HETATM   18  C   UNL     1      38.843 -12.649   2.139  1.00  0.00    -0.018 A 
HETATM   19  C   UNL     1      38.458 -13.784   1.442  1.00  0.00     0.076 A 
HETATM   20  C   UNL     1      38.415 -11.395   1.737  1.00  0.00     0.010 A 
HETATM   21  O   UNL     1      38.985 -14.947   1.939  1.00  0.00    -0.335 OA
HETATM   22  C   UNL     1      37.639 -13.719   0.334  1.00  0.00     0.037 A 
HETATM   23  C   UNL     1      37.190 -12.463  -0.075  1.00  0.00     0.003 A 
HETATM   24  C   UNL     1      37.576 -11.306   0.623  1.00  0.00     0.001 A 
ENDBRANCH  12  15
ENDBRANCH   1  11
BRANCH   8  25
HETATM   25  C   UNL     1      43.969 -20.071   6.739  1.00  0.00     0.270 C 
HETATM   26  N   UNL     1      44.245 -18.924   7.431  1.00  0.00    -0.365 N 
HETATM   27  H   UNL     1      44.523 -18.099   6.912  1.00  0.00     0.159 HD
HETATM   28  H   UNL     1      44.138 -18.907   8.433  1.00  0.00     0.159 HD
HETATM   29  O   UNL     1      43.607 -21.089   7.319  1.00  0.00    -0.266 OA
ENDBRANCH   8  25
TORSDOF 3
ENDMDL
MODEL 9
REMARK VINA RESULT:      -8.2      2.942      8.683
REMARK  3 active torsions:
REMARK  status: ('A' for Active; 'I' for Inactive)
REMARK    1  A    between atoms: C_3  and  C_4 
REMARK       I    between atoms: C_4  and  N_5 
REMARK    2  A    between atoms: N_5  and  C_6 
REMARK    3  A    between atoms: C_13  and  C_14 
REMARK       I    between atoms: C_14  and  N_15 
ROOT
HETATM    1  C   UNL     1      42.783 -17.448   2.838  1.00  0.00     0.035 A 
HETATM    2  C   UNL     1      42.905 -17.764   4.198  1.00  0.00     0.046 A 
HETATM    3  C   UNL     1      43.601 -18.931   4.582  1.00  0.00     0.030 A 
HETATM    4  C   UNL     1      44.135 -19.749   3.594  1.00  0.00     0.063 A 
HETATM    5  N   UNL     1      44.731 -20.781   4.262  1.00  0.00    -0.277 N 
HETATM    6  H   UNL     1      45.221 -21.572   3.859  1.00  0.00     0.189 HD
HETATM    7  N   UNL     1      44.649 -20.700   5.600  1.00  0.00    -0.168 NA
HETATM    8  C   UNL     1      43.956 -19.559   5.814  1.00  0.00     0.156 A 
HETATM    9  C   UNL     1      44.025 -19.469   2.230  1.00  0.00     0.034 A 
HETATM   10  C   UNL     1      43.346 -18.297   1.876  1.00  0.00     0.032 A 
ENDROOT
BRANCH   1  11
HETATM   11  N   UNL     1      42.149 -16.283   2.367  1.00  0.00    -0.325 N 
HETATM   12  C   UNL     1      42.637 -14.989   2.368  1.00  0.00     0.252 C 
HETATM   13  O   UNL     1      43.681 -14.601   2.885  1.00  0.00    -0.270 OA
HETATM   14  H   UNL     1      41.205 -16.379   2.006  1.00  0.00     0.169 HD
BRANCH  12  15
HETATM   15  C   UNL     1      41.763 -14.025   1.558  1.00  0.00     0.229 C 
HETATM   16  C   UNL     1      40.731 -14.836   0.750  1.00  0.00     0.056 C 
HETATM   17  C   UNL     1      41.184 -15.105  -0.677  1.00  0.00     0.018 C 
HETATM   18  C   UNL     1      39.562 -13.929   0.877  1.00  0.00    -0.018 A 
HETATM   19  C   UNL     1      39.817 -12.989   1.864  1.00  0.00     0.076 A 
HETATM   20  C   UNL     1      38.338 -13.959   0.230  1.00  0.00     0.010 A 
HETATM   21  O   UNL     1      41.057 -13.103   2.434  1.00  0.00    -0.335 OA
HETATM   22  C   UNL     1      38.878 -12.050   2.240  1.00  0.00     0.037 A 
HETATM   23  C   UNL     1      37.644 -12.061   1.586  1.00  0.00     0.003 A 
HETATM   24  C   UNL     1      37.376 -13.011   0.587  1.00  0.00     0.001 A 
ENDBRANCH  12  15
ENDBRANCH   1  11
BRANCH   8  25
HETATM   25  C   UNL     1      43.660 -19.090   7.176  1.00  0.00     0.270 C 
HETATM   26  N   UNL     1      43.685 -20.077   8.123  1.00  0.00    -0.365 N 
HETATM   27  H   UNL     1      43.909 -21.021   7.834  1.00  0.00     0.159 HD
HETATM   28  H   UNL     1      43.513 -19.846   9.089  1.00  0.00     0.159 HD
HETATM   29  O   UNL     1      43.418 -17.927   7.478  1.00  0.00    -0.266 OA
ENDBRANCH   8  25
TORSDOF 3
ENDMDL
MODEL 10
REMARK VINA RESULT:      -8.0      4.263      8.367
REMARK  3 active torsions:
REMARK  status: ('A' for Active; 'I' for Inactive)
REMARK    1  A    between atoms: C_3  and  C_4 
REMARK       I    between atoms: C_4  and  N_5 
REMARK    2  A    between atoms: N_5  and  C_6 
REMARK    3  A    between atoms: C_13  and  C_14 
REMARK       I    between atoms: C_14  and  N_15 
ROOT
HETATM    1  C   UNL     1      43.080 -18.025   3.502  1.00  0.00     0.035 A 
HETATM    2  C   UNL     1      43.556 -19.146   4.196  1.00  0.00     0.046 A 
HETATM    3  C   UNL     1      43.926 -20.304   3.479  1.00  0.00     0.030 A 
HETATM    4  C   UNL     1      43.793 -20.308   2.096  1.00  0.00     0.063 A 
HETATM    5  N   UNL     1      44.217 -21.543   1.695  1.00  0.00    -0.277 N 
HETATM    6  H   UNL     1      44.256 -21.901   0.747  1.00  0.00     0.189 HD
HETATM    7  N   UNL     1      44.633 -22.340   2.692  1.00  0.00    -0.168 NA
HETATM    8  C   UNL     1      44.462 -21.587   3.802  1.00  0.00     0.156 A 
HETATM    9  C   UNL     1      43.316 -19.212   1.373  1.00  0.00     0.034 A 
HETATM   10  C   UNL     1      42.971 -18.070   2.106  1.00  0.00     0.032 A 
ENDROOT
BRANCH   1  11
HETATM   11  N   UNL     1      42.734 -16.814   4.129  1.00  0.00    -0.325 N 
HETATM   12  C   UNL     1      41.728 -16.590   5.052  1.00  0.00     0.252 C 
HETATM   13  O   UNL     1      40.876 -17.397   5.414  1.00  0.00    -0.270 OA
HETATM   14  H   UNL     1      43.255 -15.984   3.862  1.00  0.00     0.169 HD
BRANCH  12  15
HETATM   15  C   UNL     1      41.805 -15.199   5.689  1.00  0.00     0.229 C 
HETATM   16  C   UNL     1      42.314 -14.191   4.639  1.00  0.00     0.056 C 
HETATM   17  C   UNL     1      43.814 -13.957   4.731  1.00  0.00     0.018 C 
HETATM   18  C   UNL     1      41.473 -13.022   5.004  1.00  0.00    -0.018 A 
HETATM   19  C   UNL     1      40.456 -13.435   5.850  1.00  0.00     0.076 A 
HETATM   20  C   UNL     1      41.546 -11.707   4.576  1.00  0.00     0.010 A 
HETATM   21  O   UNL     1      40.498 -14.769   6.159  1.00  0.00    -0.335 OA
HETATM   22  C   UNL     1      39.484 -12.568   6.303  1.00  0.00     0.037 A 
HETATM   23  C   UNL     1      39.552 -11.236   5.891  1.00  0.00     0.003 A 
HETATM   24  C   UNL     1      40.578 -10.807   5.032  1.00  0.00     0.001 A 
ENDBRANCH  12  15
ENDBRANCH   1  11
BRANCH   8  25
HETATM   25  C   UNL     1      44.823 -22.097   5.133  1.00  0.00     0.270 C 
HETATM   26  N   UNL     1      45.763 -23.091   5.113  1.00  0.00    -0.365 N 
HETATM   27  H   UNL     1      46.140 -23.384   4.220  1.00  0.00     0.159 HD
HETATM   28  H   UNL     1      46.086 -23.489   5.981  1.00  0.00     0.159 HD
HETATM   29  O   UNL     1      44.352 -21.690   6.189  1.00  0.00    -0.266 OA
ENDBRANCH   8  25
TORSDOF 3
ENDMDL
