MODEL 1
REMARK VINA RESULT:      -8.6      0.000      0.000
REMARK  11 active torsions:
REMARK  status: ('A' for Active; 'I' for Inactive)
REMARK    1  A    between atoms: C_2  and  O_3 
REMARK    2  A    between atoms: O_3  and  C_4 
REMARK    3  A    between atoms: C_7  and  N_8 
REMARK    4  A    between atoms: C_9  and  S_10 
REMARK    5  A    between atoms: S_10  and  C_11 
REMARK    6  A    between atoms: C_11  and  C_12 
REMARK       I    between atoms: C_12  and  N_13 
REMARK    7  A    between atoms: N_13  and  C_14 
REMARK    8  A    between atoms: C_15  and  C_16 
REMARK    9  A    between atoms: C_16  and  O_17 
REMARK   10  A    between atoms: O_17  and  C_18 
REMARK   11  A    between atoms: C_29  and  N_30 
ROOT
HETATM    1  N   UNL     1      40.390 -14.483   3.818  1.00  0.00    -0.276 N 
HETATM    2  C   UNL     1      40.514 -13.180   4.371  1.00  0.00     0.177 C 
HETATM    3  N   UNL     1      40.060 -12.079   3.834  1.00  0.00    -0.204 NA
HETATM    4  C   UNL     1      39.368 -12.260   2.690  1.00  0.00     0.162 A 
HETATM    5  C   UNL     1      39.025 -13.427   2.070  1.00  0.00     0.081 A 
HETATM    6  C   UNL     1      39.537 -14.635   2.641  1.00  0.00     0.124 C 
HETATM    7  N   UNL     1      38.782 -11.269   1.957  1.00  0.00    -0.260 N 
HETATM    8  H   UNL     1      38.809 -10.269   2.128  1.00  0.00     0.191 HD
HETATM    9  N   UNL     1      38.054 -11.750   0.922  1.00  0.00    -0.177 NA
HETATM   10  C   UNL     1      38.203 -13.082   0.988  1.00  0.00     0.068 A 
HETATM   11  C   UNL     1      37.516 -13.943  -0.002  1.00  0.00     0.073 C 
ENDROOT
BRANCH   2  12
HETATM   12  S   UNL     1      41.159 -12.972   6.011  1.00  0.00    -0.082 SA
BRANCH  12  13
HETATM   13  C   UNL     1      41.210 -11.170   6.234  1.00  0.00     0.185 C 
BRANCH  13  14
HETATM   14  C   UNL     1      41.962 -10.615   7.444  1.00  0.00     0.231 C 
HETATM   15  N   UNL     1      42.480 -11.536   8.344  1.00  0.00    -0.326 N 
HETATM   16  H   UNL     1      42.031 -12.440   8.290  1.00  0.00     0.169 HD
HETATM   17  O   UNL     1      42.042  -9.394   7.593  1.00  0.00    -0.272 OA
BRANCH  15  18
HETATM   18  C   UNL     1      42.951 -11.143   9.621  1.00  0.00     0.051 A 
HETATM   19  C   UNL     1      44.306 -10.990   9.964  1.00  0.00     0.066 A 
HETATM   20  C   UNL     1      44.644 -10.419  11.206  1.00  0.00     0.020 A 
HETATM   21  C   UNL     1      43.652 -10.032  12.106  1.00  0.00     0.001 A 
HETATM   22  C   UNL     1      42.314 -10.259  11.799  1.00  0.00     0.002 A 
HETATM   23  C   UNL     1      41.967 -10.830  10.574  1.00  0.00     0.030 A 
BRANCH  19  24
HETATM   24  C   UNL     1      45.384 -11.608   9.145  1.00  0.00     0.295 C 
HETATM   25  O   UNL     1      46.334 -10.986   8.695  1.00  0.00    -0.259 OA
BRANCH  24  26
HETATM   26  O   UNL     1      45.086 -12.909   8.891  1.00  0.00    -0.318 OA
BRANCH  26  27
HETATM   27  C   UNL     1      45.423 -13.375   7.578  1.00  0.00     0.174 C 
HETATM   28  C   UNL     1      44.454 -14.442   7.109  1.00  0.00     0.034 C 
ENDBRANCH  26  27
ENDBRANCH  24  26
ENDBRANCH  19  24
ENDBRANCH  15  18
ENDBRANCH  13  14
ENDBRANCH  12  13
ENDBRANCH   2  12
BRANCH   1  29
HETATM   29  C   UNL     1      41.341 -15.511   4.110  1.00  0.00     0.043 A 
HETATM   30  C   UNL     1      41.053 -16.579   4.965  1.00  0.00     0.033 A 
HETATM   31  C   UNL     1      41.969 -17.628   5.116  1.00  0.00     0.039 A 
HETATM   32  C   UNL     1      43.161 -17.645   4.389  1.00  0.00     0.068 A 
HETATM   33  C   UNL     1      43.473 -16.572   3.560  1.00  0.00     0.039 A 
HETATM   34  C   UNL     1      42.570 -15.515   3.424  1.00  0.00     0.033 A 
BRANCH  32  35
HETATM   35  O   UNL     1      43.962 -18.735   4.581  1.00  0.00    -0.352 OA
BRANCH  35  36
HETATM   36  C   UNL     1      44.237 -19.055   5.948  1.00  0.00     0.171 C 
HETATM   37  C   UNL     1      45.291 -18.091   6.459  1.00  0.00     0.034 C 
ENDBRANCH  35  36
ENDBRANCH  32  35
ENDBRANCH   1  29
BRANCH   6  38
HETATM   38  N   UNL     1      39.245 -15.817   2.132  1.00  0.00    -0.384 N 
HETATM   39  H   UNL     1      39.245 -16.657   2.690  1.00  0.00     0.157 HD
HETATM   40  H   UNL     1      39.036 -15.896   1.143  1.00  0.00     0.157 HD
ENDBRANCH   6  38
TORSDOF 11
ENDMDL
MODEL 2
REMARK VINA RESULT:      -8.4      1.737      3.409
REMARK  11 active torsions:
REMARK  status: ('A' for Active; 'I' for Inactive)
REMARK    1  A    between atoms: C_2  and  O_3 
REMARK    2  A    between atoms: O_3  and  C_4 
REMARK    3  A    between atoms: C_7  and  N_8 
REMARK    4  A    between atoms: C_9  and  S_10 
REMARK    5  A    between atoms: S_10  and  C_11 
REMARK    6  A    between atoms: C_11  and  C_12 
REMARK       I    between atoms: C_12  and  N_13 
REMARK    7  A    between atoms: N_13  and  C_14 
REMARK    8  A    between atoms: C_15  and  C_16 
REMARK    9  A    between atoms: C_16  and  O_17 
REMARK   10  A    between atoms: O_17  and  C_18 
REMARK   11  A    between atoms: C_29  and  N_30 
ROOT
HETATM    1  N   UNL     1      42.128 -15.161   4.843  1.00  0.00    -0.276 N 
HETATM    2  C   UNL     1      42.974 -14.297   5.589  1.00  0.00     0.177 C 
HETATM    3  N   UNL     1      42.933 -12.991   5.573  1.00  0.00    -0.204 NA
HETATM    4  C   UNL     1      41.944 -12.473   4.818  1.00  0.00     0.162 A 
HETATM    5  C   UNL     1      40.953 -13.122   4.137  1.00  0.00     0.081 A 
HETATM    6  C   UNL     1      41.005 -14.552   4.133  1.00  0.00     0.124 C 
HETATM    7  N   UNL     1      41.686 -11.143   4.659  1.00  0.00    -0.260 N 
HETATM    8  H   UNL     1      42.207 -10.358   5.038  1.00  0.00     0.191 HD
HETATM    9  N   UNL     1      40.562 -10.913   3.942  1.00  0.00    -0.177 NA
HETATM   10  C   UNL     1      40.108 -12.133   3.616  1.00  0.00     0.068 A 
HETATM   11  C   UNL     1      38.859 -12.262   2.830  1.00  0.00     0.073 C 
ENDROOT
BRANCH   2  12
HETATM   12  S   UNL     1      44.076 -14.972   6.805  1.00  0.00    -0.082 SA
BRANCH  12  13
HETATM   13  C   UNL     1      45.185 -13.589   7.204  1.00  0.00     0.185 C 
BRANCH  13  14
HETATM   14  C   UNL     1      44.911 -12.791   8.479  1.00  0.00     0.231 C 
HETATM   15  N   UNL     1      43.702 -12.113   8.553  1.00  0.00    -0.326 N 
HETATM   16  H   UNL     1      43.285 -11.945   7.648  1.00  0.00     0.169 HD
HETATM   17  O   UNL     1      45.775 -12.745   9.357  1.00  0.00    -0.272 OA
BRANCH  15  18
HETATM   18  C   UNL     1      43.458 -11.136   9.551  1.00  0.00     0.051 A 
HETATM   19  C   UNL     1      42.373 -10.243   9.549  1.00  0.00     0.066 A 
HETATM   20  C   UNL     1      42.134  -9.445  10.684  1.00  0.00     0.020 A 
HETATM   21  C   UNL     1      42.977  -9.512  11.793  1.00  0.00     0.001 A 
HETATM   22  C   UNL     1      44.097 -10.336  11.760  1.00  0.00     0.002 A 
HETATM   23  C   UNL     1      44.347 -11.128  10.638  1.00  0.00     0.030 A 
BRANCH  19  24
HETATM   24  C   UNL     1      41.602  -9.966   8.307  1.00  0.00     0.295 C 
HETATM   25  O   UNL     1      42.114  -9.607   7.257  1.00  0.00    -0.259 OA
BRANCH  24  26
HETATM   26  O   UNL     1      40.270 -10.062   8.556  1.00  0.00    -0.318 OA
BRANCH  26  27
HETATM   27  C   UNL     1      39.468 -10.521   7.460  1.00  0.00     0.174 C 
HETATM   28  C   UNL     1      39.424 -12.036   7.410  1.00  0.00     0.034 C 
ENDBRANCH  26  27
ENDBRANCH  24  26
ENDBRANCH  19  24
ENDBRANCH  15  18
ENDBRANCH  13  14
ENDBRANCH  12  13
ENDBRANCH   2  12
BRANCH   1  29
HETATM   29  C   UNL     1      42.553 -16.470   4.454  1.00  0.00     0.043 A 
HETATM   30  C   UNL     1      43.366 -16.695   3.338  1.00  0.00     0.033 A 
HETATM   31  C   UNL     1      43.862 -17.978   3.075  1.00  0.00     0.039 A 
HETATM   32  C   UNL     1      43.588 -19.041   3.938  1.00  0.00     0.068 A 
HETATM   33  C   UNL     1      42.754 -18.837   5.033  1.00  0.00     0.039 A 
HETATM   34  C   UNL     1      42.242 -17.562   5.286  1.00  0.00     0.033 A 
BRANCH  32  35
HETATM   35  O   UNL     1      44.157 -20.239   3.609  1.00  0.00    -0.352 OA
BRANCH  35  36
HETATM   36  C   UNL     1      45.244 -20.647   4.445  1.00  0.00     0.171 C 
HETATM   37  C   UNL     1      44.870 -21.964   5.100  1.00  0.00     0.034 C 
ENDBRANCH  35  36
ENDBRANCH  32  35
ENDBRANCH   1  29
BRANCH   6  38
HETATM   38  N   UNL     1      40.083 -15.273   3.525  1.00  0.00    -0.384 N 
HETATM   39  H   UNL     1      39.530 -15.961   4.014  1.00  0.00     0.157 HD
HETATM   40  H   UNL     1      39.935 -15.157   2.529  1.00  0.00     0.157 HD
ENDBRANCH   6  38
TORSDOF 11
ENDMDL
MODEL 3
REMARK VINA RESULT:      -8.3      3.028      5.943
REMARK  11 active torsions:
REMARK  status: ('A' for Active; 'I' for Inactive)
REMARK    1  A    between atoms: C_2  and  O_3 
REMARK    2  A    between atoms: O_3  and  C_4 
REMARK    3  A    between atoms: C_7  and  N_8 
REMARK    4  A    between atoms: C_9  and  S_10 
REMARK    5  A    between atoms: S_10  and  C_11 
REMARK    6  A    between atoms: C_11  and  C_12 
REMARK       I    between atoms: C_12  and  N_13 
REMARK    7  A    between atoms: N_13  and  C_14 
REMARK    8  A    between atoms: C_15  and  C_16 
REMARK    9  A    between atoms: C_16  and  O_17 
REMARK   10  A    between atoms: O_17  and  C_18 
REMARK   11  A    between atoms: C_29  and  N_30 
ROOT
HETATM    1  N   UNL     1      43.289 -16.527   5.250  1.00  0.00    -0.276 N 
HETATM    2  C   UNL     1      43.511 -15.731   6.406  1.00  0.00     0.177 C 
HETATM    3  N   UNL     1      43.675 -16.181   7.621  1.00  0.00    -0.204 NA
HETATM    4  C   UNL     1      43.689 -17.526   7.720  1.00  0.00     0.162 A 
HETATM    5  C   UNL     1      43.627 -18.461   6.726  1.00  0.00     0.081 A 
HETATM    6  C   UNL     1      43.425 -17.975   5.396  1.00  0.00     0.124 C 
HETATM    7  N   UNL     1      43.863 -18.231   8.875  1.00  0.00    -0.260 N 
HETATM    8  H   UNL     1      43.965 -17.867   9.818  1.00  0.00     0.191 HD
HETATM    9  N   UNL     1      43.952 -19.564   8.663  1.00  0.00    -0.177 NA
HETATM   10  C   UNL     1      43.803 -19.710   7.337  1.00  0.00     0.068 A 
HETATM   11  C   UNL     1      43.864 -21.065   6.740  1.00  0.00     0.073 C 
ENDROOT
BRANCH   2  12
HETATM   12  S   UNL     1      43.788 -13.986   6.237  1.00  0.00    -0.082 SA
BRANCH  12  13
HETATM   13  C   UNL     1      45.214 -13.665   7.317  1.00  0.00     0.185 C 
BRANCH  13  14
HETATM   14  C   UNL     1      45.081 -12.577   8.382  1.00  0.00     0.231 C 
HETATM   15  N   UNL     1      43.865 -12.486   9.044  1.00  0.00    -0.326 N 
HETATM   16  H   UNL     1      43.103 -12.913   8.537  1.00  0.00     0.169 HD
HETATM   17  O   UNL     1      46.026 -11.809   8.578  1.00  0.00    -0.272 OA
BRANCH  15  18
HETATM   18  C   UNL     1      43.537 -11.363   9.845  1.00  0.00     0.051 A 
HETATM   19  C   UNL     1      42.563 -10.403   9.520  1.00  0.00     0.066 A 
HETATM   20  C   UNL     1      42.197  -9.438  10.477  1.00  0.00     0.020 A 
HETATM   21  C   UNL     1      42.812  -9.407  11.729  1.00  0.00     0.001 A 
HETATM   22  C   UNL     1      43.834 -10.306  12.018  1.00  0.00     0.002 A 
HETATM   23  C   UNL     1      44.208 -11.264  11.075  1.00  0.00     0.030 A 
BRANCH  19  24
HETATM   24  C   UNL     1      42.064 -10.251   8.126  1.00  0.00     0.295 C 
HETATM   25  O   UNL     1      42.062  -9.190   7.519  1.00  0.00    -0.259 OA
BRANCH  24  26
HETATM   26  O   UNL     1      41.523 -11.421   7.696  1.00  0.00    -0.318 OA
BRANCH  26  27
HETATM   27  C   UNL     1      40.810 -11.352   6.454  1.00  0.00     0.174 C 
HETATM   28  C   UNL     1      39.921 -12.565   6.264  1.00  0.00     0.034 C 
ENDBRANCH  26  27
ENDBRANCH  24  26
ENDBRANCH  19  24
ENDBRANCH  15  18
ENDBRANCH  13  14
ENDBRANCH  12  13
ENDBRANCH   2  12
BRANCH   1  29
HETATM   29  C   UNL     1      42.575 -16.019   4.119  1.00  0.00     0.043 A 
HETATM   30  C   UNL     1      43.201 -15.736   2.901  1.00  0.00     0.033 A 
HETATM   31  C   UNL     1      42.439 -15.365   1.786  1.00  0.00     0.039 A 
HETATM   32  C   UNL     1      41.045 -15.311   1.860  1.00  0.00     0.068 A 
HETATM   33  C   UNL     1      40.413 -15.558   3.075  1.00  0.00     0.039 A 
HETATM   34  C   UNL     1      41.173 -15.907   4.193  1.00  0.00     0.033 A 
BRANCH  32  35
HETATM   35  O   UNL     1      40.399 -14.979   0.703  1.00  0.00    -0.352 OA
BRANCH  35  36
HETATM   36  C   UNL     1      41.239 -14.475  -0.340  1.00  0.00     0.171 C 
HETATM   37  C   UNL     1      40.915 -15.228  -1.618  1.00  0.00     0.034 C 
ENDBRANCH  35  36
ENDBRANCH  32  35
ENDBRANCH   1  29
BRANCH   6  38
HETATM   38  N   UNL     1      43.375 -18.794   4.363  1.00  0.00    -0.384 N 
HETATM   39  H   UNL     1      42.553 -18.879   3.785  1.00  0.00     0.157 HD
HETATM   40  H   UNL     1      44.175 -19.378   4.150  1.00  0.00     0.157 HD
ENDBRANCH   6  38
TORSDOF 11
ENDMDL
MODEL 4
REMARK VINA RESULT:      -8.0      3.907      8.217
REMARK  11 active torsions:
REMARK  status: ('A' for Active; 'I' for Inactive)
REMARK    1  A    between atoms: C_2  and  O_3 
REMARK    2  A    between atoms: O_3  and  C_4 
REMARK    3  A    between atoms: C_7  and  N_8 
REMARK    4  A    between atoms: C_9  and  S_10 
REMARK    5  A    between atoms: S_10  and  C_11 
REMARK    6  A    between atoms: C_11  and  C_12 
REMARK       I    between atoms: C_12  and  N_13 
REMARK    7  A    between atoms: N_13  and  C_14 
REMARK    8  A    between atoms: C_15  and  C_16 
REMARK    9  A    between atoms: C_16  and  O_17 
REMARK   10  A    between atoms: O_17  and  C_18 
REMARK   11  A    between atoms: C_29  and  N_30 
ROOT
HETATM    1  N   UNL     1      39.752 -13.522   3.143  1.00  0.00    -0.276 N 
HETATM    2  C   UNL     1      40.738 -14.395   3.674  1.00  0.00     0.177 C 
HETATM    3  N   UNL     1      41.493 -14.149   4.711  1.00  0.00    -0.204 NA
HETATM    4  C   UNL     1      41.228 -12.981   5.330  1.00  0.00     0.162 A 
HETATM    5  C   UNL     1      40.245 -12.072   5.063  1.00  0.00     0.081 A 
HETATM    6  C   UNL     1      39.428 -12.324   3.916  1.00  0.00     0.124 C 
HETATM    7  N   UNL     1      41.867 -12.514   6.442  1.00  0.00    -0.260 N 
HETATM    8  H   UNL     1      42.645 -12.938   6.938  1.00  0.00     0.191 HD
HETATM    9  N   UNL     1      41.316 -11.373   6.917  1.00  0.00    -0.177 NA
HETATM   10  C   UNL     1      40.316 -11.095   6.066  1.00  0.00     0.068 A 
HETATM   11  C   UNL     1      39.473  -9.900   6.296  1.00  0.00     0.073 C 
ENDROOT
BRANCH   2  12
HETATM   12  S   UNL     1      40.886 -16.049   3.047  1.00  0.00    -0.082 SA
BRANCH  12  13
HETATM   13  C   UNL     1      42.431 -16.017   2.092  1.00  0.00     0.185 C 
BRANCH  13  14
HETATM   14  C   UNL     1      43.267 -17.295   2.032  1.00  0.00     0.231 C 
HETATM   15  N   UNL     1      42.709 -18.442   2.580  1.00  0.00    -0.326 N 
HETATM   16  H   UNL     1      41.972 -18.248   3.243  1.00  0.00     0.169 HD
HETATM   17  O   UNL     1      44.400 -17.250   1.549  1.00  0.00    -0.272 OA
BRANCH  15  18
HETATM   18  C   UNL     1      43.486 -19.603   2.823  1.00  0.00     0.051 A 
HETATM   19  C   UNL     1      44.070 -19.933   4.058  1.00  0.00     0.066 A 
HETATM   20  C   UNL     1      44.661 -21.200   4.226  1.00  0.00     0.020 A 
HETATM   21  C   UNL     1      44.698 -22.114   3.173  1.00  0.00     0.001 A 
HETATM   22  C   UNL     1      44.194 -21.754   1.928  1.00  0.00     0.002 A 
HETATM   23  C   UNL     1      43.610 -20.500   1.748  1.00  0.00     0.030 A 
BRANCH  19  24
HETATM   24  C   UNL     1      44.266 -18.907   5.118  1.00  0.00     0.295 C 
HETATM   25  O   UNL     1      45.361 -18.574   5.543  1.00  0.00    -0.259 OA
BRANCH  24  26
HETATM   26  O   UNL     1      43.062 -18.502   5.600  1.00  0.00    -0.318 OA
BRANCH  26  27
HETATM   27  C   UNL     1      43.022 -17.166   6.118  1.00  0.00     0.174 C 
HETATM   28  C   UNL     1      42.815 -17.167   7.620  1.00  0.00     0.034 C 
ENDBRANCH  26  27
ENDBRANCH  24  26
ENDBRANCH  19  24
ENDBRANCH  15  18
ENDBRANCH  13  14
ENDBRANCH  12  13
ENDBRANCH   2  12
BRANCH   1  29
HETATM   29  C   UNL     1      39.385 -13.562   1.760  1.00  0.00     0.043 A 
HETATM   30  C   UNL     1      38.148 -14.047   1.325  1.00  0.00     0.033 A 
HETATM   31  C   UNL     1      37.786 -13.945  -0.024  1.00  0.00     0.039 A 
HETATM   32  C   UNL     1      38.632 -13.323  -0.945  1.00  0.00     0.068 A 
HETATM   33  C   UNL     1      39.879 -12.866  -0.531  1.00  0.00     0.039 A 
HETATM   34  C   UNL     1      40.250 -12.986   0.810  1.00  0.00     0.033 A 
BRANCH  32  35
HETATM   35  O   UNL     1      38.161 -13.240  -2.225  1.00  0.00    -0.352 OA
BRANCH  35  36
HETATM   36  C   UNL     1      37.891 -14.494  -2.857  1.00  0.00     0.171 C 
HETATM   37  C   UNL     1      39.151 -14.948  -3.572  1.00  0.00     0.034 C 
ENDBRANCH  35  36
ENDBRANCH  32  35
ENDBRANCH   1  29
BRANCH   6  38
HETATM   38  N   UNL     1      38.436 -11.520   3.585  1.00  0.00    -0.384 N 
HETATM   39  H   UNL     1      37.479 -11.716   3.836  1.00  0.00     0.157 HD
HETATM   40  H   UNL     1      38.630 -10.689   3.039  1.00  0.00     0.157 HD
ENDBRANCH   6  38
TORSDOF 11
ENDMDL
MODEL 5
REMARK VINA RESULT:      -8.0      4.175      8.729
REMARK  11 active torsions:
REMARK  status: ('A' for Active; 'I' for Inactive)
REMARK    1  A    between atoms: C_2  and  O_3 
REMARK    2  A    between atoms: O_3  and  C_4 
REMARK    3  A    between atoms: C_7  and  N_8 
REMARK    4  A    between atoms: C_9  and  S_10 
REMARK    5  A    between atoms: S_10  and  C_11 
REMARK    6  A    between atoms: C_11  and  C_12 
REMARK       I    between atoms: C_12  and  N_13 
REMARK    7  A    between atoms: N_13  and  C_14 
REMARK    8  A    between atoms: C_15  and  C_16 
REMARK    9  A    between atoms: C_16  and  O_17 
REMARK   10  A    between atoms: O_17  and  C_18 
REMARK   11  A    between atoms: C_29  and  N_30 
ROOT
HETATM    1  N   UNL     1      42.103 -17.197   3.928  1.00  0.00    -0.276 N 
HETATM    2  C   UNL     1      41.836 -17.353   2.541  1.00  0.00     0.177 C 
HETATM    3  N   UNL     1      42.391 -18.234   1.753  1.00  0.00    -0.204 NA
HETATM    4  C   UNL     1      43.236 -19.083   2.373  1.00  0.00     0.162 A 
HETATM    5  C   UNL     1      43.526 -19.187   3.704  1.00  0.00     0.081 A 
HETATM    6  C   UNL     1      42.938 -18.212   4.569  1.00  0.00     0.124 C 
HETATM    7  N   UNL     1      43.920 -20.098   1.769  1.00  0.00    -0.260 N 
HETATM    8  H   UNL     1      43.933 -20.340   0.783  1.00  0.00     0.191 HD
HETATM    9  N   UNL     1      44.601 -20.864   2.652  1.00  0.00    -0.177 NA
HETATM   10  C   UNL     1      44.362 -20.303   3.848  1.00  0.00     0.068 A 
HETATM   11  C   UNL     1      44.951 -20.904   5.067  1.00  0.00     0.073 C 
ENDROOT
BRANCH   2  12
HETATM   12  S   UNL     1      40.514 -16.439   1.788  1.00  0.00    -0.082 SA
BRANCH  12  13
HETATM   13  C   UNL     1      41.010 -16.314   0.044  1.00  0.00     0.185 C 
BRANCH  13  14
HETATM   14  C   UNL     1      40.916 -14.948  -0.635  1.00  0.00     0.231 C 
HETATM   15  N   UNL     1      42.097 -14.394  -1.109  1.00  0.00    -0.326 N 
HETATM   16  H   UNL     1      42.921 -14.782  -0.671  1.00  0.00     0.169 HD
HETATM   17  O   UNL     1      39.823 -14.381  -0.698  1.00  0.00    -0.272 OA
BRANCH  15  18
HETATM   18  C   UNL     1      42.175 -13.036  -1.506  1.00  0.00     0.051 A 
HETATM   19  C   UNL     1      42.334 -11.951  -0.627  1.00  0.00     0.066 A 
HETATM   20  C   UNL     1      42.582 -10.668  -1.151  1.00  0.00     0.020 A 
HETATM   21  C   UNL     1      42.643 -10.460  -2.529  1.00  0.00     0.001 A 
HETATM   22  C   UNL     1      42.404 -11.520  -3.398  1.00  0.00     0.002 A 
HETATM   23  C   UNL     1      42.151 -12.794  -2.890  1.00  0.00     0.030 A 
BRANCH  19  24
HETATM   24  C   UNL     1      42.036 -12.084   0.825  1.00  0.00     0.295 C 
HETATM   25  O   UNL     1      42.720 -12.735   1.600  1.00  0.00    -0.259 OA
BRANCH  24  26
HETATM   26  O   UNL     1      40.854 -11.480   1.113  1.00  0.00    -0.318 OA
BRANCH  26  27
HETATM   27  C   UNL     1      40.374 -11.669   2.451  1.00  0.00     0.174 C 
HETATM   28  C   UNL     1      39.367 -12.800   2.518  1.00  0.00     0.034 C 
ENDBRANCH  26  27
ENDBRANCH  24  26
ENDBRANCH  19  24
ENDBRANCH  15  18
ENDBRANCH  13  14
ENDBRANCH  12  13
ENDBRANCH   2  12
BRANCH   1  29
HETATM   29  C   UNL     1      41.936 -15.936   4.584  1.00  0.00     0.043 A 
HETATM   30  C   UNL     1      42.851 -14.889   4.442  1.00  0.00     0.033 A 
HETATM   31  C   UNL     1      42.576 -13.633   4.998  1.00  0.00     0.039 A 
HETATM   32  C   UNL     1      41.372 -13.395   5.665  1.00  0.00     0.068 A 
HETATM   33  C   UNL     1      40.469 -14.439   5.841  1.00  0.00     0.039 A 
HETATM   34  C   UNL     1      40.751 -15.698   5.305  1.00  0.00     0.033 A 
BRANCH  32  35
HETATM   35  O   UNL     1      41.189 -12.124   6.131  1.00  0.00    -0.352 OA
BRANCH  35  36
HETATM   36  C   UNL     1      39.825 -11.738   6.326  1.00  0.00     0.171 C 
HETATM   37  C   UNL     1      39.632 -11.400   7.794  1.00  0.00     0.034 C 
ENDBRANCH  35  36
ENDBRANCH  32  35
ENDBRANCH   1  29
BRANCH   6  38
HETATM   38  N   UNL     1      43.135 -18.238   5.873  1.00  0.00    -0.384 N 
HETATM   39  H   UNL     1      44.022 -17.994   6.287  1.00  0.00     0.157 HD
HETATM   40  H   UNL     1      42.385 -18.536   6.485  1.00  0.00     0.157 HD
ENDBRANCH   6  38
TORSDOF 11
ENDMDL
MODEL 6
REMARK VINA RESULT:      -7.9      5.007     10.175
REMARK  11 active torsions:
REMARK  status: ('A' for Active; 'I' for Inactive)
REMARK    1  A    between atoms: C_2  and  O_3 
REMARK    2  A    between atoms: O_3  and  C_4 
REMARK    3  A    between atoms: C_7  and  N_8 
REMARK    4  A    between atoms: C_9  and  S_10 
REMARK    5  A    between atoms: S_10  and  C_11 
REMARK    6  A    between atoms: C_11  and  C_12 
REMARK       I    between atoms: C_12  and  N_13 
REMARK    7  A    between atoms: N_13  and  C_14 
REMARK    8  A    between atoms: C_15  and  C_16 
REMARK    9  A    between atoms: C_16  and  O_17 
REMARK   10  A    between atoms: O_17  and  C_18 
REMARK   11  A    between atoms: C_29  and  N_30 
ROOT
HETATM    1  N   UNL     1      41.476 -15.996   4.143  1.00  0.00    -0.276 N 
HETATM    2  C   UNL     1      41.605 -17.046   3.195  1.00  0.00     0.177 C 
HETATM    3  N   UNL     1      42.292 -18.144   3.363  1.00  0.00    -0.204 NA
HETATM    4  C   UNL     1      42.854 -18.269   4.583  1.00  0.00     0.162 A 
HETATM    5  C   UNL     1      42.742 -17.447   5.668  1.00  0.00     0.081 A 
HETATM    6  C   UNL     1      42.009 -16.233   5.484  1.00  0.00     0.124 C 
HETATM    7  N   UNL     1      43.600 -19.331   5.003  1.00  0.00    -0.260 N 
HETATM    8  H   UNL     1      43.876 -20.149   4.468  1.00  0.00     0.191 HD
HETATM    9  N   UNL     1      43.938 -19.244   6.310  1.00  0.00    -0.177 NA
HETATM   10  C   UNL     1      43.412 -18.081   6.724  1.00  0.00     0.068 A 
HETATM   11  C   UNL     1      43.577 -17.665   8.136  1.00  0.00     0.073 C 
ENDROOT
BRANCH   2  12
HETATM   12  S   UNL     1      40.630 -17.022   1.712  1.00  0.00    -0.082 SA
BRANCH  12  13
HETATM   13  C   UNL     1      41.750 -16.318   0.466  1.00  0.00     0.185 C 
BRANCH  13  14
HETATM   14  C   UNL     1      41.228 -15.180  -0.410  1.00  0.00     0.231 C 
HETATM   15  N   UNL     1      41.762 -15.069  -1.687  1.00  0.00    -0.326 N 
HETATM   16  H   UNL     1      42.656 -15.530  -1.785  1.00  0.00     0.169 HD
HETATM   17  O   UNL     1      40.401 -14.393   0.055  1.00  0.00    -0.272 OA
BRANCH  15  18
HETATM   18  C   UNL     1      41.559 -13.911  -2.479  1.00  0.00     0.051 A 
HETATM   19  C   UNL     1      40.397 -13.640  -3.221  1.00  0.00     0.066 A 
HETATM   20  C   UNL     1      40.238 -12.376  -3.820  1.00  0.00     0.020 A 
HETATM   21  C   UNL     1      41.234 -11.405  -3.709  1.00  0.00     0.001 A 
HETATM   22  C   UNL     1      42.418 -11.704  -3.044  1.00  0.00     0.002 A 
HETATM   23  C   UNL     1      42.589 -12.955  -2.451  1.00  0.00     0.030 A 
BRANCH  19  24
HETATM   24  C   UNL     1      39.432 -14.719  -3.566  1.00  0.00     0.295 C 
HETATM   25  O   UNL     1      39.732 -15.719  -4.202  1.00  0.00    -0.259 OA
BRANCH  24  26
HETATM   26  O   UNL     1      38.181 -14.366  -3.173  1.00  0.00    -0.318 OA
BRANCH  26  27
HETATM   27  C   UNL     1      37.109 -15.050  -3.835  1.00  0.00     0.174 C 
HETATM   28  C   UNL     1      36.248 -14.084  -4.626  1.00  0.00     0.034 C 
ENDBRANCH  26  27
ENDBRANCH  24  26
ENDBRANCH  19  24
ENDBRANCH  15  18
ENDBRANCH  13  14
ENDBRANCH  12  13
ENDBRANCH   2  12
BRANCH   1  29
HETATM   29  C   UNL     1      41.227 -14.647   3.735  1.00  0.00     0.043 A 
HETATM   30  C   UNL     1      42.216 -13.840   3.166  1.00  0.00     0.033 A 
HETATM   31  C   UNL     1      41.890 -12.574   2.664  1.00  0.00     0.039 A 
HETATM   32  C   UNL     1      40.572 -12.114   2.687  1.00  0.00     0.068 A 
HETATM   33  C   UNL     1      39.584 -12.895   3.281  1.00  0.00     0.039 A 
HETATM   34  C   UNL     1      39.911 -14.149   3.801  1.00  0.00     0.033 A 
BRANCH  32  35
HETATM   35  O   UNL     1      40.359 -10.884   2.133  1.00  0.00    -0.352 OA
BRANCH  35  36
HETATM   36  C   UNL     1      41.039 -10.647   0.897  1.00  0.00     0.171 C 
HETATM   37  C   UNL     1      40.066 -10.907  -0.238  1.00  0.00     0.034 C 
ENDBRANCH  35  36
ENDBRANCH  32  35
ENDBRANCH   1  29
BRANCH   6  38
HETATM   38  N   UNL     1      41.822 -15.382   6.475  1.00  0.00    -0.384 N 
HETATM   39  H   UNL     1      41.458 -15.672   7.370  1.00  0.00     0.157 HD
HETATM   40  H   UNL     1      42.025 -14.400   6.333  1.00  0.00     0.157 HD
ENDBRANCH   6  38
TORSDOF 11
ENDMDL
MODEL 7
REMARK VINA RESULT:      -7.8      2.007      2.299
REMARK  11 active torsions:
REMARK  status: ('A' for Active; 'I' for Inactive)
REMARK    1  A    between atoms: C_2  and  O_3 
REMARK    2  A    between atoms: O_3  and  C_4 
REMARK    3  A    between atoms: C_7  and  N_8 
REMARK    4  A    between atoms: C_9  and  S_10 
REMARK    5  A    between atoms: S_10  and  C_11 
REMARK    6  A    between atoms: C_11  and  C_12 
REMARK       I    between atoms: C_12  and  N_13 
REMARK    7  A    between atoms: N_13  and  C_14 
REMARK    8  A    between atoms: C_15  and  C_16 
REMARK    9  A    between atoms: C_16  and  O_17 
REMARK   10  A    between atoms: O_17  and  C_18 
REMARK   11  A    between atoms: C_29  and  N_30 
ROOT
HETATM    1  N   UNL     1      41.273 -13.896   4.439  1.00  0.00    -0.276 N 
HETATM    2  C   UNL     1      40.919 -12.623   4.962  1.00  0.00     0.177 C 
HETATM    3  N   UNL     1      40.918 -11.500   4.295  1.00  0.00    -0.204 NA
HETATM    4  C   UNL     1      41.227 -11.626   2.988  1.00  0.00     0.162 A 
HETATM    5  C   UNL     1      41.465 -12.762   2.268  1.00  0.00     0.081 A 
HETATM    6  C   UNL     1      41.488 -13.993   2.996  1.00  0.00     0.124 C 
HETATM    7  N   UNL     1      41.273 -10.604   2.086  1.00  0.00    -0.260 N 
HETATM    8  H   UNL     1      41.129  -9.614   2.258  1.00  0.00     0.191 HD
HETATM    9  N   UNL     1      41.493 -11.035   0.823  1.00  0.00    -0.177 NA
HETATM   10  C   UNL     1      41.614 -12.368   0.932  1.00  0.00     0.068 A 
HETATM   11  C   UNL     1      41.849 -13.182  -0.283  1.00  0.00     0.073 C 
ENDROOT
BRANCH   2  12
HETATM   12  S   UNL     1      40.230 -12.497   6.593  1.00  0.00    -0.082 SA
BRANCH  12  13
HETATM   13  C   UNL     1      40.394 -10.735   7.000  1.00  0.00     0.185 C 
BRANCH  13  14
HETATM   14  C   UNL     1      41.391 -10.336   8.089  1.00  0.00     0.231 C 
HETATM   15  N   UNL     1      41.375 -11.077   9.262  1.00  0.00    -0.326 N 
HETATM   16  H   UNL     1      40.506 -11.572   9.408  1.00  0.00     0.169 HD
HETATM   17  O   UNL     1      42.127  -9.365   7.903  1.00  0.00    -0.272 OA
BRANCH  15  18
HETATM   18  C   UNL     1      42.052 -10.638  10.428  1.00  0.00     0.051 A 
HETATM   19  C   UNL     1      43.371 -10.986  10.768  1.00  0.00     0.066 A 
HETATM   20  C   UNL     1      43.997 -10.343  11.852  1.00  0.00     0.020 A 
HETATM   21  C   UNL     1      43.314  -9.389  12.607  1.00  0.00     0.001 A 
HETATM   22  C   UNL     1      41.983  -9.106  12.319  1.00  0.00     0.002 A 
HETATM   23  C   UNL     1      41.350  -9.741  11.250  1.00  0.00     0.030 A 
BRANCH  19  24
HETATM   24  C   UNL     1      44.043 -12.161  10.150  1.00  0.00     0.295 C 
HETATM   25  O   UNL     1      44.384 -13.154  10.775  1.00  0.00    -0.259 OA
BRANCH  24  26
HETATM   26  O   UNL     1      44.311 -11.907   8.842  1.00  0.00    -0.318 OA
BRANCH  26  27
HETATM   27  C   UNL     1      45.221 -12.817   8.210  1.00  0.00     0.174 C 
HETATM   28  C   UNL     1      46.592 -12.191   8.040  1.00  0.00     0.034 C 
ENDBRANCH  26  27
ENDBRANCH  24  26
ENDBRANCH  19  24
ENDBRANCH  15  18
ENDBRANCH  13  14
ENDBRANCH  12  13
ENDBRANCH   2  12
BRANCH   1  29
HETATM   29  C   UNL     1      41.797 -14.929   5.279  1.00  0.00     0.043 A 
HETATM   30  C   UNL     1      43.087 -14.879   5.815  1.00  0.00     0.033 A 
HETATM   31  C   UNL     1      43.506 -15.848   6.735  1.00  0.00     0.039 A 
HETATM   32  C   UNL     1      42.634 -16.852   7.162  1.00  0.00     0.068 A 
HETATM   33  C   UNL     1      41.359 -16.931   6.612  1.00  0.00     0.039 A 
HETATM   34  C   UNL     1      40.946 -15.978   5.678  1.00  0.00     0.033 A 
BRANCH  32  35
HETATM   35  O   UNL     1      43.133 -17.719   8.093  1.00  0.00    -0.352 OA
BRANCH  35  36
HETATM   36  C   UNL     1      44.256 -18.494   7.663  1.00  0.00     0.171 C 
HETATM   37  C   UNL     1      43.740 -19.807   7.103  1.00  0.00     0.034 C 
ENDBRANCH  35  36
ENDBRANCH  32  35
ENDBRANCH   1  29
BRANCH   6  38
HETATM   38  N   UNL     1      41.686 -15.149   2.391  1.00  0.00    -0.384 N 
HETATM   39  H   UNL     1      40.983 -15.577   1.807  1.00  0.00     0.157 HD
HETATM   40  H   UNL     1      42.559 -15.642   2.533  1.00  0.00     0.157 HD
ENDBRANCH   6  38
TORSDOF 11
ENDMDL
MODEL 8
REMARK VINA RESULT:      -7.8      3.951      7.988
REMARK  11 active torsions:
REMARK  status: ('A' for Active; 'I' for Inactive)
REMARK    1  A    between atoms: C_2  and  O_3 
REMARK    2  A    between atoms: O_3  and  C_4 
REMARK    3  A    between atoms: C_7  and  N_8 
REMARK    4  A    between atoms: C_9  and  S_10 
REMARK    5  A    between atoms: S_10  and  C_11 
REMARK    6  A    between atoms: C_11  and  C_12 
REMARK       I    between atoms: C_12  and  N_13 
REMARK    7  A    between atoms: N_13  and  C_14 
REMARK    8  A    between atoms: C_15  and  C_16 
REMARK    9  A    between atoms: C_16  and  O_17 
REMARK   10  A    between atoms: O_17  and  C_18 
REMARK   11  A    between atoms: C_29  and  N_30 
ROOT
HETATM    1  N   UNL     1      41.111 -13.396   0.939  1.00  0.00    -0.276 N 
HETATM    2  C   UNL     1      40.887 -14.794   0.831  1.00  0.00     0.177 C 
HETATM    3  N   UNL     1      40.887 -15.482  -0.280  1.00  0.00    -0.204 NA
HETATM    4  C   UNL     1      41.194 -14.764  -1.380  1.00  0.00     0.162 A 
HETATM    5  C   UNL     1      41.568 -13.454  -1.474  1.00  0.00     0.081 A 
HETATM    6  C   UNL     1      41.549 -12.691  -0.264  1.00  0.00     0.124 C 
HETATM    7  N   UNL     1      41.276 -15.261  -2.648  1.00  0.00    -0.260 N 
HETATM    8  H   UNL     1      41.085 -16.208  -2.960  1.00  0.00     0.191 HD
HETATM    9  N   UNL     1      41.718 -14.343  -3.538  1.00  0.00    -0.177 NA
HETATM   10  C   UNL     1      41.897 -13.225  -2.817  1.00  0.00     0.068 A 
HETATM   11  C   UNL     1      42.401 -12.000  -3.481  1.00  0.00     0.073 C 
ENDROOT
BRANCH   2  12
HETATM   12  S   UNL     1      40.777 -15.788   2.297  1.00  0.00    -0.082 SA
BRANCH  12  13
HETATM   13  C   UNL     1      42.497 -15.913   2.869  1.00  0.00     0.185 C 
BRANCH  13  14
HETATM   14  C   UNL     1      43.263 -17.201   2.573  1.00  0.00     0.231 C 
HETATM   15  N   UNL     1      42.752 -18.378   3.103  1.00  0.00    -0.326 N 
HETATM   16  H   UNL     1      42.133 -18.224   3.888  1.00  0.00     0.169 HD
HETATM   17  O   UNL     1      44.309 -17.143   1.923  1.00  0.00    -0.272 OA
BRANCH  15  18
HETATM   18  C   UNL     1      43.510 -19.575   3.125  1.00  0.00     0.051 A 
HETATM   19  C   UNL     1      44.191 -20.073   4.249  1.00  0.00     0.066 A 
HETATM   20  C   UNL     1      44.756 -21.362   4.200  1.00  0.00     0.020 A 
HETATM   21  C   UNL     1      44.671 -22.133   3.040  1.00  0.00     0.001 A 
HETATM   22  C   UNL     1      44.069 -21.606   1.903  1.00  0.00     0.002 A 
HETATM   23  C   UNL     1      43.511 -20.327   1.938  1.00  0.00     0.030 A 
BRANCH  19  24
HETATM   24  C   UNL     1      44.513 -19.197   5.408  1.00  0.00     0.295 C 
HETATM   25  O   UNL     1      45.639 -18.801   5.666  1.00  0.00    -0.259 OA
BRANCH  24  26
HETATM   26  O   UNL     1      43.404 -19.012   6.171  1.00  0.00    -0.318 OA
BRANCH  26  27
HETATM   27  C   UNL     1      43.236 -17.692   6.706  1.00  0.00     0.174 C 
HETATM   28  C   UNL     1      41.843 -17.161   6.428  1.00  0.00     0.034 C 
ENDBRANCH  26  27
ENDBRANCH  24  26
ENDBRANCH  19  24
ENDBRANCH  15  18
ENDBRANCH  13  14
ENDBRANCH  12  13
ENDBRANCH   2  12
BRANCH   1  29
HETATM   29  C   UNL     1      40.559 -12.632   2.015  1.00  0.00     0.043 A 
HETATM   30  C   UNL     1      39.192 -12.354   2.115  1.00  0.00     0.033 A 
HETATM   31  C   UNL     1      38.684 -11.715   3.253  1.00  0.00     0.039 A 
HETATM   32  C   UNL     1      39.523 -11.383   4.320  1.00  0.00     0.068 A 
HETATM   33  C   UNL     1      40.889 -11.624   4.218  1.00  0.00     0.039 A 
HETATM   34  C   UNL     1      41.401 -12.242   3.075  1.00  0.00     0.033 A 
BRANCH  32  35
HETATM   35  O   UNL     1      38.916 -10.802   5.397  1.00  0.00    -0.352 OA
BRANCH  35  36
HETATM   36  C   UNL     1      39.758 -10.602   6.536  1.00  0.00     0.171 C 
HETATM   37  C   UNL     1      39.410 -11.652   7.575  1.00  0.00     0.034 C 
ENDBRANCH  35  36
ENDBRANCH  32  35
ENDBRANCH   1  29
BRANCH   6  38
HETATM   38  N   UNL     1      41.916 -11.423  -0.243  1.00  0.00    -0.384 N 
HETATM   39  H   UNL     1      41.445 -10.738   0.327  1.00  0.00     0.157 HD
HETATM   40  H   UNL     1      42.678 -11.115  -0.834  1.00  0.00     0.157 HD
ENDBRANCH   6  38
TORSDOF 11
ENDMDL
MODEL 9
REMARK VINA RESULT:      -7.7      4.403      9.674
REMARK  11 active torsions:
REMARK  status: ('A' for Active; 'I' for Inactive)
REMARK    1  A    between atoms: C_2  and  O_3 
REMARK    2  A    between atoms: O_3  and  C_4 
REMARK    3  A    between atoms: C_7  and  N_8 
REMARK    4  A    between atoms: C_9  and  S_10 
REMARK    5  A    between atoms: S_10  and  C_11 
REMARK    6  A    between atoms: C_11  and  C_12 
REMARK       I    between atoms: C_12  and  N_13 
REMARK    7  A    between atoms: N_13  and  C_14 
REMARK    8  A    between atoms: C_15  and  C_16 
REMARK    9  A    between atoms: C_16  and  O_17 
REMARK   10  A    between atoms: O_17  and  C_18 
REMARK   11  A    between atoms: C_29  and  N_30 
ROOT
HETATM    1  N   UNL     1      42.330 -17.573   3.888  1.00  0.00    -0.276 N 
HETATM    2  C   UNL     1      41.980 -17.770   2.525  1.00  0.00     0.177 C 
HETATM    3  N   UNL     1      42.468 -18.693   1.740  1.00  0.00    -0.204 NA
HETATM    4  C   UNL     1      43.325 -19.543   2.342  1.00  0.00     0.162 A 
HETATM    5  C   UNL     1      43.687 -19.608   3.657  1.00  0.00     0.081 A 
HETATM    6  C   UNL     1      43.174 -18.588   4.518  1.00  0.00     0.124 C 
HETATM    7  N   UNL     1      43.947 -20.596   1.738  1.00  0.00    -0.260 N 
HETATM    8  H   UNL     1      43.898 -20.872   0.762  1.00  0.00     0.191 HD
HETATM    9  N   UNL     1      44.658 -21.349   2.608  1.00  0.00    -0.177 NA
HETATM   10  C   UNL     1      44.502 -20.740   3.795  1.00  0.00     0.068 A 
HETATM   11  C   UNL     1      45.143 -21.314   5.000  1.00  0.00     0.073 C 
ENDROOT
BRANCH   2  12
HETATM   12  S   UNL     1      40.642 -16.847   1.814  1.00  0.00    -0.082 SA
BRANCH  12  13
HETATM   13  C   UNL     1      41.406 -15.983   0.411  1.00  0.00     0.185 C 
BRANCH  13  14
HETATM   14  C   UNL     1      40.771 -14.675  -0.062  1.00  0.00     0.231 C 
HETATM   15  N   UNL     1      39.686 -14.773  -0.922  1.00  0.00    -0.326 N 
HETATM   16  H   UNL     1      39.638 -15.662  -1.401  1.00  0.00     0.169 HD
HETATM   17  O   UNL     1      41.264 -13.603   0.297  1.00  0.00    -0.272 OA
BRANCH  15  18
HETATM   18  C   UNL     1      39.195 -13.648  -1.631  1.00  0.00     0.051 A 
HETATM   19  C   UNL     1      39.603 -13.273  -2.922  1.00  0.00     0.066 A 
HETATM   20  C   UNL     1      38.912 -12.246  -3.594  1.00  0.00     0.020 A 
HETATM   21  C   UNL     1      37.850 -11.582  -2.980  1.00  0.00     0.001 A 
HETATM   22  C   UNL     1      37.502 -11.898  -1.671  1.00  0.00     0.002 A 
HETATM   23  C   UNL     1      38.183 -12.910  -0.994  1.00  0.00     0.030 A 
BRANCH  19  24
HETATM   24  C   UNL     1      40.871 -13.783  -3.510  1.00  0.00     0.295 C 
HETATM   25  O   UNL     1      41.097 -14.967  -3.709  1.00  0.00    -0.259 OA
BRANCH  24  26
HETATM   26  O   UNL     1      41.750 -12.761  -3.675  1.00  0.00    -0.318 OA
BRANCH  26  27
HETATM   27  C   UNL     1      42.808 -12.695  -2.709  1.00  0.00     0.174 C 
HETATM   28  C   UNL     1      42.839 -11.344  -2.022  1.00  0.00     0.034 C 
ENDBRANCH  26  27
ENDBRANCH  24  26
ENDBRANCH  19  24
ENDBRANCH  15  18
ENDBRANCH  13  14
ENDBRANCH  12  13
ENDBRANCH   2  12
BRANCH   1  29
HETATM   29  C   UNL     1      42.232 -16.286   4.506  1.00  0.00     0.043 A 
HETATM   30  C   UNL     1      43.157 -15.265   4.266  1.00  0.00     0.033 A 
HETATM   31  C   UNL     1      42.945 -13.985   4.792  1.00  0.00     0.039 A 
HETATM   32  C   UNL     1      41.793 -13.696   5.527  1.00  0.00     0.068 A 
HETATM   33  C   UNL     1      40.883 -14.712   5.801  1.00  0.00     0.039 A 
HETATM   34  C   UNL     1      41.103 -15.995   5.295  1.00  0.00     0.033 A 
BRANCH  32  35
HETATM   35  O   UNL     1      41.667 -12.405   5.956  1.00  0.00    -0.352 OA
BRANCH  35  36
HETATM   36  C   UNL     1      40.979 -11.529   5.058  1.00  0.00     0.171 C 
HETATM   37  C   UNL     1      39.594 -11.265   5.618  1.00  0.00     0.034 C 
ENDBRANCH  35  36
ENDBRANCH  32  35
ENDBRANCH   1  29
BRANCH   6  38
HETATM   38  N   UNL     1      43.445 -18.574   5.810  1.00  0.00    -0.384 N 
HETATM   39  H   UNL     1      42.789 -18.226   6.492  1.00  0.00     0.157 HD
HETATM   40  H   UNL     1      44.348 -18.898   6.133  1.00  0.00     0.157 HD
ENDBRANCH   6  38
TORSDOF 11
ENDMDL
MODEL 10
REMARK VINA RESULT:      -7.7      2.489      5.195
REMARK  11 active torsions:
REMARK  status: ('A' for Active; 'I' for Inactive)
REMARK    1  A    between atoms: C_2  and  O_3 
REMARK    2  A    between atoms: O_3  and  C_4 
REMARK    3  A    between atoms: C_7  and  N_8 
REMARK    4  A    between atoms: C_9  and  S_10 
REMARK    5  A    between atoms: S_10  and  C_11 
REMARK    6  A    between atoms: C_11  and  C_12 
REMARK       I    between atoms: C_12  and  N_13 
REMARK    7  A    between atoms: N_13  and  C_14 
REMARK    8  A    between atoms: C_15  and  C_16 
REMARK    9  A    between atoms: C_16  and  O_17 
REMARK   10  A    between atoms: O_17  and  C_18 
REMARK   11  A    between atoms: C_29  and  N_30 
ROOT
HETATM    1  N   UNL     1      42.150 -14.455   3.723  1.00  0.00    -0.276 N 
HETATM    2  C   UNL     1      42.134 -13.523   4.795  1.00  0.00     0.177 C 
HETATM    3  N   UNL     1      42.529 -13.761   6.017  1.00  0.00    -0.204 NA
HETATM    4  C   UNL     1      43.046 -14.992   6.206  1.00  0.00     0.162 A 
HETATM    5  C   UNL     1      43.273 -15.978   5.289  1.00  0.00     0.081 A 
HETATM    6  C   UNL     1      42.822 -15.732   3.954  1.00  0.00     0.124 C 
HETATM    7  N   UNL     1      43.542 -15.467   7.385  1.00  0.00    -0.260 N 
HETATM    8  H   UNL     1      43.561 -15.000   8.287  1.00  0.00     0.191 HD
HETATM    9  N   UNL     1      44.104 -16.691   7.257  1.00  0.00    -0.177 NA
HETATM   10  C   UNL     1      43.938 -17.011   5.964  1.00  0.00     0.068 A 
HETATM   11  C   UNL     1      44.458 -18.302   5.459  1.00  0.00     0.073 C 
ENDROOT
BRANCH   2  12
HETATM   12  S   UNL     1      41.734 -11.822   4.482  1.00  0.00    -0.082 SA
BRANCH  12  13
HETATM   13  C   UNL     1      40.818 -11.310   5.965  1.00  0.00     0.185 C 
BRANCH  13  14
HETATM   14  C   UNL     1      41.599 -10.651   7.103  1.00  0.00     0.231 C 
HETATM   15  N   UNL     1      41.736 -11.377   8.278  1.00  0.00    -0.326 N 
HETATM   16  H   UNL     1      41.041 -12.103   8.380  1.00  0.00     0.169 HD
HETATM   17  O   UNL     1      42.032  -9.507   6.951  1.00  0.00    -0.272 OA
BRANCH  15  18
HETATM   18  C   UNL     1      42.197 -10.772   9.475  1.00  0.00     0.051 A 
HETATM   19  C   UNL     1      43.430 -11.047  10.090  1.00  0.00     0.066 A 
HETATM   20  C   UNL     1      43.856 -10.253  11.171  1.00  0.00     0.020 A 
HETATM   21  C   UNL     1      43.054  -9.218  11.654  1.00  0.00     0.001 A 
HETATM   22  C   UNL     1      41.798  -9.001  11.098  1.00  0.00     0.002 A 
HETATM   23  C   UNL     1      41.363  -9.786  10.030  1.00  0.00     0.030 A 
BRANCH  19  24
HETATM   24  C   UNL     1      44.196 -12.282   9.766  1.00  0.00     0.295 C 
HETATM   25  O   UNL     1      44.460 -13.149  10.585  1.00  0.00    -0.259 OA
BRANCH  24  26
HETATM   26  O   UNL     1      44.638 -12.230   8.483  1.00  0.00    -0.318 OA
BRANCH  26  27
HETATM   27  C   UNL     1      45.927 -12.813   8.250  1.00  0.00     0.174 C 
HETATM   28  C   UNL     1      46.961 -11.749   7.938  1.00  0.00     0.034 C 
ENDBRANCH  26  27
ENDBRANCH  24  26
ENDBRANCH  19  24
ENDBRANCH  15  18
ENDBRANCH  13  14
ENDBRANCH  12  13
ENDBRANCH   2  12
BRANCH   1  29
HETATM   29  C   UNL     1      41.229 -14.355   2.632  1.00  0.00     0.043 A 
HETATM   30  C   UNL     1      39.896 -14.764   2.735  1.00  0.00     0.033 A 
HETATM   31  C   UNL     1      39.003 -14.525   1.683  1.00  0.00     0.039 A 
HETATM   32  C   UNL     1      39.415 -13.843   0.537  1.00  0.00     0.068 A 
HETATM   33  C   UNL     1      40.747 -13.460   0.409  1.00  0.00     0.039 A 
HETATM   34  C   UNL     1      41.644 -13.716   1.448  1.00  0.00     0.033 A 
BRANCH  32  35
HETATM   35  O   UNL     1      38.452 -13.627  -0.408  1.00  0.00    -0.352 OA
BRANCH  35  36
HETATM   36  C   UNL     1      38.919 -13.614  -1.761  1.00  0.00     0.171 C 
HETATM   37  C   UNL     1      37.944 -14.413  -2.607  1.00  0.00     0.034 C 
ENDBRANCH  35  36
ENDBRANCH  32  35
ENDBRANCH   1  29
BRANCH   6  38
HETATM   38  N   UNL     1      43.014 -16.611   2.988  1.00  0.00    -0.384 N 
HETATM   39  H   UNL     1      43.426 -16.356   2.104  1.00  0.00     0.157 HD
HETATM   40  H   UNL     1      42.717 -17.570   3.122  1.00  0.00     0.157 HD
ENDBRANCH   6  38
TORSDOF 11
ENDMDL
