MODEL 1
REMARK VINA RESULT:      -8.8      0.000      0.000
REMARK  7 active torsions:
REMARK  status: ('A' for Active; 'I' for Inactive)
REMARK    1  A    between atoms: C_2  and  N_3 
REMARK    2  A    between atoms: N_3  and  C_4 
REMARK    3  A    between atoms: C_4  and  N_5 
REMARK    4  A    between atoms: N_5  and  N_6 
REMARK    5  A    between atoms: N_6  and  C_7 
REMARK    6  A    between atoms: N_8  and  C_9 
REMARK    7  A    between atoms: C_10  and  O_11 
ROOT
HETATM    1  C   UNL     1      41.240 -16.751   0.721  1.00  0.00     0.729 C 
HETATM    2  N   UNL     1      40.813 -15.834   1.671  1.00  0.00    -0.105 N 
HETATM    3  C   UNL     1      41.422 -15.787   2.915  1.00  0.00     0.276 C 
HETATM    4  O   UNL     1      41.459 -14.777   3.619  1.00  0.00    -0.266 OA
HETATM    5  C   UNL     1      42.159 -17.013   3.331  1.00  0.00     0.050 C 
HETATM    6  C   UNL     1      42.472 -17.859   2.329  1.00  0.00     0.099 C 
HETATM    7  C   UNL     1      43.324 -19.041   2.631  1.00  0.00     0.000 A 
HETATM    8  C   UNL     1      43.517 -19.451   3.959  1.00  0.00    -0.044 A 
HETATM    9  C   UNL     1      44.300 -20.580   4.246  1.00  0.00     0.008 A 
HETATM   10  C   UNL     1      44.910 -21.294   3.218  1.00  0.00     0.001 A 
HETATM   11  C   UNL     1      44.735 -20.891   1.898  1.00  0.00     0.001 A 
HETATM   12  C   UNL     1      43.945 -19.775   1.609  1.00  0.00     0.014 A 
HETATM   13  C   UNL     1      42.809 -18.722   5.066  1.00  0.00     0.054 C 
HETATM   14  C   UNL     1      42.604 -17.197   4.794  1.00  0.00    -0.002 C 
HETATM   15  C   UNL     1      43.933 -16.413   4.997  1.00  0.00     0.015 C 
HETATM   16  C   UNL     1      44.436 -16.391   6.442  1.00  0.00     0.001 C 
HETATM   17  C   UNL     1      43.364 -15.916   7.414  1.00  0.00     0.000 C 
HETATM   18  C   UNL     1      42.076 -16.722   7.281  1.00  0.00     0.001 C 
HETATM   19  C   UNL     1      41.554 -16.708   5.840  1.00  0.00     0.015 C 
HETATM   20  N   UNL     1      42.079 -17.704   1.023  1.00  0.00    -0.061 NA
ENDROOT
BRANCH   1  21
HETATM   21  N   UNL     1      40.753 -16.661  -0.573  1.00  0.00    -0.127 N 
HETATM   22  H   UNL     1      40.381 -17.518  -0.984  1.00  0.00     0.205 HD
BRANCH  21  23
HETATM   23  N   UNL     1      41.493 -15.877  -1.473  1.00  0.00    -0.262 N 
HETATM   24  H   UNL     1      42.490 -16.083  -1.453  1.00  0.00     0.190 HD
BRANCH  23  25
HETATM   25  C   UNL     1      40.898 -15.413  -2.619  1.00  0.00     0.186 C 
HETATM   26  S   UNL     1      41.261 -13.964  -3.375  1.00  0.00    -0.040 SA
BRANCH  25  27
HETATM   27  N   UNL     1      39.987 -16.236  -3.211  1.00  0.00    -0.366 N 
HETATM   28  H   UNL     1      39.874 -17.125  -2.737  1.00  0.00     0.161 HD
BRANCH  27  29
HETATM   29  C   UNL     1      38.976 -15.882  -4.193  1.00  0.00     0.117 C 
HETATM   30  C   UNL     1      37.736 -15.299  -3.538  1.00  0.00     0.026 C 
ENDBRANCH  27  29
ENDBRANCH  25  27
ENDBRANCH  23  25
ENDBRANCH  21  23
ENDBRANCH   1  21
BRANCH   2  31
HETATM   31  C   UNL     1      39.948 -14.748   1.334  1.00  0.00     0.094 A 
HETATM   32  C   UNL     1      40.479 -13.600   0.710  1.00  0.00     0.096 A 
HETATM   33  C   UNL     1      39.624 -12.540   0.394  1.00  0.00     0.039 A 
HETATM   34  C   UNL     1      38.259 -12.619   0.690  1.00  0.00     0.003 A 
HETATM   35  C   UNL     1      37.736 -13.754   1.305  1.00  0.00     0.002 A 
HETATM   36  C   UNL     1      38.576 -14.817   1.627  1.00  0.00     0.034 A 
BRANCH  32  37
HETATM   37  O   UNL     1      41.839 -13.590   0.519  1.00  0.00    -0.354 OA
HETATM   38  C   UNL     1      42.402 -12.452  -0.120  1.00  0.00     0.210 C 
ENDBRANCH  32  37
ENDBRANCH   2  31
TORSDOF 7
ENDMDL
MODEL 2
REMARK VINA RESULT:      -8.4      1.088      1.764
REMARK  7 active torsions:
REMARK  status: ('A' for Active; 'I' for Inactive)
REMARK    1  A    between atoms: C_2  and  N_3 
REMARK    2  A    between atoms: N_3  and  C_4 
REMARK    3  A    between atoms: C_4  and  N_5 
REMARK    4  A    between atoms: N_5  and  N_6 
REMARK    5  A    between atoms: N_6  and  C_7 
REMARK    6  A    between atoms: N_8  and  C_9 
REMARK    7  A    between atoms: C_10  and  O_11 
ROOT
HETATM    1  C   UNL     1      42.104 -15.537   0.819  1.00  0.00     0.729 C 
HETATM    2  N   UNL     1      41.776 -14.731   1.901  1.00  0.00    -0.105 N 
HETATM    3  C   UNL     1      42.219 -15.060   3.172  1.00  0.00     0.276 C 
HETATM    4  O   UNL     1      42.391 -14.235   4.070  1.00  0.00    -0.266 OA
HETATM    5  C   UNL     1      42.605 -16.483   3.384  1.00  0.00     0.050 C 
HETATM    6  C   UNL     1      42.844 -17.184   2.257  1.00  0.00     0.099 C 
HETATM    7  C   UNL     1      43.366 -18.573   2.376  1.00  0.00     0.000 A 
HETATM    8  C   UNL     1      43.295 -19.251   3.602  1.00  0.00    -0.044 A 
HETATM    9  C   UNL     1      43.764 -20.569   3.712  1.00  0.00     0.008 A 
HETATM   10  C   UNL     1      44.323 -21.212   2.611  1.00  0.00     0.001 A 
HETATM   11  C   UNL     1      44.410 -20.546   1.393  1.00  0.00     0.001 A 
HETATM   12  C   UNL     1      43.932 -19.238   1.277  1.00  0.00     0.014 A 
HETATM   13  C   UNL     1      42.634 -18.584   4.776  1.00  0.00     0.054 C 
HETATM   14  C   UNL     1      42.810 -17.032   4.808  1.00  0.00    -0.002 C 
HETATM   15  C   UNL     1      44.244 -16.646   5.273  1.00  0.00     0.015 C 
HETATM   16  C   UNL     1      44.554 -17.009   6.727  1.00  0.00     0.001 C 
HETATM   17  C   UNL     1      43.501 -16.472   7.688  1.00  0.00     0.000 C 
HETATM   18  C   UNL     1      42.093 -16.902   7.290  1.00  0.00     0.001 C 
HETATM   19  C   UNL     1      41.773 -16.500   5.846  1.00  0.00     0.015 C 
HETATM   20  N   UNL     1      42.664 -16.704   0.984  1.00  0.00    -0.061 NA
ENDROOT
BRANCH   1  21
HETATM   21  N   UNL     1      41.815 -15.097  -0.463  1.00  0.00    -0.127 N 
HETATM   22  H   UNL     1      41.764 -14.087  -0.601  1.00  0.00     0.205 HD
BRANCH  21  23
HETATM   23  N   UNL     1      40.837 -15.814  -1.171  1.00  0.00    -0.262 N 
HETATM   24  H   UNL     1      40.081 -16.150  -0.576  1.00  0.00     0.190 HD
BRANCH  23  25
HETATM   25  C   UNL     1      40.611 -15.532  -2.494  1.00  0.00     0.186 C 
HETATM   26  S   UNL     1      41.225 -14.209  -3.317  1.00  0.00    -0.040 SA
BRANCH  25  27
HETATM   27  N   UNL     1      39.880 -16.443  -3.197  1.00  0.00    -0.366 N 
HETATM   28  H   UNL     1      39.962 -17.390  -2.843  1.00  0.00     0.161 HD
BRANCH  27  29
HETATM   29  C   UNL     1      38.800 -16.183  -4.134  1.00  0.00     0.117 C 
HETATM   30  C   UNL     1      37.724 -15.303  -3.522  1.00  0.00     0.026 C 
ENDBRANCH  27  29
ENDBRANCH  25  27
ENDBRANCH  23  25
ENDBRANCH  21  23
ENDBRANCH   1  21
BRANCH   2  31
HETATM   31  C   UNL     1      41.225 -13.424   1.727  1.00  0.00     0.094 A 
HETATM   32  C   UNL     1      39.835 -13.228   1.864  1.00  0.00     0.096 A 
HETATM   33  C   UNL     1      39.308 -11.946   1.683  1.00  0.00     0.039 A 
HETATM   34  C   UNL     1      40.149 -10.872   1.370  1.00  0.00     0.003 A 
HETATM   35  C   UNL     1      41.521 -11.068   1.236  1.00  0.00     0.002 A 
HETATM   36  C   UNL     1      42.060 -12.340   1.414  1.00  0.00     0.034 A 
BRANCH  32  37
HETATM   37  O   UNL     1      39.087 -14.353   2.108  1.00  0.00    -0.354 OA
HETATM   38  C   UNL     1      38.019 -14.635   1.213  1.00  0.00     0.210 C 
ENDBRANCH  32  37
ENDBRANCH   2  31
TORSDOF 7
ENDMDL
MODEL 3
REMARK VINA RESULT:      -8.3      2.367      7.308
REMARK  7 active torsions:
REMARK  status: ('A' for Active; 'I' for Inactive)
REMARK    1  A    between atoms: C_2  and  N_3 
REMARK    2  A    between atoms: N_3  and  C_4 
REMARK    3  A    between atoms: C_4  and  N_5 
REMARK    4  A    between atoms: N_5  and  N_6 
REMARK    5  A    between atoms: N_6  and  C_7 
REMARK    6  A    between atoms: N_8  and  C_9 
REMARK    7  A    between atoms: C_10  and  O_11 
ROOT
HETATM    1  C   UNL     1      42.907 -15.873   2.037  1.00  0.00     0.729 C 
HETATM    2  N   UNL     1      42.552 -14.977   3.035  1.00  0.00    -0.105 N 
HETATM    3  C   UNL     1      41.452 -14.150   2.868  1.00  0.00     0.276 C 
HETATM    4  O   UNL     1      40.796 -13.690   3.803  1.00  0.00    -0.266 OA
HETATM    5  C   UNL     1      41.006 -13.929   1.464  1.00  0.00     0.050 C 
HETATM    6  C   UNL     1      41.461 -14.830   0.571  1.00  0.00     0.099 C 
HETATM    7  C   UNL     1      40.958 -14.766  -0.828  1.00  0.00     0.000 A 
HETATM    8  C   UNL     1      40.302 -13.616  -1.291  1.00  0.00    -0.044 A 
HETATM    9  C   UNL     1      39.849 -13.541  -2.617  1.00  0.00     0.008 A 
HETATM   10  C   UNL     1      40.028 -14.617  -3.483  1.00  0.00     0.001 A 
HETATM   11  C   UNL     1      40.667 -15.767  -3.034  1.00  0.00     0.001 A 
HETATM   12  C   UNL     1      41.131 -15.838  -1.717  1.00  0.00     0.014 A 
HETATM   13  C   UNL     1      40.164 -12.429  -0.378  1.00  0.00     0.054 C 
HETATM   14  C   UNL     1      40.010 -12.801   1.131  1.00  0.00    -0.002 C 
HETATM   15  C   UNL     1      38.575 -13.322   1.431  1.00  0.00     0.015 C 
HETATM   16  C   UNL     1      37.477 -12.266   1.274  1.00  0.00     0.001 C 
HETATM   17  C   UNL     1      37.782 -11.002   2.067  1.00  0.00     0.000 C 
HETATM   18  C   UNL     1      39.157 -10.435   1.732  1.00  0.00     0.001 C 
HETATM   19  C   UNL     1      40.257 -11.484   1.930  1.00  0.00     0.015 C 
HETATM   20  N   UNL     1      42.349 -15.836   0.858  1.00  0.00    -0.061 NA
ENDROOT
BRANCH   1  21
HETATM   21  N   UNL     1      43.888 -16.818   2.294  1.00  0.00    -0.127 N 
HETATM   22  H   UNL     1      44.856 -16.494   2.260  1.00  0.00     0.205 HD
BRANCH  21  23
HETATM   23  N   UNL     1      43.699 -18.092   1.737  1.00  0.00    -0.262 N 
HETATM   24  H   UNL     1      43.876 -18.119   0.734  1.00  0.00     0.190 HD
BRANCH  23  25
HETATM   25  C   UNL     1      43.893 -19.208   2.510  1.00  0.00     0.186 C 
HETATM   26  S   UNL     1      43.762 -20.790   1.973  1.00  0.00    -0.040 SA
BRANCH  25  27
HETATM   27  N   UNL     1      44.284 -18.998   3.799  1.00  0.00    -0.366 N 
HETATM   28  H   UNL     1      43.994 -18.100   4.170  1.00  0.00     0.161 HD
BRANCH  27  29
HETATM   29  C   UNL     1      44.751 -19.985   4.758  1.00  0.00     0.117 C 
HETATM   30  C   UNL     1      43.978 -19.910   6.064  1.00  0.00     0.026 C 
ENDBRANCH  27  29
ENDBRANCH  25  27
ENDBRANCH  23  25
ENDBRANCH  21  23
ENDBRANCH   1  21
BRANCH   2  31
HETATM   31  C   UNL     1      43.109 -15.053   4.349  1.00  0.00     0.094 A 
HETATM   32  C   UNL     1      42.884 -16.200   5.138  1.00  0.00     0.096 A 
HETATM   33  C   UNL     1      43.427 -16.257   6.425  1.00  0.00     0.039 A 
HETATM   34  C   UNL     1      44.186 -15.192   6.922  1.00  0.00     0.003 A 
HETATM   35  C   UNL     1      44.408 -14.061   6.140  1.00  0.00     0.002 A 
HETATM   36  C   UNL     1      43.873 -13.989   4.857  1.00  0.00     0.034 A 
BRANCH  32  37
HETATM   37  O   UNL     1      42.074 -17.162   4.588  1.00  0.00    -0.354 OA
HETATM   38  C   UNL     1      40.911 -17.533   5.316  1.00  0.00     0.210 C 
ENDBRANCH  32  37
ENDBRANCH   2  31
TORSDOF 7
ENDMDL
MODEL 4
REMARK VINA RESULT:      -8.0      3.053      8.045
REMARK  7 active torsions:
REMARK  status: ('A' for Active; 'I' for Inactive)
REMARK    1  A    between atoms: C_2  and  N_3 
REMARK    2  A    between atoms: N_3  and  C_4 
REMARK    3  A    between atoms: C_4  and  N_5 
REMARK    4  A    between atoms: N_5  and  N_6 
REMARK    5  A    between atoms: N_6  and  C_7 
REMARK    6  A    between atoms: N_8  and  C_9 
REMARK    7  A    between atoms: C_10  and  O_11 
ROOT
HETATM    1  C   UNL     1      41.615 -17.146   3.842  1.00  0.00     0.729 C 
HETATM    2  N   UNL     1      42.145 -17.643   2.659  1.00  0.00    -0.105 N 
HETATM    3  C   UNL     1      42.223 -16.832   1.538  1.00  0.00     0.276 C 
HETATM    4  O   UNL     1      43.050 -16.988   0.639  1.00  0.00    -0.266 OA
HETATM    5  C   UNL     1      41.315 -15.651   1.519  1.00  0.00     0.050 C 
HETATM    6  C   UNL     1      40.815 -15.295   2.720  1.00  0.00     0.099 C 
HETATM    7  C   UNL     1      40.008 -14.048   2.817  1.00  0.00     0.000 A 
HETATM    8  C   UNL     1      39.500 -13.444   1.657  1.00  0.00    -0.044 A 
HETATM    9  C   UNL     1      38.718 -12.282   1.747  1.00  0.00     0.008 A 
HETATM   10  C   UNL     1      38.455 -11.704   2.986  1.00  0.00     0.001 A 
HETATM   11  C   UNL     1      38.962 -12.287   4.142  1.00  0.00     0.001 A 
HETATM   12  C   UNL     1      39.731 -13.452   4.057  1.00  0.00     0.014 A 
HETATM   13  C   UNL     1      39.728 -14.100   0.324  1.00  0.00     0.054 C 
HETATM   14  C   UNL     1      41.086 -14.864   0.215  1.00  0.00    -0.002 C 
HETATM   15  C   UNL     1      42.270 -13.870   0.037  1.00  0.00     0.015 C 
HETATM   16  C   UNL     1      42.254 -13.103  -1.288  1.00  0.00     0.001 C 
HETATM   17  C   UNL     1      42.134 -14.036  -2.486  1.00  0.00     0.000 C 
HETATM   18  C   UNL     1      40.934 -14.970  -2.365  1.00  0.00     0.001 C 
HETATM   19  C   UNL     1      40.976 -15.765  -1.055  1.00  0.00     0.015 C 
HETATM   20  N   UNL     1      41.012 -15.990   3.886  1.00  0.00    -0.061 NA
ENDROOT
BRANCH   1  21
HETATM   21  N   UNL     1      41.716 -17.904   4.998  1.00  0.00    -0.127 N 
HETATM   22  H   UNL     1      41.402 -18.873   4.940  1.00  0.00     0.205 HD
BRANCH  21  23
HETATM   23  N   UNL     1      41.368 -17.269   6.202  1.00  0.00    -0.262 N 
HETATM   24  H   UNL     1      40.561 -17.693   6.656  1.00  0.00     0.190 HD
BRANCH  23  25
HETATM   25  C   UNL     1      42.335 -16.638   6.942  1.00  0.00     0.186 C 
HETATM   26  S   UNL     1      43.283 -17.366   8.115  1.00  0.00    -0.040 SA
BRANCH  25  27
HETATM   27  N   UNL     1      42.575 -15.329   6.644  1.00  0.00    -0.366 N 
HETATM   28  H   UNL     1      41.943 -14.685   7.107  1.00  0.00     0.161 HD
BRANCH  27  29
HETATM   29  C   UNL     1      43.767 -14.759   6.040  1.00  0.00     0.117 C 
HETATM   30  C   UNL     1      44.635 -14.052   7.066  1.00  0.00     0.026 C 
ENDBRANCH  27  29
ENDBRANCH  25  27
ENDBRANCH  23  25
ENDBRANCH  21  23
ENDBRANCH   1  21
BRANCH   2  31
HETATM   31  C   UNL     1      42.865 -18.876   2.616  1.00  0.00     0.094 A 
HETATM   32  C   UNL     1      44.007 -19.048   3.425  1.00  0.00     0.096 A 
HETATM   33  C   UNL     1      44.707 -20.256   3.366  1.00  0.00     0.039 A 
HETATM   34  C   UNL     1      44.280 -21.282   2.517  1.00  0.00     0.003 A 
HETATM   35  C   UNL     1      43.151 -21.111   1.719  1.00  0.00     0.002 A 
HETATM   36  C   UNL     1      42.444 -19.913   1.767  1.00  0.00     0.034 A 
BRANCH  32  37
HETATM   37  O   UNL     1      44.384 -17.962   4.176  1.00  0.00    -0.354 OA
HETATM   38  C   UNL     1      45.147 -18.211   5.350  1.00  0.00     0.210 C 
ENDBRANCH  32  37
ENDBRANCH   2  31
TORSDOF 7
ENDMDL
MODEL 5
REMARK VINA RESULT:      -7.9      1.485      1.796
REMARK  7 active torsions:
REMARK  status: ('A' for Active; 'I' for Inactive)
REMARK    1  A    between atoms: C_2  and  N_3 
REMARK    2  A    between atoms: N_3  and  C_4 
REMARK    3  A    between atoms: C_4  and  N_5 
REMARK    4  A    between atoms: N_5  and  N_6 
REMARK    5  A    between atoms: N_6  and  C_7 
REMARK    6  A    between atoms: N_8  and  C_9 
REMARK    7  A    between atoms: C_10  and  O_11 
ROOT
HETATM    1  C   UNL     1      40.965 -15.586  -0.118  1.00  0.00     0.729 C 
HETATM    2  N   UNL     1      40.523 -14.509   0.638  1.00  0.00    -0.105 N 
HETATM    3  C   UNL     1      41.074 -14.265   1.886  1.00  0.00     0.276 C 
HETATM    4  O   UNL     1      41.110 -13.150   2.409  1.00  0.00    -0.266 OA
HETATM    5  C   UNL     1      41.750 -15.418   2.542  1.00  0.00     0.050 C 
HETATM    6  C   UNL     1      42.082 -16.431   1.716  1.00  0.00     0.099 C 
HETATM    7  C   UNL     1      42.879 -17.564   2.259  1.00  0.00     0.000 A 
HETATM    8  C   UNL     1      42.996 -17.745   3.645  1.00  0.00    -0.044 A 
HETATM    9  C   UNL     1      43.727 -18.826   4.161  1.00  0.00     0.008 A 
HETATM   10  C   UNL     1      44.362 -19.720   3.303  1.00  0.00     0.001 A 
HETATM   11  C   UNL     1      44.263 -19.546   1.927  1.00  0.00     0.001 A 
HETATM   12  C   UNL     1      43.525 -18.477   1.411  1.00  0.00     0.014 A 
HETATM   13  C   UNL     1      42.261 -16.819   4.574  1.00  0.00     0.054 C 
HETATM   14  C   UNL     1      42.119 -15.360   4.037  1.00  0.00    -0.002 C 
HETATM   15  C   UNL     1      43.461 -14.585   4.172  1.00  0.00     0.015 C 
HETATM   16  C   UNL     1      43.896 -14.327   5.617  1.00  0.00     0.001 C 
HETATM   17  C   UNL     1      42.794 -13.667   6.436  1.00  0.00     0.000 C 
HETATM   18  C   UNL     1      41.489 -14.453   6.375  1.00  0.00     0.001 C 
HETATM   19  C   UNL     1      41.037 -14.673   4.928  1.00  0.00     0.015 C 
HETATM   20  N   UNL     1      41.756 -16.493   0.385  1.00  0.00    -0.061 NA
ENDROOT
BRANCH   1  21
HETATM   21  N   UNL     1      40.542 -15.707  -1.433  1.00  0.00    -0.127 N 
HETATM   22  H   UNL     1      40.115 -16.595  -1.697  1.00  0.00     0.205 HD
BRANCH  21  23
HETATM   23  N   UNL     1      41.385 -15.171  -2.419  1.00  0.00    -0.262 N 
HETATM   24  H   UNL     1      42.164 -15.784  -2.653  1.00  0.00     0.190 HD
BRANCH  23  25
HETATM   25  C   UNL     1      40.876 -14.302  -3.350  1.00  0.00     0.186 C 
HETATM   26  S   UNL     1      41.645 -12.919  -3.902  1.00  0.00    -0.040 SA
BRANCH  25  27
HETATM   27  N   UNL     1      39.678 -14.636  -3.907  1.00  0.00    -0.366 N 
HETATM   28  H   UNL     1      39.702 -15.502  -4.434  1.00  0.00     0.161 HD
BRANCH  27  29
HETATM   29  C   UNL     1      38.366 -14.102  -3.580  1.00  0.00     0.117 C 
HETATM   30  C   UNL     1      37.309 -15.192  -3.545  1.00  0.00     0.026 C 
ENDBRANCH  27  29
ENDBRANCH  25  27
ENDBRANCH  23  25
ENDBRANCH  21  23
ENDBRANCH   1  21
BRANCH   2  31
HETATM   31  C   UNL     1      39.711 -13.477   0.076  1.00  0.00     0.094 A 
HETATM   32  C   UNL     1      40.322 -12.382  -0.570  1.00  0.00     0.096 A 
HETATM   33  C   UNL     1      39.516 -11.374  -1.108  1.00  0.00     0.039 A 
HETATM   34  C   UNL     1      38.122 -11.451  -1.007  1.00  0.00     0.003 A 
HETATM   35  C   UNL     1      37.522 -12.534  -0.369  1.00  0.00     0.002 A 
HETATM   36  C   UNL     1      38.312 -13.545   0.171  1.00  0.00     0.034 A 
BRANCH  32  37
HETATM   37  O   UNL     1      41.694 -12.363  -0.561  1.00  0.00    -0.354 OA
HETATM   38  C   UNL     1      42.330 -11.125  -0.272  1.00  0.00     0.210 C 
ENDBRANCH  32  37
ENDBRANCH   2  31
TORSDOF 7
ENDMDL
MODEL 6
REMARK VINA RESULT:      -7.8      2.470      3.547
REMARK  7 active torsions:
REMARK  status: ('A' for Active; 'I' for Inactive)
REMARK    1  A    between atoms: C_2  and  N_3 
REMARK    2  A    between atoms: N_3  and  C_4 
REMARK    3  A    between atoms: C_4  and  N_5 
REMARK    4  A    between atoms: N_5  and  N_6 
REMARK    5  A    between atoms: N_6  and  C_7 
REMARK    6  A    between atoms: N_8  and  C_9 
REMARK    7  A    between atoms: C_10  and  O_11 
ROOT
HETATM    1  C   UNL     1      39.623 -14.446   0.895  1.00  0.00     0.729 C 
HETATM    2  N   UNL     1      39.167 -13.218   1.354  1.00  0.00    -0.105 N 
HETATM    3  C   UNL     1      39.578 -12.742   2.589  1.00  0.00     0.276 C 
HETATM    4  O   UNL     1      39.627 -11.545   2.877  1.00  0.00    -0.266 OA
HETATM    5  C   UNL     1      40.089 -13.761   3.547  1.00  0.00     0.050 C 
HETATM    6  C   UNL     1      40.448 -14.937   2.994  1.00  0.00     0.099 C 
HETATM    7  C   UNL     1      41.094 -15.964   3.855  1.00  0.00     0.000 A 
HETATM    8  C   UNL     1      41.029 -15.857   5.252  1.00  0.00    -0.044 A 
HETATM    9  C   UNL     1      41.616 -16.837   6.067  1.00  0.00     0.008 A 
HETATM   10  C   UNL     1      42.287 -17.916   5.499  1.00  0.00     0.001 A 
HETATM   11  C   UNL     1      42.368 -18.028   4.115  1.00  0.00     0.001 A 
HETATM   12  C   UNL     1      41.773 -17.060   3.301  1.00  0.00     0.014 A 
HETATM   13  C   UNL     1      40.251 -14.728   5.869  1.00  0.00     0.054 C 
HETATM   14  C   UNL     1      40.276 -13.408   5.035  1.00  0.00    -0.002 C 
HETATM   15  C   UNL     1      41.643 -12.679   5.189  1.00  0.00     0.015 C 
HETATM   16  C   UNL     1      41.915 -12.145   6.598  1.00  0.00     0.001 C 
HETATM   17  C   UNL     1      40.770 -11.282   7.113  1.00  0.00     0.000 C 
HETATM   18  C   UNL     1      39.431 -12.008   7.039  1.00  0.00     0.001 C 
HETATM   19  C   UNL     1      39.144 -12.505   5.618  1.00  0.00     0.015 C 
HETATM   20  N   UNL     1      40.283 -15.261   1.671  1.00  0.00    -0.061 NA
ENDROOT
BRANCH   1  21
HETATM   21  N   UNL     1      39.355 -14.820  -0.413  1.00  0.00    -0.127 N 
HETATM   22  H   UNL     1      38.551 -15.431  -0.559  1.00  0.00     0.205 HD
BRANCH  21  23
HETATM   23  N   UNL     1      40.461 -15.140  -1.216  1.00  0.00    -0.262 N 
HETATM   24  H   UNL     1      41.077 -15.831  -0.790  1.00  0.00     0.190 HD
BRANCH  23  25
HETATM   25  C   UNL     1      40.363 -15.041  -2.581  1.00  0.00     0.186 C 
HETATM   26  S   UNL     1      40.977 -13.786  -3.504  1.00  0.00    -0.040 SA
BRANCH  25  27
HETATM   27  N   UNL     1      39.770 -16.084  -3.228  1.00  0.00    -0.366 N 
HETATM   28  H   UNL     1      40.025 -16.992  -2.855  1.00  0.00     0.161 HD
BRANCH  27  29
HETATM   29  C   UNL     1      38.626 -16.040  -4.124  1.00  0.00     0.117 C 
HETATM   30  C   UNL     1      37.500 -15.193  -3.557  1.00  0.00     0.026 C 
ENDBRANCH  27  29
ENDBRANCH  25  27
ENDBRANCH  23  25
ENDBRANCH  21  23
ENDBRANCH   1  21
BRANCH   2  31
HETATM   31  C   UNL     1      38.503 -12.291   0.493  1.00  0.00     0.094 A 
HETATM   32  C   UNL     1      39.235 -11.616  -0.506  1.00  0.00     0.096 A 
HETATM   33  C   UNL     1      38.574 -10.706  -1.336  1.00  0.00     0.039 A 
HETATM   34  C   UNL     1      37.204 -10.469  -1.179  1.00  0.00     0.003 A 
HETATM   35  C   UNL     1      36.483 -11.137  -0.192  1.00  0.00     0.002 A 
HETATM   36  C   UNL     1      37.128 -12.046   0.642  1.00  0.00     0.034 A 
BRANCH  32  37
HETATM   37  O   UNL     1      40.584 -11.867  -0.540  1.00  0.00    -0.354 OA
HETATM   38  C   UNL     1      41.429 -10.838  -1.036  1.00  0.00     0.210 C 
ENDBRANCH  32  37
ENDBRANCH   2  31
TORSDOF 7
ENDMDL
MODEL 7
REMARK VINA RESULT:      -7.8      2.085      2.928
REMARK  7 active torsions:
REMARK  status: ('A' for Active; 'I' for Inactive)
REMARK    1  A    between atoms: C_2  and  N_3 
REMARK    2  A    between atoms: N_3  and  C_4 
REMARK    3  A    between atoms: C_4  and  N_5 
REMARK    4  A    between atoms: N_5  and  N_6 
REMARK    5  A    between atoms: N_6  and  C_7 
REMARK    6  A    between atoms: N_8  and  C_9 
REMARK    7  A    between atoms: C_10  and  O_11 
ROOT
HETATM    1  C   UNL     1      41.644 -14.736  -0.251  1.00  0.00     0.729 C 
HETATM    2  N   UNL     1      41.325 -13.616   0.504  1.00  0.00    -0.105 N 
HETATM    3  C   UNL     1      41.776 -13.507   1.810  1.00  0.00     0.276 C 
HETATM    4  O   UNL     1      41.957 -12.430   2.382  1.00  0.00    -0.266 OA
HETATM    5  C   UNL     1      42.161 -14.780   2.479  1.00  0.00     0.050 C 
HETATM    6  C   UNL     1      42.391 -15.816   1.648  1.00  0.00     0.099 C 
HETATM    7  C   UNL     1      42.910 -17.089   2.218  1.00  0.00     0.000 A 
HETATM    8  C   UNL     1      42.846 -17.322   3.599  1.00  0.00    -0.044 A 
HETATM    9  C   UNL     1      43.312 -18.532   4.138  1.00  0.00     0.008 A 
HETATM   10  C   UNL     1      43.863 -19.505   3.308  1.00  0.00     0.001 A 
HETATM   11  C   UNL     1      43.943 -19.282   1.938  1.00  0.00     0.001 A 
HETATM   12  C   UNL     1      43.467 -18.083   1.398  1.00  0.00     0.014 A 
HETATM   13  C   UNL     1      42.194 -16.301   4.489  1.00  0.00     0.054 C 
HETATM   14  C   UNL     1      42.374 -14.827   4.004  1.00  0.00    -0.002 C 
HETATM   15  C   UNL     1      43.813 -14.315   4.306  1.00  0.00     0.015 C 
HETATM   16  C   UNL     1      44.131 -14.177   5.797  1.00  0.00     0.001 C 
HETATM   17  C   UNL     1      43.086 -13.346   6.531  1.00  0.00     0.000 C 
HETATM   18  C   UNL     1      41.674 -13.878   6.306  1.00  0.00     0.001 C 
HETATM   19  C   UNL     1      41.346 -13.976   4.812  1.00  0.00     0.015 C 
HETATM   20  N   UNL     1      42.202 -15.785   0.289  1.00  0.00    -0.061 NA
ENDROOT
BRANCH   1  21
HETATM   21  N   UNL     1      41.347 -14.745  -1.605  1.00  0.00    -0.127 N 
HETATM   22  H   UNL     1      41.627 -13.923  -2.141  1.00  0.00     0.205 HD
BRANCH  21  23
HETATM   23  N   UNL     1      40.094 -15.260  -1.973  1.00  0.00    -0.262 N 
HETATM   24  H   UNL     1      39.557 -15.606  -1.180  1.00  0.00     0.190 HD
BRANCH  23  25
HETATM   25  C   UNL     1      39.459 -14.772  -3.086  1.00  0.00     0.186 C 
HETATM   26  S   UNL     1      37.843 -15.008  -3.458  1.00  0.00    -0.040 SA
BRANCH  25  27
HETATM   27  N   UNL     1      40.199 -13.983  -3.916  1.00  0.00    -0.366 N 
HETATM   28  H   UNL     1      40.526 -14.461  -4.748  1.00  0.00     0.161 HD
BRANCH  27  29
HETATM   29  C   UNL     1      40.293 -12.532  -3.913  1.00  0.00     0.117 C 
HETATM   30  C   UNL     1      41.728 -12.061  -4.074  1.00  0.00     0.026 C 
ENDBRANCH  27  29
ENDBRANCH  25  27
ENDBRANCH  23  25
ENDBRANCH  21  23
ENDBRANCH   1  21
BRANCH   2  31
HETATM   31  C   UNL     1      40.776 -12.438  -0.090  1.00  0.00     0.094 A 
HETATM   32  C   UNL     1      39.386 -12.351  -0.312  1.00  0.00     0.096 A 
HETATM   33  C   UNL     1      38.863 -11.196  -0.903  1.00  0.00     0.039 A 
HETATM   34  C   UNL     1      39.707 -10.142  -1.266  1.00  0.00     0.003 A 
HETATM   35  C   UNL     1      41.079 -10.230  -1.045  1.00  0.00     0.002 A 
HETATM   36  C   UNL     1      41.614 -11.373  -0.458  1.00  0.00     0.034 A 
BRANCH  32  37
HETATM   37  O   UNL     1      38.650 -13.461   0.018  1.00  0.00    -0.354 OA
HETATM   38  C   UNL     1      37.609 -13.296   0.972  1.00  0.00     0.210 C 
ENDBRANCH  32  37
ENDBRANCH   2  31
TORSDOF 7
ENDMDL
MODEL 8
REMARK VINA RESULT:      -7.7      5.322      8.302
REMARK  7 active torsions:
REMARK  status: ('A' for Active; 'I' for Inactive)
REMARK    1  A    between atoms: C_2  and  N_3 
REMARK    2  A    between atoms: N_3  and  C_4 
REMARK    3  A    between atoms: C_4  and  N_5 
REMARK    4  A    between atoms: N_5  and  N_6 
REMARK    5  A    between atoms: N_6  and  C_7 
REMARK    6  A    between atoms: N_8  and  C_9 
REMARK    7  A    between atoms: C_10  and  O_11 
ROOT
HETATM    1  C   UNL     1      43.412 -13.586   6.203  1.00  0.00     0.729 C 
HETATM    2  N   UNL     1      42.273 -13.175   5.524  1.00  0.00    -0.105 N 
HETATM    3  C   UNL     1      41.666 -11.973   5.850  1.00  0.00     0.276 C 
HETATM    4  O   UNL     1      40.986 -11.316   5.060  1.00  0.00    -0.266 OA
HETATM    5  C   UNL     1      41.975 -11.428   7.201  1.00  0.00     0.050 C 
HETATM    6  C   UNL     1      43.074 -11.943   7.788  1.00  0.00     0.099 C 
HETATM    7  C   UNL     1      43.534 -11.361   9.078  1.00  0.00     0.000 A 
HETATM    8  C   UNL     1      42.678 -10.542   9.829  1.00  0.00    -0.044 A 
HETATM    9  C   UNL     1      43.100 -10.012  11.058  1.00  0.00     0.008 A 
HETATM   10  C   UNL     1      44.380 -10.277  11.537  1.00  0.00     0.001 A 
HETATM   11  C   UNL     1      45.242 -11.079  10.797  1.00  0.00     0.001 A 
HETATM   12  C   UNL     1      44.820 -11.619   9.579  1.00  0.00     0.014 A 
HETATM   13  C   UNL     1      41.274 -10.305   9.347  1.00  0.00     0.054 C 
HETATM   14  C   UNL     1      41.131 -10.281   7.791  1.00  0.00    -0.002 C 
HETATM   15  C   UNL     1      41.662  -8.941   7.205  1.00  0.00     0.015 C 
HETATM   16  C   UNL     1      40.836  -7.713   7.597  1.00  0.00     0.001 C 
HETATM   17  C   UNL     1      39.355  -7.898   7.293  1.00  0.00     0.000 C 
HETATM   18  C   UNL     1      38.799  -9.172   7.922  1.00  0.00     0.001 C 
HETATM   19  C   UNL     1      39.604 -10.403   7.494  1.00  0.00     0.015 C 
HETATM   20  N   UNL     1      43.830 -12.964   7.271  1.00  0.00    -0.061 NA
ENDROOT
BRANCH   1  21
HETATM   21  N   UNL     1      44.112 -14.690   5.742  1.00  0.00    -0.127 N 
HETATM   22  H   UNL     1      44.156 -14.816   4.730  1.00  0.00     0.205 HD
BRANCH  21  23
HETATM   23  N   UNL     1      43.939 -15.888   6.453  1.00  0.00    -0.262 N 
HETATM   24  H   UNL     1      43.332 -15.786   7.265  1.00  0.00     0.190 HD
BRANCH  23  25
HETATM   25  C   UNL     1      44.028 -17.088   5.796  1.00  0.00     0.186 C 
HETATM   26  S   UNL     1      44.642 -18.504   6.448  1.00  0.00    -0.040 SA
BRANCH  25  27
HETATM   27  N   UNL     1      43.515 -17.133   4.533  1.00  0.00    -0.366 N 
HETATM   28  H   UNL     1      42.999 -16.300   4.275  1.00  0.00     0.161 HD
BRANCH  27  29
HETATM   29  C   UNL     1      43.878 -18.041   3.458  1.00  0.00     0.117 C 
HETATM   30  C   UNL     1      43.995 -17.317   2.127  1.00  0.00     0.026 C 
ENDBRANCH  27  29
ENDBRANCH  25  27
ENDBRANCH  23  25
ENDBRANCH  21  23
ENDBRANCH   1  21
BRANCH   2  31
HETATM   31  C   UNL     1      41.847 -13.808   4.316  1.00  0.00     0.094 A 
HETATM   32  C   UNL     1      40.804 -14.756   4.354  1.00  0.00     0.096 A 
HETATM   33  C   UNL     1      40.403 -15.374   3.166  1.00  0.00     0.039 A 
HETATM   34  C   UNL     1      41.027 -15.054   1.955  1.00  0.00     0.003 A 
HETATM   35  C   UNL     1      42.056 -14.117   1.920  1.00  0.00     0.002 A 
HETATM   36  C   UNL     1      42.467 -13.494   3.095  1.00  0.00     0.034 A 
BRANCH  32  37
HETATM   37  O   UNL     1      40.299 -15.050   5.596  1.00  0.00    -0.354 OA
HETATM   38  C   UNL     1      40.453 -16.382   6.067  1.00  0.00     0.210 C 
ENDBRANCH  32  37
ENDBRANCH   2  31
TORSDOF 7
ENDMDL
MODEL 9
REMARK VINA RESULT:      -7.7      5.609      8.533
REMARK  7 active torsions:
REMARK  status: ('A' for Active; 'I' for Inactive)
REMARK    1  A    between atoms: C_2  and  N_3 
REMARK    2  A    between atoms: N_3  and  C_4 
REMARK    3  A    between atoms: C_4  and  N_5 
REMARK    4  A    between atoms: N_5  and  N_6 
REMARK    5  A    between atoms: N_6  and  C_7 
REMARK    6  A    between atoms: N_8  and  C_9 
REMARK    7  A    between atoms: C_10  and  O_11 
ROOT
HETATM    1  C   UNL     1      42.092 -12.079   6.584  1.00  0.00     0.729 C 
HETATM    2  N   UNL     1      41.319 -11.336   5.702  1.00  0.00    -0.105 N 
HETATM    3  C   UNL     1      40.746 -11.945   4.597  1.00  0.00     0.276 C 
HETATM    4  O   UNL     1      39.723 -11.536   4.046  1.00  0.00    -0.266 OA
HETATM    5  C   UNL     1      41.369 -13.225   4.157  1.00  0.00     0.050 C 
HETATM    6  C   UNL     1      42.145 -13.829   5.079  1.00  0.00     0.099 C 
HETATM    7  C   UNL     1      42.698 -15.177   4.776  1.00  0.00     0.000 A 
HETATM    8  C   UNL     1      42.698 -15.660   3.459  1.00  0.00    -0.044 A 
HETATM    9  C   UNL     1      43.241 -16.920   3.165  1.00  0.00     0.008 A 
HETATM   10  C   UNL     1      43.769 -17.714   4.181  1.00  0.00     0.001 A 
HETATM   11  C   UNL     1      43.765 -17.251   5.492  1.00  0.00     0.001 A 
HETATM   12  C   UNL     1      43.236 -15.991   5.785  1.00  0.00     0.014 A 
HETATM   13  C   UNL     1      42.189 -14.780   2.352  1.00  0.00     0.054 C 
HETATM   14  C   UNL     1      41.030 -13.825   2.780  1.00  0.00    -0.002 C 
HETATM   15  C   UNL     1      39.688 -14.603   2.910  1.00  0.00     0.015 C 
HETATM   16  C   UNL     1      39.147 -15.150   1.586  1.00  0.00     0.001 C 
HETATM   17  C   UNL     1      39.055 -14.070   0.516  1.00  0.00     0.000 C 
HETATM   18  C   UNL     1      40.383 -13.344   0.322  1.00  0.00     0.001 C 
HETATM   19  C   UNL     1      40.900 -12.764   1.643  1.00  0.00     0.015 C 
HETATM   20  N   UNL     1      42.455 -13.302   6.308  1.00  0.00    -0.061 NA
ENDROOT
BRANCH   1  21
HETATM   21  N   UNL     1      42.499 -11.502   7.777  1.00  0.00    -0.127 N 
HETATM   22  H   UNL     1      42.452 -10.484   7.833  1.00  0.00     0.205 HD
BRANCH  21  23
HETATM   23  N   UNL     1      43.639 -12.050   8.386  1.00  0.00    -0.262 N 
HETATM   24  H   UNL     1      44.367 -12.299   7.718  1.00  0.00     0.190 HD
BRANCH  23  25
HETATM   25  C   UNL     1      43.962 -11.693   9.670  1.00  0.00     0.186 C 
HETATM   26  S   UNL     1      45.456 -11.121  10.166  1.00  0.00    -0.040 SA
BRANCH  25  27
HETATM   27  N   UNL     1      42.960 -11.755  10.592  1.00  0.00    -0.366 N 
HETATM   28  H   UNL     1      42.672 -12.701  10.816  1.00  0.00     0.161 HD
BRANCH  27  29
HETATM   29  C   UNL     1      42.509 -10.702  11.486  1.00  0.00     0.117 C 
HETATM   30  C   UNL     1      42.860 -11.004  12.933  1.00  0.00     0.026 C 
ENDBRANCH  27  29
ENDBRANCH  25  27
ENDBRANCH  23  25
ENDBRANCH  21  23
ENDBRANCH   1  21
BRANCH   2  31
HETATM   31  C   UNL     1      40.861 -10.022   6.025  1.00  0.00     0.094 A 
HETATM   32  C   UNL     1      39.792  -9.857   6.930  1.00  0.00     0.096 A 
HETATM   33  C   UNL     1      39.348  -8.566   7.230  1.00  0.00     0.039 A 
HETATM   34  C   UNL     1      39.957  -7.452   6.643  1.00  0.00     0.003 A 
HETATM   35  C   UNL     1      41.014  -7.617   5.750  1.00  0.00     0.002 A 
HETATM   36  C   UNL     1      41.467  -8.897   5.441  1.00  0.00     0.034 A 
BRANCH  32  37
HETATM   37  O   UNL     1      39.218 -11.011   7.403  1.00  0.00    -0.354 OA
HETATM   38  C   UNL     1      39.158 -11.181   8.813  1.00  0.00     0.210 C 
ENDBRANCH  32  37
ENDBRANCH   2  31
TORSDOF 7
ENDMDL
MODEL 10
REMARK VINA RESULT:      -7.6      3.695      8.360
REMARK  7 active torsions:
REMARK  status: ('A' for Active; 'I' for Inactive)
REMARK    1  A    between atoms: C_2  and  N_3 
REMARK    2  A    between atoms: N_3  and  C_4 
REMARK    3  A    between atoms: C_4  and  N_5 
REMARK    4  A    between atoms: N_5  and  N_6 
REMARK    5  A    between atoms: N_6  and  C_7 
REMARK    6  A    between atoms: N_8  and  C_9 
REMARK    7  A    between atoms: C_10  and  O_11 
ROOT
HETATM    1  C   UNL     1      42.692 -14.282   4.090  1.00  0.00     0.729 C 
HETATM    2  N   UNL     1      42.139 -14.969   3.019  1.00  0.00    -0.105 N 
HETATM    3  C   UNL     1      41.251 -14.329   2.168  1.00  0.00     0.276 C 
HETATM    4  O   UNL     1      41.077 -14.656   0.993  1.00  0.00    -0.266 OA
HETATM    5  C   UNL     1      40.580 -13.116   2.711  1.00  0.00     0.050 C 
HETATM    6  C   UNL     1      41.177 -12.567   3.789  1.00  0.00     0.099 C 
HETATM    7  C   UNL     1      40.654 -11.277   4.316  1.00  0.00     0.000 A 
HETATM    8  C   UNL     1      39.387 -10.817   3.926  1.00  0.00    -0.044 A 
HETATM    9  C   UNL     1      38.880  -9.613   4.440  1.00  0.00     0.008 A 
HETATM   10  C   UNL     1      39.637  -8.853   5.328  1.00  0.00     0.001 A 
HETATM   11  C   UNL     1      40.899  -9.293   5.713  1.00  0.00     0.001 A 
HETATM   12  C   UNL     1      41.400 -10.497   5.212  1.00  0.00     0.014 A 
HETATM   13  C   UNL     1      38.542 -11.666   3.019  1.00  0.00     0.054 C 
HETATM   14  C   UNL     1      39.361 -12.510   1.991  1.00  0.00    -0.002 C 
HETATM   15  C   UNL     1      39.882 -11.616   0.828  1.00  0.00     0.015 C 
HETATM   16  C   UNL     1      38.780 -11.045  -0.068  1.00  0.00     0.001 C 
HETATM   17  C   UNL     1      37.844 -12.130  -0.585  1.00  0.00     0.000 C 
HETATM   18  C   UNL     1      37.265 -12.971   0.547  1.00  0.00     0.001 C 
HETATM   19  C   UNL     1      38.373 -13.574   1.418  1.00  0.00     0.015 C 
HETATM   20  N   UNL     1      42.262 -13.100   4.438  1.00  0.00    -0.061 NA
ENDROOT
BRANCH   1  21
HETATM   21  N   UNL     1      43.714 -14.873   4.817  1.00  0.00    -0.127 N 
HETATM   22  H   UNL     1      44.284 -15.564   4.327  1.00  0.00     0.205 HD
BRANCH  21  23
HETATM   23  N   UNL     1      43.426 -15.218   6.147  1.00  0.00    -0.262 N 
HETATM   24  H   UNL     1      42.617 -14.724   6.520  1.00  0.00     0.190 HD
BRANCH  23  25
HETATM   25  C   UNL     1      43.759 -16.464   6.613  1.00  0.00     0.186 C 
HETATM   26  S   UNL     1      43.385 -17.058   8.134  1.00  0.00    -0.040 SA
BRANCH  25  27
HETATM   27  N   UNL     1      44.390 -17.296   5.737  1.00  0.00    -0.366 N 
HETATM   28  H   UNL     1      44.511 -16.897   4.812  1.00  0.00     0.161 HD
BRANCH  27  29
HETATM   29  C   UNL     1      45.161 -18.490   6.042  1.00  0.00     0.117 C 
HETATM   30  C   UNL     1      44.815 -19.637   5.108  1.00  0.00     0.026 C 
ENDBRANCH  27  29
ENDBRANCH  25  27
ENDBRANCH  23  25
ENDBRANCH  21  23
ENDBRANCH   1  21
BRANCH   2  31
HETATM   31  C   UNL     1      42.648 -16.233   2.590  1.00  0.00     0.094 A 
HETATM   32  C   UNL     1      41.976 -17.417   2.956  1.00  0.00     0.096 A 
HETATM   33  C   UNL     1      42.490 -18.648   2.537  1.00  0.00     0.039 A 
HETATM   34  C   UNL     1      43.655 -18.703   1.765  1.00  0.00     0.003 A 
HETATM   35  C   UNL     1      44.317 -17.532   1.404  1.00  0.00     0.002 A 
HETATM   36  C   UNL     1      43.817 -16.299   1.814  1.00  0.00     0.034 A 
BRANCH  32  37
HETATM   37  O   UNL     1      40.880 -17.264   3.768  1.00  0.00    -0.354 OA
HETATM   38  C   UNL     1      40.968 -17.778   5.090  1.00  0.00     0.210 C 
ENDBRANCH  32  37
ENDBRANCH   2  31
TORSDOF 7
ENDMDL
