MODEL 1
REMARK VINA RESULT:      -8.0      0.000      0.000
REMARK  3 active torsions:
REMARK  status: ('A' for Active; 'I' for Inactive)
REMARK    1  A    between atoms: C_2  and  N_3 
REMARK    2  A    between atoms: C_2  and  C_10 
REMARK    3  A    between atoms: C_13  and  C_14 
ROOT
HETATM    1  C   UNL     1      43.599 -18.648   2.917  1.00  0.00    -0.028 A 
HETATM    2  C   UNL     1      42.379 -18.212   3.458  1.00  0.00     0.010 A 
HETATM    3  C   UNL     1      41.556 -17.320   2.756  1.00  0.00     0.013 A 
HETATM    4  C   UNL     1      41.914 -16.841   1.487  1.00  0.00    -0.024 A 
HETATM    5  C   UNL     1      43.119 -17.306   0.939  1.00  0.00     0.013 A 
HETATM    6  C   UNL     1      43.950 -18.189   1.640  1.00  0.00     0.010 A 
ENDROOT
BRANCH   4   7
HETATM    7  C   UNL     1      41.076 -15.864   0.768  1.00  0.00    -0.006 A 
HETATM    8  C   UNL     1      40.012 -15.209   1.410  1.00  0.00     0.131 A 
HETATM    9  N   UNL     1      39.171 -14.295   0.873  1.00  0.00    -0.239 NA
HETATM   10  C   UNL     1      39.411 -14.018  -0.425  1.00  0.00     0.177 A 
HETATM   11  C   UNL     1      40.433 -14.615  -1.152  1.00  0.00     0.082 A 
HETATM   12  N   UNL     1      38.703 -13.138  -1.191  1.00  0.00    -0.222 NA
HETATM   13  N   UNL     1      40.318 -14.062  -2.401  1.00  0.00    -0.348 N 
HETATM   14  C   UNL     1      41.298 -15.552  -0.584  1.00  0.00     0.047 A 
HETATM   15  H   UNL     1      40.896 -14.263  -3.204  1.00  0.00     0.167 HD
HETATM   16  C   UNL     1      39.268 -13.186  -2.375  1.00  0.00     0.210 A 
ENDBRANCH   4   7
BRANCH   1  17
HETATM   17  C   UNL     1      44.478 -19.594   3.720  1.00  0.00     0.217 C 
HETATM   18  C   UNL     1      44.658 -20.983   3.099  1.00  0.00     0.045 C 
BRANCH  17  19
HETATM   19  N   UNL     1      44.034 -19.680   5.182  1.00  0.00    -0.063 N 
HETATM   20  H   UNL     1      43.015 -19.542   5.138  1.00  0.00     0.280 HD
HETATM   21  C   UNL     1      44.234 -21.028   5.840  1.00  0.00     0.235 C 
HETATM   22  C   UNL     1      43.545 -21.037   7.199  1.00  0.00     0.028 C 
HETATM   23  C   UNL     1      44.038 -19.901   8.088  1.00  0.00     0.003 C 
HETATM   24  C   UNL     1      43.893 -18.555   7.388  1.00  0.00     0.028 C 
HETATM   25  C   UNL     1      44.580 -18.552   6.029  1.00  0.00     0.235 C 
ENDBRANCH  17  19
ENDBRANCH   1  17
TORSDOF 3
ENDMDL
MODEL 2
REMARK VINA RESULT:      -7.8      1.926      8.700
REMARK  3 active torsions:
REMARK  status: ('A' for Active; 'I' for Inactive)
REMARK    1  A    between atoms: C_2  and  N_3 
REMARK    2  A    between atoms: C_2  and  C_10 
REMARK    3  A    between atoms: C_13  and  C_14 
ROOT
HETATM    1  C   UNL     1      42.104 -15.104   1.303  1.00  0.00    -0.028 A 
HETATM    2  C   UNL     1      42.660 -15.046   2.591  1.00  0.00     0.010 A 
HETATM    3  C   UNL     1      43.196 -16.192   3.197  1.00  0.00     0.013 A 
HETATM    4  C   UNL     1      43.208 -17.429   2.536  1.00  0.00    -0.024 A 
HETATM    5  C   UNL     1      42.680 -17.472   1.237  1.00  0.00     0.013 A 
HETATM    6  C   UNL     1      42.134 -16.333   0.631  1.00  0.00     0.010 A 
ENDROOT
BRANCH   4   7
HETATM    7  C   UNL     1      43.725 -18.646   3.190  1.00  0.00    -0.006 A 
HETATM    8  C   UNL     1      44.238 -18.605   4.497  1.00  0.00     0.131 A 
HETATM    9  N   UNL     1      44.738 -19.640   5.212  1.00  0.00    -0.239 NA
HETATM   10  C   UNL     1      44.733 -20.818   4.556  1.00  0.00     0.177 A 
HETATM   11  C   UNL     1      44.254 -20.964   3.260  1.00  0.00     0.082 A 
HETATM   12  N   UNL     1      45.186 -22.005   5.056  1.00  0.00    -0.222 NA
HETATM   13  N   UNL     1      44.437 -22.295   2.986  1.00  0.00    -0.348 N 
HETATM   14  C   UNL     1      43.734 -19.890   2.536  1.00  0.00     0.047 A 
HETATM   15  H   UNL     1      44.206 -22.770   2.126  1.00  0.00     0.167 HD
HETATM   16  C   UNL     1      44.999 -22.875   4.091  1.00  0.00     0.210 A 
ENDBRANCH   4   7
BRANCH   1  17
HETATM   17  C   UNL     1      41.507 -13.846   0.690  1.00  0.00     0.217 C 
HETATM   18  C   UNL     1      40.066 -13.550   1.113  1.00  0.00     0.045 C 
BRANCH  17  19
HETATM   19  N   UNL     1      41.667 -13.824  -0.832  1.00  0.00    -0.063 N 
HETATM   20  H   UNL     1      42.308 -14.606  -1.023  1.00  0.00     0.280 HD
HETATM   21  C   UNL     1      40.410 -14.125  -1.618  1.00  0.00     0.235 C 
HETATM   22  C   UNL     1      40.762 -14.297  -3.091  1.00  0.00     0.028 C 
HETATM   23  C   UNL     1      41.488 -13.076  -3.643  1.00  0.00     0.003 C 
HETATM   24  C   UNL     1      42.715 -12.742  -2.803  1.00  0.00     0.028 C 
HETATM   25  C   UNL     1      42.359 -12.575  -1.332  1.00  0.00     0.235 C 
ENDBRANCH  17  19
ENDBRANCH   1  17
TORSDOF 3
ENDMDL
MODEL 3
REMARK VINA RESULT:      -7.7      1.172      2.141
REMARK  3 active torsions:
REMARK  status: ('A' for Active; 'I' for Inactive)
REMARK    1  A    between atoms: C_2  and  N_3 
REMARK    2  A    between atoms: C_2  and  C_10 
REMARK    3  A    between atoms: C_13  and  C_14 
ROOT
HETATM    1  C   UNL     1      43.823 -19.152   2.054  1.00  0.00    -0.028 A 
HETATM    2  C   UNL     1      42.447 -19.388   1.904  1.00  0.00     0.010 A 
HETATM    3  C   UNL     1      41.584 -18.372   1.469  1.00  0.00     0.013 A 
HETATM    4  C   UNL     1      42.065 -17.091   1.158  1.00  0.00    -0.024 A 
HETATM    5  C   UNL     1      43.445 -16.872   1.280  1.00  0.00     0.013 A 
HETATM    6  C   UNL     1      44.310 -17.880   1.724  1.00  0.00     0.010 A 
ENDROOT
BRANCH   4   7
HETATM    7  C   UNL     1      41.154 -16.005   0.749  1.00  0.00    -0.006 A 
HETATM    8  C   UNL     1      41.305 -15.360  -0.490  1.00  0.00     0.131 A 
HETATM    9  N   UNL     1      40.543 -14.359  -0.988  1.00  0.00    -0.239 NA
HETATM   10  C   UNL     1      39.549 -13.960  -0.169  1.00  0.00     0.177 A 
HETATM   11  C   UNL     1      39.319 -14.527   1.078  1.00  0.00     0.082 A 
HETATM   12  N   UNL     1      38.650 -12.968  -0.438  1.00  0.00    -0.222 NA
HETATM   13  N   UNL     1      38.239 -13.837   1.563  1.00  0.00    -0.348 N 
HETATM   14  C   UNL     1      40.108 -15.566   1.577  1.00  0.00     0.047 A 
HETATM   15  H   UNL     1      37.788 -13.973   2.456  1.00  0.00     0.167 HD
HETATM   16  C   UNL     1      37.876 -12.913   0.620  1.00  0.00     0.210 A 
ENDBRANCH   4   7
BRANCH   1  17
HETATM   17  C   UNL     1      44.723 -20.272   2.555  1.00  0.00     0.217 C 
HETATM   18  C   UNL     1      44.493 -21.628   1.882  1.00  0.00     0.045 C 
BRANCH  17  19
HETATM   19  N   UNL     1      44.696 -20.384   4.081  1.00  0.00    -0.063 N 
HETATM   20  H   UNL     1      45.670 -20.205   4.358  1.00  0.00     0.280 HD
HETATM   21  C   UNL     1      43.869 -19.335   4.792  1.00  0.00     0.235 C 
HETATM   22  C   UNL     1      44.117 -19.425   6.293  1.00  0.00     0.028 C 
HETATM   23  C   UNL     1      43.828 -20.822   6.829  1.00  0.00     0.003 C 
HETATM   24  C   UNL     1      44.615 -21.878   6.060  1.00  0.00     0.028 C 
HETATM   25  C   UNL     1      44.367 -21.781   4.561  1.00  0.00     0.235 C 
ENDBRANCH  17  19
ENDBRANCH   1  17
TORSDOF 3
ENDMDL
MODEL 4
REMARK VINA RESULT:      -7.7      2.005      8.775
REMARK  3 active torsions:
REMARK  status: ('A' for Active; 'I' for Inactive)
REMARK    1  A    between atoms: C_2  and  N_3 
REMARK    2  A    between atoms: C_2  and  C_10 
REMARK    3  A    between atoms: C_13  and  C_14 
ROOT
HETATM    1  C   UNL     1      42.154 -15.042   1.280  1.00  0.00    -0.028 A 
HETATM    2  C   UNL     1      41.878 -16.193   0.525  1.00  0.00     0.010 A 
HETATM    3  C   UNL     1      42.293 -17.459   0.963  1.00  0.00     0.013 A 
HETATM    4  C   UNL     1      42.985 -17.622   2.172  1.00  0.00    -0.024 A 
HETATM    5  C   UNL     1      43.230 -16.471   2.936  1.00  0.00     0.013 A 
HETATM    6  C   UNL     1      42.827 -15.202   2.499  1.00  0.00     0.010 A 
ENDROOT
BRANCH   4   7
HETATM    7  C   UNL     1      43.468 -18.945   2.611  1.00  0.00    -0.006 A 
HETATM    8  C   UNL     1      43.423 -20.055   1.751  1.00  0.00     0.131 A 
HETATM    9  N   UNL     1      43.832 -21.316   2.023  1.00  0.00    -0.239 NA
HETATM   10  C   UNL     1      44.320 -21.483   3.269  1.00  0.00     0.177 A 
HETATM   11  C   UNL     1      44.401 -20.452   4.197  1.00  0.00     0.082 A 
HETATM   12  N   UNL     1      44.790 -22.656   3.785  1.00  0.00    -0.222 NA
HETATM   13  N   UNL     1      44.940 -21.047   5.308  1.00  0.00    -0.348 N 
HETATM   14  C   UNL     1      43.982 -19.154   3.902  1.00  0.00     0.047 A 
HETATM   15  H   UNL     1      45.143 -20.603   6.191  1.00  0.00     0.167 HD
HETATM   16  C   UNL     1      45.154 -22.367   5.012  1.00  0.00     0.210 A 
ENDBRANCH   4   7
BRANCH   1  17
HETATM   17  C   UNL     1      41.712 -13.683   0.759  1.00  0.00     0.217 C 
HETATM   18  C   UNL     1      40.413 -13.153   1.373  1.00  0.00     0.045 C 
BRANCH  17  19
HETATM   19  N   UNL     1      41.672 -13.645  -0.771  1.00  0.00    -0.063 N 
HETATM   20  H   UNL     1      42.100 -14.538  -1.049  1.00  0.00     0.280 HD
HETATM   21  C   UNL     1      40.288 -13.648  -1.381  1.00  0.00     0.235 C 
HETATM   22  C   UNL     1      40.399 -13.841  -2.889  1.00  0.00     0.028 C 
HETATM   23  C   UNL     1      41.290 -12.784  -3.529  1.00  0.00     0.003 C 
HETATM   24  C   UNL     1      42.660 -12.744  -2.860  1.00  0.00     0.028 C 
HETATM   25  C   UNL     1      42.544 -12.554  -1.354  1.00  0.00     0.235 C 
ENDBRANCH  17  19
ENDBRANCH   1  17
TORSDOF 3
ENDMDL
MODEL 5
REMARK VINA RESULT:      -7.7      1.393      2.346
REMARK  3 active torsions:
REMARK  status: ('A' for Active; 'I' for Inactive)
REMARK    1  A    between atoms: C_2  and  N_3 
REMARK    2  A    between atoms: C_2  and  C_10 
REMARK    3  A    between atoms: C_13  and  C_14 
ROOT
HETATM    1  C   UNL     1      42.610 -17.080   4.544  1.00  0.00    -0.028 A 
HETATM    2  C   UNL     1      43.253 -15.995   3.925  1.00  0.00     0.010 A 
HETATM    3  C   UNL     1      42.754 -15.444   2.735  1.00  0.00     0.013 A 
HETATM    4  C   UNL     1      41.593 -15.947   2.130  1.00  0.00    -0.024 A 
HETATM    5  C   UNL     1      40.938 -17.009   2.771  1.00  0.00     0.013 A 
HETATM    6  C   UNL     1      41.437 -17.570   3.953  1.00  0.00     0.010 A 
ENDROOT
BRANCH   4   7
HETATM    7  C   UNL     1      41.094 -15.403   0.852  1.00  0.00    -0.006 A 
HETATM    8  C   UNL     1      40.099 -14.412   0.826  1.00  0.00     0.131 A 
HETATM    9  N   UNL     1      39.557 -13.828  -0.268  1.00  0.00    -0.239 NA
HETATM   10  C   UNL     1      40.046 -14.284  -1.439  1.00  0.00     0.177 A 
HETATM   11  C   UNL     1      41.025 -15.267  -1.521  1.00  0.00     0.082 A 
HETATM   12  N   UNL     1      39.660 -13.860  -2.678  1.00  0.00    -0.222 NA
HETATM   13  N   UNL     1      41.220 -15.428  -2.868  1.00  0.00    -0.348 N 
HETATM   14  C   UNL     1      41.582 -15.856  -0.385  1.00  0.00     0.047 A 
HETATM   15  H   UNL     1      41.863 -16.069  -3.311  1.00  0.00     0.167 HD
HETATM   16  C   UNL     1      40.380 -14.566  -3.519  1.00  0.00     0.210 A 
ENDBRANCH   4   7
BRANCH   1  17
HETATM   17  C   UNL     1      43.197 -17.668   5.818  1.00  0.00     0.217 C 
HETATM   18  C   UNL     1      44.397 -16.902   6.384  1.00  0.00     0.045 C 
BRANCH  17  19
HETATM   19  N   UNL     1      43.496 -19.161   5.670  1.00  0.00    -0.063 N 
HETATM   20  H   UNL     1      42.622 -19.551   5.293  1.00  0.00     0.280 HD
HETATM   21  C   UNL     1      44.568 -19.509   4.660  1.00  0.00     0.235 C 
HETATM   22  C   UNL     1      44.597 -21.018   4.451  1.00  0.00     0.028 C 
HETATM   23  C   UNL     1      44.802 -21.765   5.763  1.00  0.00     0.003 C 
HETATM   24  C   UNL     1      43.758 -21.356   6.796  1.00  0.00     0.028 C 
HETATM   25  C   UNL     1      43.729 -19.848   6.998  1.00  0.00     0.235 C 
ENDBRANCH  17  19
ENDBRANCH   1  17
TORSDOF 3
ENDMDL
MODEL 6
REMARK VINA RESULT:      -7.6      3.189      4.473
REMARK  3 active torsions:
REMARK  status: ('A' for Active; 'I' for Inactive)
REMARK    1  A    between atoms: C_2  and  N_3 
REMARK    2  A    between atoms: C_2  and  C_10 
REMARK    3  A    between atoms: C_13  and  C_14 
ROOT
HETATM    1  C   UNL     1      43.182 -17.796   5.285  1.00  0.00    -0.028 A 
HETATM    2  C   UNL     1      41.788 -17.925   5.185  1.00  0.00     0.010 A 
HETATM    3  C   UNL     1      40.969 -16.798   5.021  1.00  0.00     0.013 A 
HETATM    4  C   UNL     1      41.512 -15.508   4.939  1.00  0.00    -0.024 A 
HETATM    5  C   UNL     1      42.909 -15.390   5.007  1.00  0.00     0.013 A 
HETATM    6  C   UNL     1      43.731 -16.510   5.181  1.00  0.00     0.010 A 
ENDROOT
BRANCH   4   7
HETATM    7  C   UNL     1      40.651 -14.316   4.817  1.00  0.00    -0.006 A 
HETATM    8  C   UNL     1      40.129 -13.680   5.956  1.00  0.00     0.131 A 
HETATM    9  N   UNL     1      39.334 -12.585   5.988  1.00  0.00    -0.239 NA
HETATM   10  C   UNL     1      39.027 -12.089   4.772  1.00  0.00     0.177 A 
HETATM   11  C   UNL     1      39.486 -12.648   3.586  1.00  0.00     0.082 A 
HETATM   12  N   UNL     1      38.240 -10.998   4.537  1.00  0.00    -0.222 NA
HETATM   13  N   UNL     1      38.943 -11.851   2.611  1.00  0.00    -0.348 N 
HETATM   14  C   UNL     1      40.311 -13.773   3.567  1.00  0.00     0.047 A 
HETATM   15  H   UNL     1      39.057 -11.957   1.614  1.00  0.00     0.167 HD
HETATM   16  C   UNL     1      38.205 -10.879   3.230  1.00  0.00     0.210 A 
ENDBRANCH   4   7
BRANCH   1  17
HETATM   17  C   UNL     1      44.035 -19.039   5.490  1.00  0.00     0.217 C 
HETATM   18  C   UNL     1      45.502 -18.760   5.831  1.00  0.00     0.045 C 
BRANCH  17  19
HETATM   19  N   UNL     1      43.901 -20.020   4.324  1.00  0.00    -0.063 N 
HETATM   20  H   UNL     1      42.946 -20.391   4.423  1.00  0.00     0.280 HD
HETATM   21  C   UNL     1      43.955 -19.397   2.946  1.00  0.00     0.235 C 
HETATM   22  C   UNL     1      43.581 -20.442   1.901  1.00  0.00     0.028 C 
HETATM   23  C   UNL     1      44.471 -21.675   1.994  1.00  0.00     0.003 C 
HETATM   24  C   UNL     1      44.462 -22.254   3.404  1.00  0.00     0.028 C 
HETATM   25  C   UNL     1      44.833 -21.206   4.444  1.00  0.00     0.235 C 
ENDBRANCH  17  19
ENDBRANCH   1  17
TORSDOF 3
ENDMDL
MODEL 7
REMARK VINA RESULT:      -7.5      1.433      2.693
REMARK  3 active torsions:
REMARK  status: ('A' for Active; 'I' for Inactive)
REMARK    1  A    between atoms: C_2  and  N_3 
REMARK    2  A    between atoms: C_2  and  C_10 
REMARK    3  A    between atoms: C_13  and  C_14 
ROOT
HETATM    1  C   UNL     1      43.170 -17.855   4.423  1.00  0.00    -0.028 A 
HETATM    2  C   UNL     1      41.767 -17.878   4.475  1.00  0.00     0.010 A 
HETATM    3  C   UNL     1      40.999 -17.126   3.574  1.00  0.00     0.013 A 
HETATM    4  C   UNL     1      41.603 -16.337   2.584  1.00  0.00    -0.024 A 
HETATM    5  C   UNL     1      43.004 -16.344   2.517  1.00  0.00     0.013 A 
HETATM    6  C   UNL     1      43.776 -17.085   3.421  1.00  0.00     0.010 A 
ENDROOT
BRANCH   4   7
HETATM    7  C   UNL     1      40.800 -15.505   1.666  1.00  0.00    -0.006 A 
HETATM    8  C   UNL     1      41.265 -15.192   0.378  1.00  0.00     0.131 A 
HETATM    9  N   UNL     1      40.634 -14.447  -0.559  1.00  0.00    -0.239 NA
HETATM   10  C   UNL     1      39.437 -13.965  -0.169  1.00  0.00     0.177 A 
HETATM   11  C   UNL     1      38.891 -14.211   1.085  1.00  0.00     0.082 A 
HETATM   12  N   UNL     1      38.611 -13.186  -0.927  1.00  0.00    -0.222 NA
HETATM   13  N   UNL     1      37.694 -13.545   1.063  1.00  0.00    -0.348 N 
HETATM   14  C   UNL     1      39.549 -14.987   2.041  1.00  0.00     0.047 A 
HETATM   15  H   UNL     1      37.018 -13.495   1.811  1.00  0.00     0.167 HD
HETATM   16  C   UNL     1      37.572 -12.946  -0.161  1.00  0.00     0.210 A 
ENDBRANCH   4   7
BRANCH   1  17
HETATM   17  C   UNL     1      43.969 -18.662   5.435  1.00  0.00     0.217 C 
HETATM   18  C   UNL     1      45.076 -17.880   6.148  1.00  0.00     0.045 C 
BRANCH  17  19
HETATM   19  N   UNL     1      44.494 -19.969   4.835  1.00  0.00    -0.063 N 
HETATM   20  H   UNL     1      45.502 -19.798   4.720  1.00  0.00     0.280 HD
HETATM   21  C   UNL     1      44.384 -21.182   5.732  1.00  0.00     0.235 C 
HETATM   22  C   UNL     1      45.145 -22.345   5.107  1.00  0.00     0.028 C 
HETATM   23  C   UNL     1      44.654 -22.647   3.696  1.00  0.00     0.003 C 
HETATM   24  C   UNL     1      44.705 -21.400   2.820  1.00  0.00     0.028 C 
HETATM   25  C   UNL     1      43.947 -20.240   3.450  1.00  0.00     0.235 C 
ENDBRANCH  17  19
ENDBRANCH   1  17
TORSDOF 3
ENDMDL
MODEL 8
REMARK VINA RESULT:      -7.4      1.353      2.426
REMARK  3 active torsions:
REMARK  status: ('A' for Active; 'I' for Inactive)
REMARK    1  A    between atoms: C_2  and  N_3 
REMARK    2  A    between atoms: C_2  and  C_10 
REMARK    3  A    between atoms: C_13  and  C_14 
ROOT
HETATM    1  C   UNL     1      42.631 -17.190   4.391  1.00  0.00    -0.028 A 
HETATM    2  C   UNL     1      41.362 -17.589   3.940  1.00  0.00     0.010 A 
HETATM    3  C   UNL     1      40.782 -17.001   2.807  1.00  0.00     0.013 A 
HETATM    4  C   UNL     1      41.451 -16.007   2.078  1.00  0.00    -0.024 A 
HETATM    5  C   UNL     1      42.732 -15.636   2.515  1.00  0.00     0.013 A 
HETATM    6  C   UNL     1      43.312 -16.212   3.652  1.00  0.00     0.010 A 
ENDROOT
BRANCH   4   7
HETATM    7  C   UNL     1      40.823 -15.350   0.915  1.00  0.00    -0.006 A 
HETATM    8  C   UNL     1      41.345 -15.515  -0.379  1.00  0.00     0.131 A 
HETATM    9  N   UNL     1      40.869 -14.976  -1.526  1.00  0.00    -0.239 NA
HETATM   10  C   UNL     1      39.782 -14.196  -1.362  1.00  0.00     0.177 A 
HETATM   11  C   UNL     1      39.194 -13.965  -0.125  1.00  0.00     0.082 A 
HETATM   12  N   UNL     1      39.120 -13.539  -2.359  1.00  0.00    -0.222 NA
HETATM   13  N   UNL     1      38.142 -13.132  -0.408  1.00  0.00    -0.348 N 
HETATM   14  C   UNL     1      39.690 -14.532   1.050  1.00  0.00     0.047 A 
HETATM   15  H   UNL     1      37.484 -12.747   0.254  1.00  0.00     0.167 HD
HETATM   16  C   UNL     1      38.141 -12.905  -1.757  1.00  0.00     0.210 A 
ENDBRANCH   4   7
BRANCH   1  17
HETATM   17  C   UNL     1      43.216 -17.831   5.640  1.00  0.00     0.217 C 
HETATM   18  C   UNL     1      44.388 -17.067   6.263  1.00  0.00     0.045 C 
BRANCH  17  19
HETATM   19  N   UNL     1      43.555 -19.307   5.418  1.00  0.00    -0.063 N 
HETATM   20  H   UNL     1      42.681 -19.707   5.050  1.00  0.00     0.280 HD
HETATM   21  C   UNL     1      44.604 -19.576   4.361  1.00  0.00     0.235 C 
HETATM   22  C   UNL     1      44.672 -21.074   4.084  1.00  0.00     0.028 C 
HETATM   23  C   UNL     1      44.941 -21.870   5.355  1.00  0.00     0.003 C 
HETATM   24  C   UNL     1      43.918 -21.539   6.437  1.00  0.00     0.028 C 
HETATM   25  C   UNL     1      43.851 -20.042   6.706  1.00  0.00     0.235 C 
ENDBRANCH  17  19
ENDBRANCH   1  17
TORSDOF 3
ENDMDL
MODEL 9
REMARK VINA RESULT:      -7.3      2.006      8.545
REMARK  3 active torsions:
REMARK  status: ('A' for Active; 'I' for Inactive)
REMARK    1  A    between atoms: C_2  and  N_3 
REMARK    2  A    between atoms: C_2  and  C_10 
REMARK    3  A    between atoms: C_13  and  C_14 
ROOT
HETATM    1  C   UNL     1      41.995 -15.126   1.917  1.00  0.00    -0.028 A 
HETATM    2  C   UNL     1      42.280 -16.027   0.878  1.00  0.00     0.010 A 
HETATM    3  C   UNL     1      42.729 -17.327   1.154  1.00  0.00     0.013 A 
HETATM    4  C   UNL     1      42.897 -17.776   2.472  1.00  0.00    -0.024 A 
HETATM    5  C   UNL     1      42.579 -16.881   3.505  1.00  0.00     0.013 A 
HETATM    6  C   UNL     1      42.141 -15.578   3.236  1.00  0.00     0.010 A 
ENDROOT
BRANCH   4   7
HETATM    7  C   UNL     1      43.416 -19.125   2.766  1.00  0.00    -0.006 A 
HETATM    8  C   UNL     1      43.386 -20.141   1.795  1.00  0.00     0.131 A 
HETATM    9  N   UNL     1      43.829 -21.412   1.930  1.00  0.00    -0.239 NA
HETATM   10  C   UNL     1      44.337 -21.696   3.146  1.00  0.00     0.177 A 
HETATM   11  C   UNL     1      44.406 -20.766   4.175  1.00  0.00     0.082 A 
HETATM   12  N   UNL     1      44.842 -22.904   3.532  1.00  0.00    -0.222 NA
HETATM   13  N   UNL     1      44.975 -21.459   5.212  1.00  0.00    -0.348 N 
HETATM   14  C   UNL     1      43.953 -19.454   4.022  1.00  0.00     0.047 A 
HETATM   15  H   UNL     1      45.179 -21.104   6.135  1.00  0.00     0.167 HD
HETATM   16  C   UNL     1      45.216 -22.735   4.779  1.00  0.00     0.210 A 
ENDBRANCH   4   7
BRANCH   1  17
HETATM   17  C   UNL     1      41.537 -13.716   1.578  1.00  0.00     0.217 C 
HETATM   18  C   UNL     1      41.573 -12.731   2.751  1.00  0.00     0.045 C 
BRANCH  17  19
HETATM   19  N   UNL     1      40.177 -13.712   0.876  1.00  0.00    -0.063 N 
HETATM   20  H   UNL     1      40.025 -14.699   0.631  1.00  0.00     0.280 HD
HETATM   21  C   UNL     1      39.003 -13.321   1.746  1.00  0.00     0.235 C 
HETATM   22  C   UNL     1      37.704 -13.582   0.992  1.00  0.00     0.028 C 
HETATM   23  C   UNL     1      37.675 -12.856  -0.348  1.00  0.00     0.003 C 
HETATM   24  C   UNL     1      38.898 -13.206  -1.188  1.00  0.00     0.028 C 
HETATM   25  C   UNL     1      40.192 -12.947  -0.429  1.00  0.00     0.235 C 
ENDBRANCH  17  19
ENDBRANCH   1  17
TORSDOF 3
ENDMDL
MODEL 10
REMARK VINA RESULT:      -7.3      1.387      1.754
REMARK  3 active torsions:
REMARK  status: ('A' for Active; 'I' for Inactive)
REMARK    1  A    between atoms: C_2  and  N_3 
REMARK    2  A    between atoms: C_2  and  C_10 
REMARK    3  A    between atoms: C_13  and  C_14 
ROOT
HETATM    1  C   UNL     1      43.172 -17.542   2.496  1.00  0.00    -0.028 A 
HETATM    2  C   UNL     1      42.169 -18.143   1.719  1.00  0.00     0.010 A 
HETATM    3  C   UNL     1      41.332 -17.372   0.899  1.00  0.00     0.013 A 
HETATM    4  C   UNL     1      41.475 -15.979   0.817  1.00  0.00    -0.024 A 
HETATM    5  C   UNL     1      42.500 -15.389   1.572  1.00  0.00     0.013 A 
HETATM    6  C   UNL     1      43.332 -16.152   2.400  1.00  0.00     0.010 A 
ENDROOT
BRANCH   4   7
HETATM    7  C   UNL     1      40.564 -15.159  -0.005  1.00  0.00    -0.006 A 
HETATM    8  C   UNL     1      39.545 -14.394   0.586  1.00  0.00     0.131 A 
HETATM    9  N   UNL     1      38.648 -13.601  -0.045  1.00  0.00    -0.239 NA
HETATM   10  C   UNL     1      38.777 -13.579  -1.387  1.00  0.00     0.177 A 
HETATM   11  C   UNL     1      39.746 -14.304  -2.068  1.00  0.00     0.082 A 
HETATM   12  N   UNL     1      37.994 -12.864  -2.247  1.00  0.00    -0.222 NA
HETATM   13  N   UNL     1      39.521 -14.003  -3.386  1.00  0.00    -0.348 N 
HETATM   14  C   UNL     1      40.670 -15.113  -1.405  1.00  0.00     0.047 A 
HETATM   15  H   UNL     1      40.036 -14.354  -4.181  1.00  0.00     0.167 HD
HETATM   16  C   UNL     1      38.462 -13.138  -3.442  1.00  0.00     0.210 A 
ENDBRANCH   4   7
BRANCH   1  17
HETATM   17  C   UNL     1      44.041 -18.408   3.395  1.00  0.00     0.217 C 
HETATM   18  C   UNL     1      43.869 -19.917   3.191  1.00  0.00     0.045 C 
BRANCH  17  19
HETATM   19  N   UNL     1      43.907 -18.016   4.868  1.00  0.00    -0.063 N 
HETATM   20  H   UNL     1      44.188 -17.026   4.885  1.00  0.00     0.280 HD
HETATM   21  C   UNL     1      42.498 -18.049   5.419  1.00  0.00     0.235 C 
HETATM   22  C   UNL     1      42.482 -17.421   6.807  1.00  0.00     0.028 C 
HETATM   23  C   UNL     1      43.466 -18.106   7.747  1.00  0.00     0.003 C 
HETATM   24  C   UNL     1      44.869 -18.127   7.151  1.00  0.00     0.028 C 
HETATM   25  C   UNL     1      44.880 -18.751   5.763  1.00  0.00     0.235 C 
ENDBRANCH  17  19
ENDBRANCH   1  17
TORSDOF 3
ENDMDL
