MODEL 1
REMARK VINA RESULT:      -7.9      0.000      0.000
REMARK  6 active torsions:
REMARK  status: ('A' for Active; 'I' for Inactive)
REMARK    1  A    between atoms: C_2  and  N_3 
REMARK    2  A    between atoms: C_2  and  C_21 
REMARK       I    between atoms: N_3  and  C_4 
REMARK       I    between atoms: C_4  and  N_5 
REMARK    3  A    between atoms: N_5  and  C_6 
REMARK    4  A    between atoms: C_6  and  C_7 
REMARK    5  A    between atoms: C_10  and  O_11 
REMARK    6  A    between atoms: O_11  and  C_12 
ROOT
HETATM    1  N   UNL     1      44.322 -13.061   8.215  1.00  0.00    -0.332 N 
HETATM    2  C   UNL     1      43.404 -13.141   7.214  1.00  0.00     0.317 C 
HETATM    3  N   UNL     1      43.404 -14.373   6.617  1.00  0.00    -0.339 N 
HETATM    4  O   UNL     1      42.660 -12.225   6.889  1.00  0.00    -0.247 OA
HETATM    5  H   UNL     1      45.091 -13.716   8.224  1.00  0.00     0.165 HD
HETATM    6  H   UNL     1      43.684 -15.139   7.210  1.00  0.00     0.164 HD
ENDROOT
BRANCH   3   7
HETATM    7  C   UNL     1      42.420 -14.656   5.601  1.00  0.00     0.162 C 
BRANCH   7   8
HETATM    8  C   UNL     1      42.667 -15.988   4.948  1.00  0.00    -0.040 A 
HETATM    9  C   UNL     1      42.207 -17.168   5.546  1.00  0.00     0.011 A 
HETATM   10  C   UNL     1      42.413 -18.410   4.933  1.00  0.00     0.037 A 
HETATM   11  C   UNL     1      43.087 -18.489   3.715  1.00  0.00     0.069 A 
HETATM   12  C   UNL     1      43.576 -17.317   3.134  1.00  0.00     0.037 A 
HETATM   13  C   UNL     1      43.372 -16.075   3.743  1.00  0.00     0.011 A 
BRANCH  11  14
HETATM   14  O   UNL     1      43.330 -19.624   2.994  1.00  0.00    -0.346 OA
BRANCH  14  15
HETATM   15  C   UNL     1      44.683 -20.055   2.794  1.00  0.00     0.129 C 
HETATM   16  C   UNL     1      45.411 -20.237   4.135  1.00  0.00     0.032 C 
HETATM   17  C   UNL     1      44.791 -21.346   4.985  1.00  0.00     0.002 C 
HETATM   18  C   UNL     1      44.730 -22.667   4.225  1.00  0.00     0.000 C 
HETATM   19  C   UNL     1      44.012 -22.514   2.888  1.00  0.00     0.002 C 
HETATM   20  C   UNL     1      44.623 -21.396   2.042  1.00  0.00     0.032 C 
ENDBRANCH  14  15
ENDBRANCH  11  14
ENDBRANCH   7   8
ENDBRANCH   3   7
BRANCH   1  21
HETATM   21  C   UNL     1      44.536 -11.834   8.975  1.00  0.00     0.155 C 
HETATM   22  C   UNL     1      46.003 -11.403   8.950  1.00  0.00     0.041 C 
BRANCH  21  23
HETATM   23  C   UNL     1      44.072 -12.061  10.390  1.00  0.00     0.169 A 
HETATM   24  N   UNL     1      44.356 -13.175  11.090  1.00  0.00    -0.156 NA
HETATM   25  N   UNL     1      43.762 -12.909  12.265  1.00  0.00    -0.270 N 
HETATM   26  H   UNL     1      43.813 -13.590  13.015  1.00  0.00     0.190 HD
HETATM   27  C   UNL     1      43.158 -11.694  12.251  1.00  0.00     0.227 A 
HETATM   28  N   UNL     1      43.334 -11.129  11.081  1.00  0.00    -0.223 NA
ENDBRANCH  21  23
ENDBRANCH   1  21
TORSDOF 6
ENDMDL
MODEL 2
REMARK VINA RESULT:      -7.8      2.944      3.485
REMARK  6 active torsions:
REMARK  status: ('A' for Active; 'I' for Inactive)
REMARK    1  A    between atoms: C_2  and  N_3 
REMARK    2  A    between atoms: C_2  and  C_21 
REMARK       I    between atoms: N_3  and  C_4 
REMARK       I    between atoms: C_4  and  N_5 
REMARK    3  A    between atoms: N_5  and  C_6 
REMARK    4  A    between atoms: C_6  and  C_7 
REMARK    5  A    between atoms: C_10  and  O_11 
REMARK    6  A    between atoms: O_11  and  C_12 
ROOT
HETATM    1  N   UNL     1      40.308 -11.544   8.111  1.00  0.00    -0.332 N 
HETATM    2  C   UNL     1      39.813 -11.952   6.911  1.00  0.00     0.317 C 
HETATM    3  N   UNL     1      40.212 -13.225   6.601  1.00  0.00    -0.339 N 
HETATM    4  O   UNL     1      39.093 -11.269   6.197  1.00  0.00    -0.247 OA
HETATM    5  H   UNL     1      41.120 -12.012   8.488  1.00  0.00     0.165 HD
HETATM    6  H   UNL     1      40.388 -13.826   7.391  1.00  0.00     0.164 HD
ENDROOT
BRANCH   3   7
HETATM    7  C   UNL     1      39.693 -13.845   5.406  1.00  0.00     0.162 C 
BRANCH   7   8
HETATM    8  C   UNL     1      40.436 -15.111   5.073  1.00  0.00    -0.040 A 
HETATM    9  C   UNL     1      40.585 -15.517   3.742  1.00  0.00     0.011 A 
HETATM   10  C   UNL     1      41.295 -16.682   3.423  1.00  0.00     0.037 A 
HETATM   11  C   UNL     1      41.861 -17.457   4.433  1.00  0.00     0.069 A 
HETATM   12  C   UNL     1      41.685 -17.071   5.764  1.00  0.00     0.037 A 
HETATM   13  C   UNL     1      40.977 -15.910   6.086  1.00  0.00     0.011 A 
BRANCH  11  14
HETATM   14  O   UNL     1      42.602 -18.594   4.265  1.00  0.00    -0.346 OA
BRANCH  14  15
HETATM   15  C   UNL     1      43.961 -18.491   3.822  1.00  0.00     0.129 C 
HETATM   16  C   UNL     1      44.858 -19.507   4.546  1.00  0.00     0.032 C 
HETATM   17  C   UNL     1      44.472 -20.952   4.227  1.00  0.00     0.002 C 
HETATM   18  C   UNL     1      44.473 -21.212   2.724  1.00  0.00     0.000 C 
HETATM   19  C   UNL     1      43.589 -20.216   1.980  1.00  0.00     0.002 C 
HETATM   20  C   UNL     1      43.966 -18.770   2.310  1.00  0.00     0.032 C 
ENDBRANCH  14  15
ENDBRANCH  11  14
ENDBRANCH   7   8
ENDBRANCH   3   7
BRANCH   1  21
HETATM   21  C   UNL     1      40.053 -10.209   8.641  1.00  0.00     0.155 C 
HETATM   22  C   UNL     1      41.220  -9.260   8.366  1.00  0.00     0.041 C 
BRANCH  21  23
HETATM   23  C   UNL     1      39.798 -10.323  10.121  1.00  0.00     0.169 A 
HETATM   24  N   UNL     1      38.756  -9.735  10.737  1.00  0.00    -0.156 NA
HETATM   25  N   UNL     1      38.940 -10.131  12.008  1.00  0.00    -0.270 N 
HETATM   26  H   UNL     1      38.285  -9.835  12.724  1.00  0.00     0.190 HD
HETATM   27  C   UNL     1      40.041 -10.917  12.126  1.00  0.00     0.227 A 
HETATM   28  N   UNL     1      40.608 -11.059  10.953  1.00  0.00    -0.223 NA
ENDBRANCH  21  23
ENDBRANCH   1  21
TORSDOF 6
ENDMDL
MODEL 3
REMARK VINA RESULT:      -7.7      6.391      9.096
REMARK  6 active torsions:
REMARK  status: ('A' for Active; 'I' for Inactive)
REMARK    1  A    between atoms: C_2  and  N_3 
REMARK    2  A    between atoms: C_2  and  C_21 
REMARK       I    between atoms: N_3  and  C_4 
REMARK       I    between atoms: C_4  and  N_5 
REMARK    3  A    between atoms: N_5  and  C_6 
REMARK    4  A    between atoms: C_6  and  C_7 
REMARK    5  A    between atoms: C_10  and  O_11 
REMARK    6  A    between atoms: O_11  and  C_12 
ROOT
HETATM    1  N   UNL     1      41.792 -14.457  -2.312  1.00  0.00    -0.332 N 
HETATM    2  C   UNL     1      41.320 -14.493  -1.036  1.00  0.00     0.317 C 
HETATM    3  N   UNL     1      42.227 -15.041  -0.171  1.00  0.00    -0.339 N 
HETATM    4  O   UNL     1      40.220 -14.077  -0.700  1.00  0.00    -0.247 OA
HETATM    5  H   UNL     1      42.546 -15.079  -2.569  1.00  0.00     0.165 HD
HETATM    6  H   UNL     1      43.195 -14.923  -0.428  1.00  0.00     0.164 HD
ENDROOT
BRANCH   3   7
HETATM    7  C   UNL     1      41.921 -15.062   1.239  1.00  0.00     0.162 C 
BRANCH   7   8
HETATM    8  C   UNL     1      42.401 -16.330   1.890  1.00  0.00    -0.040 A 
HETATM    9  C   UNL     1      41.727 -16.859   2.999  1.00  0.00     0.011 A 
HETATM   10  C   UNL     1      42.155 -18.051   3.596  1.00  0.00     0.037 A 
HETATM   11  C   UNL     1      43.265 -18.729   3.095  1.00  0.00     0.069 A 
HETATM   12  C   UNL     1      43.958 -18.186   2.011  1.00  0.00     0.037 A 
HETATM   13  C   UNL     1      43.535 -16.996   1.412  1.00  0.00     0.011 A 
BRANCH  11  14
HETATM   14  O   UNL     1      43.771 -19.911   3.557  1.00  0.00    -0.346 OA
BRANCH  14  15
HETATM   15  C   UNL     1      44.946 -19.902   4.379  1.00  0.00     0.129 C 
HETATM   16  C   UNL     1      44.725 -19.068   5.652  1.00  0.00     0.032 C 
HETATM   17  C   UNL     1      43.645 -19.664   6.554  1.00  0.00     0.002 C 
HETATM   18  C   UNL     1      43.952 -21.115   6.911  1.00  0.00     0.000 C 
HETATM   19  C   UNL     1      44.176 -21.965   5.665  1.00  0.00     0.002 C 
HETATM   20  C   UNL     1      45.246 -21.362   4.754  1.00  0.00     0.032 C 
ENDBRANCH  14  15
ENDBRANCH  11  14
ENDBRANCH   7   8
ENDBRANCH   3   7
BRANCH   1  21
HETATM   21  C   UNL     1      40.992 -13.952  -3.422  1.00  0.00     0.155 C 
HETATM   22  C   UNL     1      40.518 -12.520  -3.171  1.00  0.00     0.041 C 
BRANCH  21  23
HETATM   23  C   UNL     1      39.817 -14.873  -3.621  1.00  0.00     0.169 A 
HETATM   24  N   UNL     1      39.944 -16.198  -3.823  1.00  0.00    -0.156 NA
HETATM   25  N   UNL     1      38.659 -16.577  -3.922  1.00  0.00    -0.270 N 
HETATM   26  H   UNL     1      38.437 -17.554  -4.078  1.00  0.00     0.190 HD
HETATM   27  C   UNL     1      37.819 -15.519  -3.783  1.00  0.00     0.227 A 
HETATM   28  N   UNL     1      38.517 -14.426  -3.591  1.00  0.00    -0.223 NA
ENDBRANCH  21  23
ENDBRANCH   1  21
TORSDOF 6
ENDMDL
MODEL 4
REMARK VINA RESULT:      -7.7      3.002     10.417
REMARK  6 active torsions:
REMARK  status: ('A' for Active; 'I' for Inactive)
REMARK    1  A    between atoms: C_2  and  N_3 
REMARK    2  A    between atoms: C_2  and  C_21 
REMARK       I    between atoms: N_3  and  C_4 
REMARK       I    between atoms: C_4  and  N_5 
REMARK    3  A    between atoms: N_5  and  C_6 
REMARK    4  A    between atoms: C_6  and  C_7 
REMARK    5  A    between atoms: C_10  and  O_11 
REMARK    6  A    between atoms: O_11  and  C_12 
ROOT
HETATM    1  N   UNL     1      42.822 -15.726   6.691  1.00  0.00    -0.332 N 
HETATM    2  C   UNL     1      43.505 -14.551   6.627  1.00  0.00     0.317 C 
HETATM    3  N   UNL     1      44.285 -14.353   7.735  1.00  0.00    -0.339 N 
HETATM    4  O   UNL     1      43.439 -13.767   5.690  1.00  0.00    -0.247 OA
HETATM    5  H   UNL     1      42.679 -16.158   7.593  1.00  0.00     0.165 HD
HETATM    6  H   UNL     1      44.614 -15.192   8.186  1.00  0.00     0.164 HD
ENDROOT
BRANCH   3   7
HETATM    7  C   UNL     1      45.151 -13.200   7.780  1.00  0.00     0.162 C 
BRANCH   7   8
HETATM    8  C   UNL     1      44.701 -12.212   8.823  1.00  0.00    -0.040 A 
HETATM    9  C   UNL     1      43.512 -11.492   8.652  1.00  0.00     0.011 A 
HETATM   10  C   UNL     1      43.076 -10.587   9.628  1.00  0.00     0.037 A 
HETATM   11  C   UNL     1      43.826 -10.388  10.786  1.00  0.00     0.069 A 
HETATM   12  C   UNL     1      45.029 -11.080  10.942  1.00  0.00     0.037 A 
HETATM   13  C   UNL     1      45.468 -11.984   9.970  1.00  0.00     0.011 A 
BRANCH  11  14
HETATM   14  O   UNL     1      43.505  -9.565  11.828  1.00  0.00    -0.346 OA
BRANCH  14  15
HETATM   15  C   UNL     1      43.229 -10.132  13.116  1.00  0.00     0.129 C 
HETATM   16  C   UNL     1      43.180  -9.044  14.201  1.00  0.00     0.032 C 
HETATM   17  C   UNL     1      42.037  -8.055  13.978  1.00  0.00     0.002 C 
HETATM   18  C   UNL     1      40.692  -8.768  13.874  1.00  0.00     0.000 C 
HETATM   19  C   UNL     1      40.713  -9.853  12.803  1.00  0.00     0.002 C 
HETATM   20  C   UNL     1      41.866 -10.836  13.016  1.00  0.00     0.032 C 
ENDBRANCH  14  15
ENDBRANCH  11  14
ENDBRANCH   7   8
ENDBRANCH   3   7
BRANCH   1  21
HETATM   21  C   UNL     1      41.894 -16.141   5.644  1.00  0.00     0.155 C 
HETATM   22  C   UNL     1      40.646 -16.806   6.226  1.00  0.00     0.041 C 
BRANCH  21  23
HETATM   23  C   UNL     1      42.613 -17.082   4.713  1.00  0.00     0.169 A 
HETATM   24  N   UNL     1      42.539 -18.422   4.817  1.00  0.00    -0.156 NA
HETATM   25  N   UNL     1      43.308 -18.811   3.786  1.00  0.00    -0.270 N 
HETATM   26  H   UNL     1      43.440 -19.801   3.608  1.00  0.00     0.190 HD
HETATM   27  C   UNL     1      43.807 -17.745   3.111  1.00  0.00     0.227 A 
HETATM   28  N   UNL     1      43.388 -16.635   3.670  1.00  0.00    -0.223 NA
ENDBRANCH  21  23
ENDBRANCH   1  21
TORSDOF 6
ENDMDL
MODEL 5
REMARK VINA RESULT:      -7.7      2.433      3.777
REMARK  6 active torsions:
REMARK  status: ('A' for Active; 'I' for Inactive)
REMARK    1  A    between atoms: C_2  and  N_3 
REMARK    2  A    between atoms: C_2  and  C_21 
REMARK       I    between atoms: N_3  and  C_4 
REMARK       I    between atoms: C_4  and  N_5 
REMARK    3  A    between atoms: N_5  and  C_6 
REMARK    4  A    between atoms: C_6  and  C_7 
REMARK    5  A    between atoms: C_10  and  O_11 
REMARK    6  A    between atoms: O_11  and  C_12 
ROOT
HETATM    1  N   UNL     1      43.130 -11.683  10.366  1.00  0.00    -0.332 N 
HETATM    2  C   UNL     1      44.060 -11.814   9.380  1.00  0.00     0.317 C 
HETATM    3  N   UNL     1      44.145 -13.104   8.928  1.00  0.00    -0.339 N 
HETATM    4  O   UNL     1      44.733 -10.891   8.944  1.00  0.00    -0.247 OA
HETATM    5  H   UNL     1      42.847 -12.504  10.881  1.00  0.00     0.165 HD
HETATM    6  H   UNL     1      43.297 -13.644   9.003  1.00  0.00     0.164 HD
ENDROOT
BRANCH   3   7
HETATM    7  C   UNL     1      45.014 -13.395   7.814  1.00  0.00     0.162 C 
BRANCH   7   8
HETATM    8  C   UNL     1      44.306 -14.199   6.757  1.00  0.00    -0.040 A 
HETATM    9  C   UNL     1      44.292 -15.598   6.820  1.00  0.00     0.011 A 
HETATM   10  C   UNL     1      43.616 -16.353   5.853  1.00  0.00     0.037 A 
HETATM   11  C   UNL     1      42.949 -15.718   4.807  1.00  0.00     0.069 A 
HETATM   12  C   UNL     1      42.990 -14.324   4.724  1.00  0.00     0.037 A 
HETATM   13  C   UNL     1      43.664 -13.567   5.687  1.00  0.00     0.011 A 
BRANCH  11  14
HETATM   14  O   UNL     1      42.228 -16.324   3.818  1.00  0.00    -0.346 OA
BRANCH  14  15
HETATM   15  C   UNL     1      42.599 -16.119   2.448  1.00  0.00     0.129 C 
HETATM   16  C   UNL     1      44.002 -16.678   2.164  1.00  0.00     0.032 C 
HETATM   17  C   UNL     1      44.068 -18.195   2.344  1.00  0.00     0.002 C 
HETATM   18  C   UNL     1      43.025 -18.905   1.487  1.00  0.00     0.000 C 
HETATM   19  C   UNL     1      41.622 -18.368   1.749  1.00  0.00     0.002 C 
HETATM   20  C   UNL     1      41.558 -16.849   1.584  1.00  0.00     0.032 C 
ENDBRANCH  14  15
ENDBRANCH  11  14
ENDBRANCH   7   8
ENDBRANCH   3   7
BRANCH   1  21
HETATM   21  C   UNL     1      42.884 -10.409  11.034  1.00  0.00     0.155 C 
HETATM   22  C   UNL     1      43.708 -10.275  12.315  1.00  0.00     0.041 C 
BRANCH  21  23
HETATM   23  C   UNL     1      41.412 -10.305  11.335  1.00  0.00     0.169 A 
HETATM   24  N   UNL     1      40.620 -11.377  11.524  1.00  0.00    -0.156 NA
HETATM   25  N   UNL     1      39.436 -10.792  11.775  1.00  0.00    -0.270 N 
HETATM   26  H   UNL     1      38.624 -11.369  11.964  1.00  0.00     0.190 HD
HETATM   27  C   UNL     1      39.535  -9.438  11.735  1.00  0.00     0.227 A 
HETATM   28  N   UNL     1      40.770  -9.096  11.460  1.00  0.00    -0.223 NA
ENDBRANCH  21  23
ENDBRANCH   1  21
TORSDOF 6
ENDMDL
MODEL 6
REMARK VINA RESULT:      -7.5      5.054      7.694
REMARK  6 active torsions:
REMARK  status: ('A' for Active; 'I' for Inactive)
REMARK    1  A    between atoms: C_2  and  N_3 
REMARK    2  A    between atoms: C_2  and  C_21 
REMARK       I    between atoms: N_3  and  C_4 
REMARK       I    between atoms: C_4  and  N_5 
REMARK    3  A    between atoms: N_5  and  C_6 
REMARK    4  A    between atoms: C_6  and  C_7 
REMARK    5  A    between atoms: C_10  and  O_11 
REMARK    6  A    between atoms: O_11  and  C_12 
ROOT
HETATM    1  N   UNL     1      40.443 -12.927   0.408  1.00  0.00    -0.332 N 
HETATM    2  C   UNL     1      41.332 -13.028   1.434  1.00  0.00     0.317 C 
HETATM    3  N   UNL     1      40.794 -13.675   2.514  1.00  0.00    -0.339 N 
HETATM    4  O   UNL     1      42.477 -12.600   1.395  1.00  0.00    -0.247 OA
HETATM    5  H   UNL     1      39.457 -13.013   0.609  1.00  0.00     0.165 HD
HETATM    6  H   UNL     1      40.076 -14.350   2.299  1.00  0.00     0.164 HD
ENDROOT
BRANCH   3   7
HETATM    7  C   UNL     1      41.638 -13.953   3.651  1.00  0.00     0.162 C 
BRANCH   7   8
HETATM    8  C   UNL     1      42.031 -15.404   3.705  1.00  0.00    -0.040 A 
HETATM    9  C   UNL     1      41.213 -16.338   4.354  1.00  0.00     0.011 A 
HETATM   10  C   UNL     1      41.561 -17.694   4.389  1.00  0.00     0.037 A 
HETATM   11  C   UNL     1      42.735 -18.134   3.779  1.00  0.00     0.069 A 
HETATM   12  C   UNL     1      43.568 -17.199   3.160  1.00  0.00     0.037 A 
HETATM   13  C   UNL     1      43.225 -15.845   3.123  1.00  0.00     0.011 A 
BRANCH  11  14
HETATM   14  O   UNL     1      43.179 -19.424   3.709  1.00  0.00    -0.346 OA
BRANCH  14  15
HETATM   15  C   UNL     1      44.570 -19.679   3.473  1.00  0.00     0.129 C 
HETATM   16  C   UNL     1      45.223 -20.359   4.687  1.00  0.00     0.032 C 
HETATM   17  C   UNL     1      44.634 -21.742   4.963  1.00  0.00     0.002 C 
HETATM   18  C   UNL     1      44.721 -22.642   3.734  1.00  0.00     0.000 C 
HETATM   19  C   UNL     1      44.079 -21.990   2.513  1.00  0.00     0.002 C 
HETATM   20  C   UNL     1      44.658 -20.600   2.245  1.00  0.00     0.032 C 
ENDBRANCH  14  15
ENDBRANCH  11  14
ENDBRANCH   7   8
ENDBRANCH   3   7
BRANCH   1  21
HETATM   21  C   UNL     1      40.772 -12.244  -0.838  1.00  0.00     0.155 C 
HETATM   22  C   UNL     1      39.594 -11.418  -1.357  1.00  0.00     0.041 C 
BRANCH  21  23
HETATM   23  C   UNL     1      41.187 -13.275  -1.853  1.00  0.00     0.169 A 
HETATM   24  N   UNL     1      42.362 -13.233  -2.510  1.00  0.00    -0.156 NA
HETATM   25  N   UNL     1      42.284 -14.342  -3.266  1.00  0.00    -0.270 N 
HETATM   26  H   UNL     1      43.052 -14.580  -3.883  1.00  0.00     0.190 HD
HETATM   27  C   UNL     1      41.116 -15.001  -3.058  1.00  0.00     0.227 A 
HETATM   28  N   UNL     1      40.398 -14.355  -2.171  1.00  0.00    -0.223 NA
ENDBRANCH  21  23
ENDBRANCH   1  21
TORSDOF 6
ENDMDL
MODEL 7
REMARK VINA RESULT:      -7.5      6.187      8.926
REMARK  6 active torsions:
REMARK  status: ('A' for Active; 'I' for Inactive)
REMARK    1  A    between atoms: C_2  and  N_3 
REMARK    2  A    between atoms: C_2  and  C_21 
REMARK       I    between atoms: N_3  and  C_4 
REMARK       I    between atoms: C_4  and  N_5 
REMARK    3  A    between atoms: N_5  and  C_6 
REMARK    4  A    between atoms: C_6  and  C_7 
REMARK    5  A    between atoms: C_10  and  O_11 
REMARK    6  A    between atoms: O_11  and  C_12 
ROOT
HETATM    1  N   UNL     1      38.417 -14.492  -1.524  1.00  0.00    -0.332 N 
HETATM    2  C   UNL     1      38.928 -13.952  -0.383  1.00  0.00     0.317 C 
HETATM    3  N   UNL     1      38.542 -14.651   0.729  1.00  0.00    -0.339 N 
HETATM    4  O   UNL     1      39.652 -12.967  -0.354  1.00  0.00    -0.247 OA
HETATM    5  H   UNL     1      37.604 -15.088  -1.459  1.00  0.00     0.165 HD
HETATM    6  H   UNL     1      38.360 -15.632   0.581  1.00  0.00     0.164 HD
ENDROOT
BRANCH   3   7
HETATM    7  C   UNL     1      39.078 -14.269   2.013  1.00  0.00     0.162 C 
BRANCH   7   8
HETATM    8  C   UNL     1      40.020 -15.312   2.551  1.00  0.00    -0.040 A 
HETATM    9  C   UNL     1      40.658 -15.124   3.783  1.00  0.00     0.011 A 
HETATM   10  C   UNL     1      41.518 -16.101   4.301  1.00  0.00     0.037 A 
HETATM   11  C   UNL     1      41.754 -17.276   3.590  1.00  0.00     0.069 A 
HETATM   12  C   UNL     1      41.144 -17.450   2.346  1.00  0.00     0.037 A 
HETATM   13  C   UNL     1      40.286 -16.478   1.825  1.00  0.00     0.011 A 
BRANCH  11  14
HETATM   14  O   UNL     1      42.540 -18.321   3.988  1.00  0.00    -0.346 OA
BRANCH  14  15
HETATM   15  C   UNL     1      43.959 -18.252   3.788  1.00  0.00     0.129 C 
HETATM   16  C   UNL     1      44.714 -18.943   4.934  1.00  0.00     0.032 C 
HETATM   17  C   UNL     1      44.421 -20.441   5.001  1.00  0.00     0.002 C 
HETATM   18  C   UNL     1      44.719 -21.129   3.673  1.00  0.00     0.000 C 
HETATM   19  C   UNL     1      43.981 -20.463   2.516  1.00  0.00     0.002 C 
HETATM   20  C   UNL     1      44.262 -18.960   2.457  1.00  0.00     0.032 C 
ENDBRANCH  14  15
ENDBRANCH  11  14
ENDBRANCH   7   8
ENDBRANCH   3   7
BRANCH   1  21
HETATM   21  C   UNL     1      38.657 -13.900  -2.836  1.00  0.00     0.155 C 
HETATM   22  C   UNL     1      37.910 -14.651  -3.939  1.00  0.00     0.041 C 
BRANCH  21  23
HETATM   23  C   UNL     1      40.140 -13.906  -3.099  1.00  0.00     0.169 A 
HETATM   24  N   UNL     1      40.850 -15.032  -3.296  1.00  0.00    -0.156 NA
HETATM   25  N   UNL     1      42.082 -14.537  -3.504  1.00  0.00    -0.270 N 
HETATM   26  H   UNL     1      42.851 -15.172  -3.688  1.00  0.00     0.190 HD
HETATM   27  C   UNL     1      42.088 -13.181  -3.431  1.00  0.00     0.227 A 
HETATM   28  N   UNL     1      40.878 -12.749  -3.177  1.00  0.00    -0.223 NA
ENDBRANCH  21  23
ENDBRANCH   1  21
TORSDOF 6
ENDMDL
MODEL 8
REMARK VINA RESULT:      -7.3      6.002      8.168
REMARK  6 active torsions:
REMARK  status: ('A' for Active; 'I' for Inactive)
REMARK    1  A    between atoms: C_2  and  N_3 
REMARK    2  A    between atoms: C_2  and  C_21 
REMARK       I    between atoms: N_3  and  C_4 
REMARK       I    between atoms: C_4  and  N_5 
REMARK    3  A    between atoms: N_5  and  C_6 
REMARK    4  A    between atoms: C_6  and  C_7 
REMARK    5  A    between atoms: C_10  and  O_11 
REMARK    6  A    between atoms: O_11  and  C_12 
ROOT
HETATM    1  N   UNL     1      42.347 -12.951  -1.739  1.00  0.00    -0.332 N 
HETATM    2  C   UNL     1      41.406 -13.904  -1.498  1.00  0.00     0.317 C 
HETATM    3  N   UNL     1      41.950 -15.029  -0.938  1.00  0.00    -0.339 N 
HETATM    4  O   UNL     1      40.215 -13.771  -1.743  1.00  0.00    -0.247 OA
HETATM    5  H   UNL     1      43.316 -13.230  -1.807  1.00  0.00     0.165 HD
HETATM    6  H   UNL     1      42.778 -14.878  -0.384  1.00  0.00     0.164 HD
ENDROOT
BRANCH   3   7
HETATM    7  C   UNL     1      41.071 -16.098  -0.529  1.00  0.00     0.162 C 
BRANCH   7   8
HETATM    8  C   UNL     1      41.504 -16.697   0.782  1.00  0.00    -0.040 A 
HETATM    9  C   UNL     1      40.705 -16.558   1.924  1.00  0.00     0.011 A 
HETATM   10  C   UNL     1      41.090 -17.131   3.142  1.00  0.00     0.037 A 
HETATM   11  C   UNL     1      42.281 -17.848   3.235  1.00  0.00     0.069 A 
HETATM   12  C   UNL     1      43.096 -17.959   2.106  1.00  0.00     0.037 A 
HETATM   13  C   UNL     1      42.715 -17.388   0.888  1.00  0.00     0.011 A 
BRANCH  11  14
HETATM   14  O   UNL     1      42.762 -18.483   4.346  1.00  0.00    -0.346 OA
BRANCH  14  15
HETATM   15  C   UNL     1      44.036 -18.099   4.882  1.00  0.00     0.129 C 
HETATM   16  C   UNL     1      43.875 -17.048   5.991  1.00  0.00     0.032 C 
HETATM   17  C   UNL     1      43.113 -17.592   7.199  1.00  0.00     0.002 C 
HETATM   18  C   UNL     1      43.767 -18.856   7.749  1.00  0.00     0.000 C 
HETATM   19  C   UNL     1      43.937 -19.917   6.667  1.00  0.00     0.002 C 
HETATM   20  C   UNL     1      44.687 -19.369   5.452  1.00  0.00     0.032 C 
ENDBRANCH  14  15
ENDBRANCH  11  14
ENDBRANCH   7   8
ENDBRANCH   3   7
BRANCH   1  21
HETATM   21  C   UNL     1      42.017 -11.677  -2.368  1.00  0.00     0.155 C 
HETATM   22  C   UNL     1      42.428 -11.650  -3.841  1.00  0.00     0.041 C 
BRANCH  21  23
HETATM   23  C   UNL     1      42.703 -10.575  -1.604  1.00  0.00     0.169 A 
HETATM   24  N   UNL     1      42.948 -10.636  -0.281  1.00  0.00    -0.156 NA
HETATM   25  N   UNL     1      43.575  -9.466  -0.073  1.00  0.00    -0.270 N 
HETATM   26  H   UNL     1      43.891  -9.229   0.861  1.00  0.00     0.190 HD
HETATM   27  C   UNL     1      43.692  -8.756  -1.224  1.00  0.00     0.227 A 
HETATM   28  N   UNL     1      43.152  -9.427  -2.211  1.00  0.00    -0.223 NA
ENDBRANCH  21  23
ENDBRANCH   1  21
TORSDOF 6
ENDMDL
MODEL 9
REMARK VINA RESULT:      -7.2      3.947     10.044
REMARK  6 active torsions:
REMARK  status: ('A' for Active; 'I' for Inactive)
REMARK    1  A    between atoms: C_2  and  N_3 
REMARK    2  A    between atoms: C_2  and  C_21 
REMARK       I    between atoms: N_3  and  C_4 
REMARK       I    between atoms: C_4  and  N_5 
REMARK    3  A    between atoms: N_5  and  C_6 
REMARK    4  A    between atoms: C_6  and  C_7 
REMARK    5  A    between atoms: C_10  and  O_11 
REMARK    6  A    between atoms: O_11  and  C_12 
ROOT
HETATM    1  N   UNL     1      41.127 -15.613   6.288  1.00  0.00    -0.332 N 
HETATM    2  C   UNL     1      40.936 -14.327   5.884  1.00  0.00     0.317 C 
HETATM    3  N   UNL     1      39.997 -13.686   6.647  1.00  0.00    -0.339 N 
HETATM    4  O   UNL     1      41.537 -13.803   4.956  1.00  0.00    -0.247 OA
HETATM    5  H   UNL     1      40.404 -16.064   6.831  1.00  0.00     0.165 HD
HETATM    6  H   UNL     1      39.916 -14.014   7.597  1.00  0.00     0.164 HD
ENDROOT
BRANCH   3   7
HETATM    7  C   UNL     1      39.749 -12.284   6.413  1.00  0.00     0.162 C 
BRANCH   7   8
HETATM    8  C   UNL     1      40.097 -11.453   7.617  1.00  0.00    -0.040 A 
HETATM    9  C   UNL     1      39.131 -11.176   8.593  1.00  0.00     0.011 A 
HETATM   10  C   UNL     1      39.454 -10.422   9.728  1.00  0.00     0.037 A 
HETATM   11  C   UNL     1      40.747  -9.931   9.900  1.00  0.00     0.069 A 
HETATM   12  C   UNL     1      41.702 -10.177   8.911  1.00  0.00     0.037 A 
HETATM   13  C   UNL     1      41.385 -10.928   7.777  1.00  0.00     0.011 A 
BRANCH  11  14
HETATM   14  O   UNL     1      41.206  -9.211  10.967  1.00  0.00    -0.346 OA
BRANCH  14  15
HETATM   15  C   UNL     1      40.807  -9.583  12.293  1.00  0.00     0.129 C 
HETATM   16  C   UNL     1      41.567 -10.831  12.770  1.00  0.00     0.032 C 
HETATM   17  C   UNL     1      43.071 -10.583  12.891  1.00  0.00     0.002 C 
HETATM   18  C   UNL     1      43.370  -9.394  13.798  1.00  0.00     0.000 C 
HETATM   19  C   UNL     1      42.628  -8.141  13.346  1.00  0.00     0.002 C 
HETATM   20  C   UNL     1      41.125  -8.392  13.211  1.00  0.00     0.032 C 
ENDBRANCH  14  15
ENDBRANCH  11  14
ENDBRANCH   7   8
ENDBRANCH   3   7
BRANCH   1  21
HETATM   21  C   UNL     1      42.051 -16.511   5.605  1.00  0.00     0.155 C 
HETATM   22  C   UNL     1      41.325 -17.418   4.609  1.00  0.00     0.041 C 
BRANCH  21  23
HETATM   23  C   UNL     1      42.774 -17.331   6.641  1.00  0.00     0.169 A 
HETATM   24  N   UNL     1      42.980 -16.909   7.903  1.00  0.00    -0.156 NA
HETATM   25  N   UNL     1      43.627 -17.961   8.432  1.00  0.00    -0.270 N 
HETATM   26  H   UNL     1      43.917 -17.932   9.404  1.00  0.00     0.190 HD
HETATM   27  C   UNL     1      43.790 -18.952   7.519  1.00  0.00     0.227 A 
HETATM   28  N   UNL     1      43.262 -18.588   6.376  1.00  0.00    -0.223 NA
ENDBRANCH  21  23
ENDBRANCH   1  21
TORSDOF 6
ENDMDL
MODEL 10
REMARK VINA RESULT:      -7.2      6.235      8.962
REMARK  6 active torsions:
REMARK  status: ('A' for Active; 'I' for Inactive)
REMARK    1  A    between atoms: C_2  and  N_3 
REMARK    2  A    between atoms: C_2  and  C_21 
REMARK       I    between atoms: N_3  and  C_4 
REMARK       I    between atoms: C_4  and  N_5 
REMARK    3  A    between atoms: N_5  and  C_6 
REMARK    4  A    between atoms: C_6  and  C_7 
REMARK    5  A    between atoms: C_10  and  O_11 
REMARK    6  A    between atoms: O_11  and  C_12 
ROOT
HETATM    1  N   UNL     1      38.984 -14.395  -0.426  1.00  0.00    -0.332 N 
HETATM    2  C   UNL     1      40.323 -14.560  -0.243  1.00  0.00     0.317 C 
HETATM    3  N   UNL     1      40.657 -15.878  -0.079  1.00  0.00    -0.339 N 
HETATM    4  O   UNL     1      41.133 -13.644  -0.233  1.00  0.00    -0.247 OA
HETATM    5  H   UNL     1      38.357 -15.125  -0.119  1.00  0.00     0.165 HD
HETATM    6  H   UNL     1      40.048 -16.538  -0.538  1.00  0.00     0.164 HD
ENDROOT
BRANCH   3   7
HETATM    7  C   UNL     1      42.051 -16.235   0.028  1.00  0.00     0.162 C 
BRANCH   7   8
HETATM    8  C   UNL     1      42.322 -17.037   1.272  1.00  0.00    -0.040 A 
HETATM    9  C   UNL     1      43.327 -18.012   1.283  1.00  0.00     0.011 A 
HETATM   10  C   UNL     1      43.600 -18.746   2.444  1.00  0.00     0.037 A 
HETATM   11  C   UNL     1      42.868 -18.518   3.608  1.00  0.00     0.069 A 
HETATM   12  C   UNL     1      41.842 -17.570   3.588  1.00  0.00     0.037 A 
HETATM   13  C   UNL     1      41.566 -16.835   2.432  1.00  0.00     0.011 A 
BRANCH  11  14
HETATM   14  O   UNL     1      43.047 -19.136   4.813  1.00  0.00    -0.346 OA
BRANCH  14  15
HETATM   15  C   UNL     1      44.369 -19.502   5.229  1.00  0.00     0.129 C 
HETATM   16  C   UNL     1      45.114 -18.300   5.829  1.00  0.00     0.032 C 
HETATM   17  C   UNL     1      44.452 -17.788   7.108  1.00  0.00     0.002 C 
HETATM   18  C   UNL     1      44.304 -18.898   8.144  1.00  0.00     0.000 C 
HETATM   19  C   UNL     1      43.567 -20.105   7.573  1.00  0.00     0.002 C 
HETATM   20  C   UNL     1      44.220 -20.609   6.285  1.00  0.00     0.032 C 
ENDBRANCH  14  15
ENDBRANCH  11  14
ENDBRANCH   7   8
ENDBRANCH   3   7
BRANCH   1  21
HETATM   21  C   UNL     1      38.381 -13.076  -0.584  1.00  0.00     0.155 C 
HETATM   22  C   UNL     1      37.233 -12.858   0.403  1.00  0.00     0.041 C 
BRANCH  21  23
HETATM   23  C   UNL     1      37.895 -12.941  -2.003  1.00  0.00     0.169 A 
HETATM   24  N   UNL     1      38.003 -13.923  -2.917  1.00  0.00    -0.156 NA
HETATM   25  N   UNL     1      37.428 -13.353  -3.990  1.00  0.00    -0.270 N 
HETATM   26  H   UNL     1      37.361 -13.875  -4.857  1.00  0.00     0.190 HD
HETATM   27  C   UNL     1      37.004 -12.094  -3.713  1.00  0.00     0.227 A 
HETATM   28  N   UNL     1      37.282 -11.801  -2.466  1.00  0.00    -0.223 NA
ENDBRANCH  21  23
ENDBRANCH   1  21
TORSDOF 6
ENDMDL
