MODEL 1
REMARK VINA RESULT:      -8.6      0.000      0.000
REMARK  3 active torsions:
REMARK  status: ('A' for Active; 'I' for Inactive)
REMARK    1  A    between atoms: O_2  and  C_3 
REMARK    2  A    between atoms: C_5  and  C_26 
REMARK    3  A    between atoms: C_11  and  C_15 
ROOT
HETATM    1  C   UNL     1      40.822 -15.499   3.870  1.00  0.00     0.096 A 
HETATM    2  C   UNL     1      41.348 -16.140   4.999  1.00  0.00     0.051 A 
HETATM    3  C   UNL     1      42.405 -17.061   4.877  1.00  0.00    -0.019 A 
HETATM    4  C   UNL     1      42.933 -17.331   3.610  1.00  0.00     0.031 A 
HETATM    5  C   UNL     1      42.396 -16.690   2.492  1.00  0.00     0.062 A 
HETATM    6  C   UNL     1      42.903 -16.946   1.145  1.00  0.00     0.259 A 
HETATM    7  O   UNL     1      43.821 -17.689   0.865  1.00  0.00    -0.267 OA
HETATM    8  N   UNL     1      42.255 -16.260   0.095  1.00  0.00    -0.312 N 
HETATM    9  C   UNL     1      41.255 -15.425   0.289  1.00  0.00     0.091 A 
HETATM   10  N   UNL     1      40.799 -15.168   1.504  1.00  0.00    -0.342 N 
HETATM   11  H   UNL     1      40.024 -14.523   1.665  1.00  0.00     0.167 HD
HETATM   12  C   UNL     1      41.345 -15.783   2.598  1.00  0.00     0.083 A 
HETATM   13  H   UNL     1      42.589 -16.447  -0.850  1.00  0.00     0.170 HD
ENDROOT
BRANCH   9  14
HETATM   14  C   UNL     1      40.581 -14.747  -0.865  1.00  0.00     0.082 C 
HETATM   15  C   UNL     1      39.465 -13.803  -0.430  1.00  0.00     0.188 C 
HETATM   16  O   UNL     1      39.959 -12.734   0.388  1.00  0.00    -0.350 OA
HETATM   17  C   UNL     1      41.030 -12.060  -0.141  1.00  0.00     0.075 A 
HETATM   18  C   UNL     1      41.303 -10.808   0.415  1.00  0.00     0.040 A 
HETATM   19  C   UNL     1      41.873 -12.613  -1.112  1.00  0.00    -0.021 A 
HETATM   20  C   UNL     1      42.409 -10.081  -0.023  1.00  0.00     0.045 A 
HETATM   21  C   UNL     1      43.232 -10.617  -1.005  1.00  0.00     0.117 A 
HETATM   22  F   UNL     1      44.297  -9.922  -1.425  1.00  0.00    -0.206 F 
HETATM   23  C   UNL     1      42.974 -11.869  -1.554  1.00  0.00     0.052 A 
HETATM   24  C   UNL     1      41.594 -13.965  -1.703  1.00  0.00     0.056 C 
ENDBRANCH   9  14
BRANCH   1  25
HETATM   25  O   UNL     1      39.795 -14.586   3.873  1.00  0.00    -0.354 OA
HETATM   26  C   UNL     1      39.733 -13.686   4.981  1.00  0.00     0.210 C 
ENDBRANCH   1  25
BRANCH   3  27
HETATM   27  C   UNL     1      42.921 -17.733   6.057  1.00  0.00     0.010 A 
HETATM   28  C   UNL     1      43.643 -18.942   6.190  1.00  0.00     0.152 A 
HETATM   29  N   UNL     1      43.933 -19.232   7.458  1.00  0.00    -0.187 NA
HETATM   30  N   UNL     1      43.405 -18.211   8.150  1.00  0.00    -0.289 N 
HETATM   31  H   UNL     1      43.502 -18.212   9.161  1.00  0.00     0.188 HD
HETATM   32  C   UNL     1      42.785 -17.286   7.354  1.00  0.00     0.123 A 
ENDBRANCH   3  27
TORSDOF 3
ENDMDL
MODEL 2
REMARK VINA RESULT:      -8.4      3.013      4.805
REMARK  3 active torsions:
REMARK  status: ('A' for Active; 'I' for Inactive)
REMARK    1  A    between atoms: O_2  and  C_3 
REMARK    2  A    between atoms: C_5  and  C_26 
REMARK    3  A    between atoms: C_11  and  C_15 
ROOT
HETATM    1  C   UNL     1      43.048 -17.519   2.743  1.00  0.00     0.096 A 
HETATM    2  C   UNL     1      43.562 -18.822   2.738  1.00  0.00     0.051 A 
HETATM    3  C   UNL     1      43.706 -19.544   3.938  1.00  0.00    -0.019 A 
HETATM    4  C   UNL     1      43.325 -18.946   5.144  1.00  0.00     0.031 A 
HETATM    5  C   UNL     1      42.819 -17.644   5.136  1.00  0.00     0.062 A 
HETATM    6  C   UNL     1      42.418 -16.970   6.369  1.00  0.00     0.259 A 
HETATM    7  O   UNL     1      42.454 -17.453   7.482  1.00  0.00    -0.267 OA
HETATM    8  N   UNL     1      41.952 -15.644   6.231  1.00  0.00    -0.312 N 
HETATM    9  C   UNL     1      41.865 -15.028   5.070  1.00  0.00     0.091 A 
HETATM   10  N   UNL     1      42.205 -15.633   3.943  1.00  0.00    -0.342 N 
HETATM   11  H   UNL     1      42.142 -15.165   3.039  1.00  0.00     0.167 HD
HETATM   12  C   UNL     1      42.679 -16.917   3.957  1.00  0.00     0.083 A 
HETATM   13  H   UNL     1      41.690 -15.159   7.088  1.00  0.00     0.170 HD
ENDROOT
BRANCH   9  14
HETATM   14  C   UNL     1      41.395 -13.609   4.983  1.00  0.00     0.082 C 
HETATM   15  C   UNL     1      42.372 -12.703   4.241  1.00  0.00     0.188 C 
HETATM   16  O   UNL     1      42.553 -13.116   2.879  1.00  0.00    -0.350 OA
HETATM   17  C   UNL     1      41.387 -13.302   2.180  1.00  0.00     0.075 A 
HETATM   18  C   UNL     1      41.503 -13.332   0.789  1.00  0.00     0.040 A 
HETATM   19  C   UNL     1      40.158 -13.546   2.804  1.00  0.00    -0.021 A 
HETATM   20  C   UNL     1      40.377 -13.576   0.004  1.00  0.00     0.045 A 
HETATM   21  C   UNL     1      39.151 -13.793   0.620  1.00  0.00     0.117 A 
HETATM   22  F   UNL     1      38.068 -14.031  -0.131  1.00  0.00    -0.206 F 
HETATM   23  C   UNL     1      39.030 -13.778   2.006  1.00  0.00     0.052 A 
HETATM   24  C   UNL     1      40.029 -13.530   4.299  1.00  0.00     0.056 C 
ENDBRANCH   9  14
BRANCH   1  25
HETATM   25  O   UNL     1      42.865 -16.727   1.635  1.00  0.00    -0.354 OA
HETATM   26  C   UNL     1      41.742 -17.026   0.804  1.00  0.00     0.210 C 
ENDBRANCH   1  25
BRANCH   3  27
HETATM   27  C   UNL     1      44.263 -20.884   3.916  1.00  0.00     0.010 A 
HETATM   28  C   UNL     1      44.373 -21.823   2.863  1.00  0.00     0.152 A 
HETATM   29  N   UNL     1      44.944 -22.964   3.247  1.00  0.00    -0.187 NA
HETATM   30  N   UNL     1      45.209 -22.769   4.547  1.00  0.00    -0.289 N 
HETATM   31  H   UNL     1      45.655 -23.519   5.067  1.00  0.00     0.188 HD
HETATM   32  C   UNL     1      44.817 -21.537   4.997  1.00  0.00     0.123 A 
ENDBRANCH   3  27
TORSDOF 3
ENDMDL
MODEL 3
REMARK VINA RESULT:      -8.3      3.750      8.385
REMARK  3 active torsions:
REMARK  status: ('A' for Active; 'I' for Inactive)
REMARK    1  A    between atoms: O_2  and  C_3 
REMARK    2  A    between atoms: C_5  and  C_26 
REMARK    3  A    between atoms: C_11  and  C_15 
ROOT
HETATM    1  C   UNL     1      42.709 -15.631   2.449  1.00  0.00     0.096 A 
HETATM    2  C   UNL     1      41.753 -15.301   1.481  1.00  0.00     0.051 A 
HETATM    3  C   UNL     1      40.502 -14.773   1.854  1.00  0.00    -0.019 A 
HETATM    4  C   UNL     1      40.222 -14.576   3.210  1.00  0.00     0.031 A 
HETATM    5  C   UNL     1      41.182 -14.914   4.166  1.00  0.00     0.062 A 
HETATM    6  C   UNL     1      40.935 -14.739   5.596  1.00  0.00     0.259 A 
HETATM    7  O   UNL     1      39.925 -14.278   6.087  1.00  0.00    -0.267 OA
HETATM    8  N   UNL     1      41.972 -15.148   6.462  1.00  0.00    -0.312 N 
HETATM    9  C   UNL     1      43.111 -15.653   6.034  1.00  0.00     0.091 A 
HETATM   10  N   UNL     1      43.357 -15.798   4.742  1.00  0.00    -0.342 N 
HETATM   11  H   UNL     1      44.236 -16.189   4.400  1.00  0.00     0.167 HD
HETATM   12  C   UNL     1      42.419 -15.444   3.810  1.00  0.00     0.083 A 
HETATM   13  H   UNL     1      41.800 -15.048   7.462  1.00  0.00     0.170 HD
ENDROOT
BRANCH   9  14
HETATM   14  C   UNL     1      44.166 -16.101   6.998  1.00  0.00     0.082 C 
HETATM   15  C   UNL     1      43.593 -16.822   8.214  1.00  0.00     0.188 C 
HETATM   16  O   UNL     1      42.898 -18.021   7.845  1.00  0.00    -0.350 OA
HETATM   17  C   UNL     1      43.610 -18.865   7.031  1.00  0.00     0.075 A 
HETATM   18  C   UNL     1      43.145 -20.180   6.952  1.00  0.00     0.040 A 
HETATM   19  C   UNL     1      44.682 -18.435   6.240  1.00  0.00    -0.021 A 
HETATM   20  C   UNL     1      43.774 -21.088   6.102  1.00  0.00     0.045 A 
HETATM   21  C   UNL     1      44.855 -20.670   5.336  1.00  0.00     0.117 A 
HETATM   22  F   UNL     1      45.458 -21.540   4.517  1.00  0.00    -0.206 F 
HETATM   23  C   UNL     1      45.315 -19.359   5.399  1.00  0.00     0.052 A 
HETATM   24  C   UNL     1      45.178 -17.019   6.308  1.00  0.00     0.056 C 
ENDBRANCH   9  14
BRANCH   1  25
HETATM   25  O   UNL     1      43.957 -16.149   2.197  1.00  0.00    -0.354 OA
HETATM   26  C   UNL     1      44.017 -17.337   1.407  1.00  0.00     0.210 C 
ENDBRANCH   1  25
BRANCH   3  27
HETATM   27  C   UNL     1      39.514 -14.460   0.837  1.00  0.00     0.010 A 
HETATM   28  C   UNL     1      39.664 -14.172  -0.540  1.00  0.00     0.152 A 
HETATM   29  N   UNL     1      38.502 -13.923  -1.144  1.00  0.00    -0.187 NA
HETATM   30  N   UNL     1      37.596 -14.051  -0.163  1.00  0.00    -0.289 N 
HETATM   31  H   UNL     1      36.617 -13.904  -0.388  1.00  0.00     0.188 HD
HETATM   32  C   UNL     1      38.154 -14.371   1.045  1.00  0.00     0.123 A 
ENDBRANCH   3  27
TORSDOF 3
ENDMDL
MODEL 4
REMARK VINA RESULT:      -8.3      3.038      4.335
REMARK  3 active torsions:
REMARK  status: ('A' for Active; 'I' for Inactive)
REMARK    1  A    between atoms: O_2  and  C_3 
REMARK    2  A    between atoms: C_5  and  C_26 
REMARK    3  A    between atoms: C_11  and  C_15 
ROOT
HETATM    1  C   UNL     1      43.580 -17.422   5.226  1.00  0.00     0.096 A 
HETATM    2  C   UNL     1      43.971 -18.766   5.280  1.00  0.00     0.051 A 
HETATM    3  C   UNL     1      44.122 -19.521   4.101  1.00  0.00    -0.019 A 
HETATM    4  C   UNL     1      43.882 -18.911   2.865  1.00  0.00     0.031 A 
HETATM    5  C   UNL     1      43.488 -17.572   2.825  1.00  0.00     0.062 A 
HETATM    6  C   UNL     1      43.212 -16.892   1.562  1.00  0.00     0.259 A 
HETATM    7  O   UNL     1      43.316 -17.384   0.457  1.00  0.00    -0.267 OA
HETATM    8  N   UNL     1      42.792 -15.547   1.656  1.00  0.00    -0.312 N 
HETATM    9  C   UNL     1      42.654 -14.914   2.803  1.00  0.00     0.091 A 
HETATM   10  N   UNL     1      42.920 -15.511   3.955  1.00  0.00    -0.342 N 
HETATM   11  H   UNL     1      42.816 -15.030   4.848  1.00  0.00     0.167 HD
HETATM   12  C   UNL     1      43.327 -16.817   3.984  1.00  0.00     0.083 A 
HETATM   13  H   UNL     1      42.578 -15.071   0.781  1.00  0.00     0.170 HD
ENDROOT
BRANCH   9  14
HETATM   14  C   UNL     1      42.173 -13.497   2.850  1.00  0.00     0.082 C 
HETATM   15  C   UNL     1      42.475 -12.724   1.569  1.00  0.00     0.188 C 
HETATM   16  O   UNL     1      41.818 -13.299   0.432  1.00  0.00    -0.350 OA
HETATM   17  C   UNL     1      40.475 -13.518   0.599  1.00  0.00     0.075 A 
HETATM   18  C   UNL     1      39.734 -13.715  -0.569  1.00  0.00     0.040 A 
HETATM   19  C   UNL     1      39.874 -13.638   1.858  1.00  0.00    -0.021 A 
HETATM   20  C   UNL     1      38.373 -14.003  -0.486  1.00  0.00     0.045 A 
HETATM   21  C   UNL     1      37.769 -14.096   0.762  1.00  0.00     0.117 A 
HETATM   22  F   UNL     1      36.463 -14.375   0.844  1.00  0.00    -0.206 F 
HETATM   23  C   UNL     1      38.504 -13.914   1.930  1.00  0.00     0.052 A 
HETATM   24  C   UNL     1      40.668 -13.442   3.118  1.00  0.00     0.056 C 
ENDBRANCH   9  14
BRANCH   1  25
HETATM   25  O   UNL     1      43.404 -16.596   6.310  1.00  0.00    -0.354 OA
HETATM   26  C   UNL     1      42.579 -17.084   7.369  1.00  0.00     0.210 C 
ENDBRANCH   1  25
BRANCH   3  27
HETATM   27  C   UNL     1      44.504 -20.919   4.179  1.00  0.00     0.010 A 
HETATM   28  C   UNL     1      44.973 -21.691   5.269  1.00  0.00     0.152 A 
HETATM   29  N   UNL     1      45.229 -22.955   4.932  1.00  0.00    -0.187 NA
HETATM   30  N   UNL     1      44.925 -23.008   3.627  1.00  0.00    -0.289 N 
HETATM   31  H   UNL     1      45.043 -23.891   3.140  1.00  0.00     0.188 HD
HETATM   32  C   UNL     1      44.487 -21.812   3.127  1.00  0.00     0.123 A 
ENDBRANCH   3  27
TORSDOF 3
ENDMDL
MODEL 5
REMARK VINA RESULT:      -8.1      1.014      2.672
REMARK  3 active torsions:
REMARK  status: ('A' for Active; 'I' for Inactive)
REMARK    1  A    between atoms: O_2  and  C_3 
REMARK    2  A    between atoms: C_5  and  C_26 
REMARK    3  A    between atoms: C_11  and  C_15 
ROOT
HETATM    1  C   UNL     1      42.089 -17.441   2.828  1.00  0.00     0.096 A 
HETATM    2  C   UNL     1      42.685 -17.904   4.008  1.00  0.00     0.051 A 
HETATM    3  C   UNL     1      42.396 -17.298   5.246  1.00  0.00    -0.019 A 
HETATM    4  C   UNL     1      41.499 -16.225   5.288  1.00  0.00     0.031 A 
HETATM    5  C   UNL     1      40.916 -15.770   4.103  1.00  0.00     0.062 A 
HETATM    6  C   UNL     1      39.984 -14.646   4.091  1.00  0.00     0.259 A 
HETATM    7  O   UNL     1      39.609 -14.027   5.066  1.00  0.00    -0.267 OA
HETATM    8  N   UNL     1      39.487 -14.261   2.826  1.00  0.00    -0.312 N 
HETATM    9  C   UNL     1      39.822 -14.869   1.706  1.00  0.00     0.091 A 
HETATM   10  N   UNL     1      40.650 -15.902   1.704  1.00  0.00    -0.342 N 
HETATM   11  H   UNL     1      40.916 -16.378   0.842  1.00  0.00     0.167 HD
HETATM   12  C   UNL     1      41.200 -16.355   2.872  1.00  0.00     0.083 A 
HETATM   13  H   UNL     1      38.851 -13.465   2.806  1.00  0.00     0.170 HD
ENDROOT
BRANCH   9  14
HETATM   14  C   UNL     1      39.292 -14.400   0.386  1.00  0.00     0.082 C 
HETATM   15  C   UNL     1      38.407 -13.163   0.506  1.00  0.00     0.188 C 
HETATM   16  O   UNL     1      39.127 -12.041   1.034  1.00  0.00    -0.350 OA
HETATM   17  C   UNL     1      40.309 -11.770   0.394  1.00  0.00     0.075 A 
HETATM   18  C   UNL     1      40.848 -10.500   0.611  1.00  0.00     0.040 A 
HETATM   19  C   UNL     1      41.003 -12.725  -0.359  1.00  0.00    -0.021 A 
HETATM   20  C   UNL     1      42.077 -10.163   0.046  1.00  0.00     0.045 A 
HETATM   21  C   UNL     1      42.756 -11.100  -0.723  1.00  0.00     0.117 A 
HETATM   22  F   UNL     1      43.938 -10.780  -1.263  1.00  0.00    -0.206 F 
HETATM   23  C   UNL     1      42.231 -12.372  -0.932  1.00  0.00     0.052 A 
HETATM   24  C   UNL     1      40.436 -14.098  -0.583  1.00  0.00     0.056 C 
ENDBRANCH   9  14
BRANCH   1  25
HETATM   25  O   UNL     1      42.298 -17.957   1.571  1.00  0.00    -0.354 OA
HETATM   26  C   UNL     1      43.596 -17.775   1.004  1.00  0.00     0.210 C 
ENDBRANCH   1  25
BRANCH   3  27
HETATM   27  C   UNL     1      43.041 -17.776   6.456  1.00  0.00     0.010 A 
HETATM   28  C   UNL     1      43.971 -18.824   6.655  1.00  0.00     0.152 A 
HETATM   29  N   UNL     1      44.327 -18.960   7.933  1.00  0.00    -0.187 NA
HETATM   30  N   UNL     1      43.633 -18.001   8.564  1.00  0.00    -0.289 N 
HETATM   31  H   UNL     1      43.742 -17.908   9.569  1.00  0.00     0.188 HD
HETATM   32  C   UNL     1      42.845 -17.264   7.721  1.00  0.00     0.123 A 
ENDBRANCH   3  27
TORSDOF 3
ENDMDL
MODEL 6
REMARK VINA RESULT:      -8.1      4.252      6.326
REMARK  3 active torsions:
REMARK  status: ('A' for Active; 'I' for Inactive)
REMARK    1  A    between atoms: O_2  and  C_3 
REMARK    2  A    between atoms: C_5  and  C_26 
REMARK    3  A    between atoms: C_11  and  C_15 
ROOT
HETATM    1  C   UNL     1      41.440 -16.447   3.830  1.00  0.00     0.096 A 
HETATM    2  C   UNL     1      42.074 -17.693   3.912  1.00  0.00     0.051 A 
HETATM    3  C   UNL     1      43.159 -17.894   4.786  1.00  0.00    -0.019 A 
HETATM    4  C   UNL     1      43.600 -16.831   5.581  1.00  0.00     0.031 A 
HETATM    5  C   UNL     1      42.963 -15.592   5.486  1.00  0.00     0.062 A 
HETATM    6  C   UNL     1      43.393 -14.447   6.285  1.00  0.00     0.259 A 
HETATM    7  O   UNL     1      44.293 -14.452   7.101  1.00  0.00    -0.267 OA
HETATM    8  N   UNL     1      42.690 -13.241   6.076  1.00  0.00    -0.312 N 
HETATM    9  C   UNL     1      41.694 -13.128   5.221  1.00  0.00     0.091 A 
HETATM   10  N   UNL     1      41.280 -14.161   4.505  1.00  0.00    -0.342 N 
HETATM   11  H   UNL     1      40.510 -14.084   3.840  1.00  0.00     0.167 HD
HETATM   12  C   UNL     1      41.895 -15.379   4.620  1.00  0.00     0.083 A 
HETATM   13  H   UNL     1      42.996 -12.432   6.614  1.00  0.00     0.170 HD
ENDROOT
BRANCH   9  14
HETATM   14  C   UNL     1      41.002 -11.816   5.012  1.00  0.00     0.082 C 
HETATM   15  C   UNL     1      39.490 -11.905   5.197  1.00  0.00     0.188 C 
HETATM   16  O   UNL     1      39.138 -12.299   6.530  1.00  0.00    -0.350 OA
HETATM   17  C   UNL     1      39.737 -11.563   7.520  1.00  0.00     0.075 A 
HETATM   18  C   UNL     1      39.158 -11.649   8.787  1.00  0.00     0.040 A 
HETATM   19  C   UNL     1      40.918 -10.837   7.319  1.00  0.00    -0.021 A 
HETATM   20  C   UNL     1      39.738 -10.980   9.863  1.00  0.00     0.045 A 
HETATM   21  C   UNL     1      40.895 -10.238   9.661  1.00  0.00     0.117 A 
HETATM   22  F   UNL     1      41.457  -9.597  10.693  1.00  0.00    -0.206 F 
HETATM   23  C   UNL     1      41.486 -10.158   8.404  1.00  0.00     0.052 A 
HETATM   24  C   UNL     1      41.555 -10.752   5.962  1.00  0.00     0.056 C 
ENDBRANCH   9  14
BRANCH   1  25
HETATM   25  O   UNL     1      40.376 -16.142   3.015  1.00  0.00    -0.354 OA
HETATM   26  C   UNL     1      40.343 -16.768   1.732  1.00  0.00     0.210 C 
ENDBRANCH   1  25
BRANCH   3  27
HETATM   27  C   UNL     1      43.818 -19.187   4.839  1.00  0.00     0.010 A 
HETATM   28  C   UNL     1      44.071 -20.051   5.931  1.00  0.00     0.152 A 
HETATM   29  N   UNL     1      44.719 -21.159   5.571  1.00  0.00    -0.187 NA
HETATM   30  N   UNL     1      44.885 -21.018   4.247  1.00  0.00    -0.289 N 
HETATM   31  H   UNL     1      45.366 -21.756   3.740  1.00  0.00     0.188 HD
HETATM   32  C   UNL     1      44.363 -19.851   3.761  1.00  0.00     0.123 A 
ENDBRANCH   3  27
TORSDOF 3
ENDMDL
MODEL 7
REMARK VINA RESULT:      -8.0      2.797      3.618
REMARK  3 active torsions:
REMARK  status: ('A' for Active; 'I' for Inactive)
REMARK    1  A    between atoms: O_2  and  C_3 
REMARK    2  A    between atoms: C_5  and  C_26 
REMARK    3  A    between atoms: C_11  and  C_15 
ROOT
HETATM    1  C   UNL     1      41.218 -16.670   4.429  1.00  0.00     0.096 A 
HETATM    2  C   UNL     1      42.153 -17.699   4.599  1.00  0.00     0.051 A 
HETATM    3  C   UNL     1      42.775 -18.299   3.488  1.00  0.00    -0.019 A 
HETATM    4  C   UNL     1      42.452 -17.852   2.202  1.00  0.00     0.031 A 
HETATM    5  C   UNL     1      41.515 -16.828   2.046  1.00  0.00     0.062 A 
HETATM    6  C   UNL     1      41.134 -16.333   0.725  1.00  0.00     0.259 A 
HETATM    7  O   UNL     1      41.588 -16.721  -0.333  1.00  0.00    -0.267 OA
HETATM    8  N   UNL     1      40.153 -15.318   0.698  1.00  0.00    -0.312 N 
HETATM    9  C   UNL     1      39.602 -14.821   1.786  1.00  0.00     0.091 A 
HETATM   10  N   UNL     1      39.952 -15.245   2.990  1.00  0.00    -0.342 N 
HETATM   11  H   UNL     1      39.530 -14.866   3.839  1.00  0.00     0.167 HD
HETATM   12  C   UNL     1      40.887 -16.233   3.136  1.00  0.00     0.083 A 
HETATM   13  H   UNL     1      39.867 -14.981  -0.220  1.00  0.00     0.170 HD
ENDROOT
BRANCH   9  14
HETATM   14  C   UNL     1      38.541 -13.767   1.700  1.00  0.00     0.082 C 
HETATM   15  C   UNL     1      39.111 -12.361   1.539  1.00  0.00     0.188 C 
HETATM   16  O   UNL     1      39.863 -12.227   0.325  1.00  0.00    -0.350 OA
HETATM   17  C   UNL     1      39.206 -12.652  -0.802  1.00  0.00     0.075 A 
HETATM   18  C   UNL     1      39.725 -12.207  -2.020  1.00  0.00     0.040 A 
HETATM   19  C   UNL     1      38.138 -13.556  -0.765  1.00  0.00    -0.021 A 
HETATM   20  C   UNL     1      39.154 -12.639  -3.216  1.00  0.00     0.045 A 
HETATM   21  C   UNL     1      38.077 -13.516  -3.181  1.00  0.00     0.117 A 
HETATM   22  F   UNL     1      37.530 -13.935  -4.329  1.00  0.00    -0.206 F 
HETATM   23  C   UNL     1      37.564 -13.974  -1.972  1.00  0.00     0.052 A 
HETATM   24  C   UNL     1      37.585 -14.051   0.541  1.00  0.00     0.056 C 
ENDBRANCH   9  14
BRANCH   1  25
HETATM   25  O   UNL     1      40.554 -16.016   5.440  1.00  0.00    -0.354 OA
HETATM   26  C   UNL     1      41.287 -15.023   6.159  1.00  0.00     0.210 C 
ENDBRANCH   1  25
BRANCH   3  27
HETATM   27  C   UNL     1      43.723 -19.381   3.683  1.00  0.00     0.010 A 
HETATM   28  C   UNL     1      44.415 -19.806   4.842  1.00  0.00     0.152 A 
HETATM   29  N   UNL     1      45.216 -20.846   4.611  1.00  0.00    -0.187 NA
HETATM   30  N   UNL     1      45.044 -21.100   3.305  1.00  0.00    -0.289 N 
HETATM   31  H   UNL     1      45.564 -21.868   2.891  1.00  0.00     0.188 HD
HETATM   32  C   UNL     1      44.159 -20.247   2.703  1.00  0.00     0.123 A 
ENDBRANCH   3  27
TORSDOF 3
ENDMDL
MODEL 8
REMARK VINA RESULT:      -7.9      2.466      3.955
REMARK  3 active torsions:
REMARK  status: ('A' for Active; 'I' for Inactive)
REMARK    1  A    between atoms: O_2  and  C_3 
REMARK    2  A    between atoms: C_5  and  C_26 
REMARK    3  A    between atoms: C_11  and  C_15 
ROOT
HETATM    1  C   UNL     1      42.752 -16.726   2.939  1.00  0.00     0.096 A 
HETATM    2  C   UNL     1      43.000 -17.542   4.050  1.00  0.00     0.051 A 
HETATM    3  C   UNL     1      43.110 -16.989   5.340  1.00  0.00    -0.019 A 
HETATM    4  C   UNL     1      42.965 -15.607   5.504  1.00  0.00     0.031 A 
HETATM    5  C   UNL     1      42.723 -14.804   4.388  1.00  0.00     0.062 A 
HETATM    6  C   UNL     1      42.577 -13.355   4.504  1.00  0.00     0.259 A 
HETATM    7  O   UNL     1      42.620 -12.720   5.538  1.00  0.00    -0.267 OA
HETATM    8  N   UNL     1      42.367 -12.651   3.298  1.00  0.00    -0.312 N 
HETATM    9  C   UNL     1      42.295 -13.241   2.122  1.00  0.00     0.091 A 
HETATM   10  N   UNL     1      42.406 -14.555   2.004  1.00  0.00    -0.342 N 
HETATM   11  H   UNL     1      42.353 -15.022   1.098  1.00  0.00     0.167 HD
HETATM   12  C   UNL     1      42.620 -15.338   3.106  1.00  0.00     0.083 A 
HETATM   13  H   UNL     1      42.283 -11.637   3.367  1.00  0.00     0.170 HD
ENDROOT
BRANCH   9  14
HETATM   14  C   UNL     1      42.104 -12.444   0.869  1.00  0.00     0.082 C 
HETATM   15  C   UNL     1      41.743 -13.307  -0.336  1.00  0.00     0.188 C 
HETATM   16  O   UNL     1      40.500 -13.996  -0.144  1.00  0.00    -0.350 OA
HETATM   17  C   UNL     1      39.458 -13.196   0.249  1.00  0.00     0.075 A 
HETATM   18  C   UNL     1      38.178 -13.729   0.087  1.00  0.00     0.040 A 
HETATM   19  C   UNL     1      39.645 -11.954   0.869  1.00  0.00    -0.021 A 
HETATM   20  C   UNL     1      37.066 -13.006   0.515  1.00  0.00     0.045 A 
HETATM   21  C   UNL     1      37.247 -11.762   1.107  1.00  0.00     0.117 A 
HETATM   22  F   UNL     1      36.182 -11.067   1.523  1.00  0.00    -0.206 F 
HETATM   23  C   UNL     1      38.521 -11.230   1.284  1.00  0.00     0.052 A 
HETATM   24  C   UNL     1      41.020 -11.381   1.060  1.00  0.00     0.056 C 
ENDBRANCH   9  14
BRANCH   1  25
HETATM   25  O   UNL     1      42.626 -17.158   1.640  1.00  0.00    -0.354 OA
HETATM   26  C   UNL     1      43.807 -17.646   1.003  1.00  0.00     0.210 C 
ENDBRANCH   1  25
BRANCH   3  27
HETATM   27  C   UNL     1      43.391 -17.848   6.476  1.00  0.00     0.010 A 
HETATM   28  C   UNL     1      43.660 -19.235   6.542  1.00  0.00     0.152 A 
HETATM   29  N   UNL     1      43.861 -19.662   7.788  1.00  0.00    -0.187 NA
HETATM   30  N   UNL     1      43.726 -18.555   8.533  1.00  0.00    -0.289 N 
HETATM   31  H   UNL     1      43.837 -18.634   9.539  1.00  0.00     0.188 HD
HETATM   32  C   UNL     1      43.441 -17.440   7.793  1.00  0.00     0.123 A 
ENDBRANCH   3  27
TORSDOF 3
ENDMDL
MODEL 9
REMARK VINA RESULT:      -7.8      3.544      8.267
REMARK  3 active torsions:
REMARK  status: ('A' for Active; 'I' for Inactive)
REMARK    1  A    between atoms: O_2  and  C_3 
REMARK    2  A    between atoms: C_5  and  C_26 
REMARK    3  A    between atoms: C_11  and  C_15 
ROOT
HETATM    1  C   UNL     1      41.190 -13.163  -1.572  1.00  0.00     0.096 A 
HETATM    2  C   UNL     1      40.209 -13.268  -2.566  1.00  0.00     0.051 A 
HETATM    3  C   UNL     1      38.913 -13.719  -2.254  1.00  0.00    -0.019 A 
HETATM    4  C   UNL     1      38.608 -14.059  -0.931  1.00  0.00     0.031 A 
HETATM    5  C   UNL     1      39.597 -13.954   0.050  1.00  0.00     0.062 A 
HETATM    6  C   UNL     1      39.334 -14.308   1.443  1.00  0.00     0.259 A 
HETATM    7  O   UNL     1      38.271 -14.690   1.887  1.00  0.00    -0.267 OA
HETATM    8  N   UNL     1      40.424 -14.189   2.333  1.00  0.00    -0.312 N 
HETATM    9  C   UNL     1      41.618 -13.777   1.958  1.00  0.00     0.091 A 
HETATM   10  N   UNL     1      41.865 -13.433   0.703  1.00  0.00    -0.342 N 
HETATM   11  H   UNL     1      42.786 -13.113   0.403  1.00  0.00     0.167 HD
HETATM   12  C   UNL     1      40.885 -13.517  -0.248  1.00  0.00     0.083 A 
HETATM   13  H   UNL     1      40.255 -14.452   3.302  1.00  0.00     0.170 HD
ENDROOT
BRANCH   9  14
HETATM   14  C   UNL     1      42.750 -13.699   2.936  1.00  0.00     0.082 C 
HETATM   15  C   UNL     1      42.278 -13.578   4.382  1.00  0.00     0.188 C 
HETATM   16  O   UNL     1      41.515 -14.721   4.791  1.00  0.00    -0.350 OA
HETATM   17  C   UNL     1      42.117 -15.928   4.543  1.00  0.00     0.075 A 
HETATM   18  C   UNL     1      41.608 -17.024   5.242  1.00  0.00     0.040 A 
HETATM   19  C   UNL     1      43.119 -16.094   3.578  1.00  0.00    -0.021 A 
HETATM   20  C   UNL     1      42.122 -18.298   5.005  1.00  0.00     0.045 A 
HETATM   21  C   UNL     1      43.135 -18.462   4.068  1.00  0.00     0.117 A 
HETATM   22  F   UNL     1      43.628 -19.684   3.836  1.00  0.00    -0.206 F 
HETATM   23  C   UNL     1      43.637 -17.376   3.357  1.00  0.00     0.052 A 
HETATM   24  C   UNL     1      43.660 -14.922   2.812  1.00  0.00     0.056 C 
ENDBRANCH   9  14
BRANCH   1  25
HETATM   25  O   UNL     1      42.482 -12.735  -1.764  1.00  0.00    -0.354 OA
HETATM   26  C   UNL     1      42.660 -11.386  -2.197  1.00  0.00     0.210 C 
ENDBRANCH   1  25
BRANCH   3  27
HETATM   27  C   UNL     1      37.916 -13.845  -3.302  1.00  0.00     0.010 A 
HETATM   28  C   UNL     1      37.335 -14.992  -3.892  1.00  0.00     0.152 A 
HETATM   29  N   UNL     1      36.452 -14.691  -4.843  1.00  0.00    -0.187 NA
HETATM   30  N   UNL     1      36.456 -13.350  -4.872  1.00  0.00    -0.289 N 
HETATM   31  H   UNL     1      35.847 -12.879  -5.536  1.00  0.00     0.188 HD
HETATM   32  C   UNL     1      37.319 -12.795  -3.967  1.00  0.00     0.123 A 
ENDBRANCH   3  27
TORSDOF 3
ENDMDL
MODEL 10
REMARK VINA RESULT:      -7.8      3.483      8.349
REMARK  3 active torsions:
REMARK  status: ('A' for Active; 'I' for Inactive)
REMARK    1  A    between atoms: O_2  and  C_3 
REMARK    2  A    between atoms: C_5  and  C_26 
REMARK    3  A    between atoms: C_11  and  C_15 
ROOT
HETATM    1  C   UNL     1      40.790 -14.637  -2.223  1.00  0.00     0.096 A 
HETATM    2  C   UNL     1      41.216 -13.571  -3.025  1.00  0.00     0.051 A 
HETATM    3  C   UNL     1      41.885 -12.468  -2.463  1.00  0.00    -0.019 A 
HETATM    4  C   UNL     1      42.126 -12.446  -1.084  1.00  0.00     0.031 A 
HETATM    5  C   UNL     1      41.691 -13.512  -0.294  1.00  0.00     0.062 A 
HETATM    6  C   UNL     1      41.906 -13.533   1.151  1.00  0.00     0.259 A 
HETATM    7  O   UNL     1      42.483 -12.678   1.792  1.00  0.00    -0.267 OA
HETATM    8  N   UNL     1      41.391 -14.651   1.842  1.00  0.00    -0.312 N 
HETATM    9  C   UNL     1      40.756 -15.638   1.243  1.00  0.00     0.091 A 
HETATM   10  N   UNL     1      40.572 -15.643  -0.067  1.00  0.00    -0.342 N 
HETATM   11  H   UNL     1      40.081 -16.403  -0.540  1.00  0.00     0.167 HD
HETATM   12  C   UNL     1      41.021 -14.605  -0.838  1.00  0.00     0.083 A 
HETATM   13  H   UNL     1      41.519 -14.664   2.853  1.00  0.00     0.170 HD
ENDROOT
BRANCH   9  14
HETATM   14  C   UNL     1      40.201 -16.786   2.028  1.00  0.00     0.082 C 
HETATM   15  C   UNL     1      40.402 -18.131   1.338  1.00  0.00     0.188 C 
HETATM   16  O   UNL     1      41.792 -18.440   1.167  1.00  0.00    -0.350 OA
HETATM   17  C   UNL     1      42.546 -18.326   2.307  1.00  0.00     0.075 A 
HETATM   18  C   UNL     1      43.789 -18.961   2.287  1.00  0.00     0.040 A 
HETATM   19  C   UNL     1      42.157 -17.544   3.401  1.00  0.00    -0.021 A 
HETATM   20  C   UNL     1      44.645 -18.846   3.382  1.00  0.00     0.045 A 
HETATM   21  C   UNL     1      44.249 -18.092   4.480  1.00  0.00     0.117 A 
HETATM   22  F   UNL     1      45.070 -17.977   5.532  1.00  0.00    -0.206 F 
HETATM   23  C   UNL     1      43.018 -17.445   4.501  1.00  0.00     0.052 A 
HETATM   24  C   UNL     1      40.828 -16.846   3.422  1.00  0.00     0.056 C 
ENDBRANCH   9  14
BRANCH   1  25
HETATM   25  O   UNL     1      40.131 -15.759  -2.666  1.00  0.00    -0.354 OA
HETATM   26  C   UNL     1      39.370 -15.631  -3.867  1.00  0.00     0.210 C 
ENDBRANCH   1  25
BRANCH   3  27
HETATM   27  C   UNL     1      42.299 -11.362  -3.307  1.00  0.00     0.010 A 
HETATM   28  C   UNL     1      42.698 -10.045  -2.977  1.00  0.00     0.152 A 
HETATM   29  N   UNL     1      42.997  -9.313  -4.049  1.00  0.00    -0.187 NA
HETATM   30  N   UNL     1      42.796 -10.151  -5.077  1.00  0.00    -0.289 N 
HETATM   31  H   UNL     1      42.963  -9.810  -6.019  1.00  0.00     0.188 HD
HETATM   32  C   UNL     1      42.375 -11.393  -4.684  1.00  0.00     0.123 A 
ENDBRANCH   3  27
TORSDOF 3
ENDMDL
