MODEL 1
REMARK VINA RESULT:      -8.3      0.000      0.000
REMARK  10 active torsions:
REMARK  status: ('A' for Active; 'I' for Inactive)
REMARK    1  A    between atoms: O_2  and  C_3 
REMARK    2  A    between atoms: C_3  and  C_4 
REMARK    3  A    between atoms: C_6  and  C_7 
REMARK    4  A    between atoms: C_7  and  C_8 
REMARK    5  A    between atoms: C_8  and  N_9 
REMARK       I    between atoms: N_9  and  C_10 
REMARK       I    between atoms: C_10  and  N_17 
REMARK    6  A    between atoms: N_17  and  CA_18 
REMARK    7  A    between atoms: CA_18  and  C_19 
REMARK    8  A    between atoms: CA_18  and  CB_21 
REMARK    9  A    between atoms: C_19  and  O_20 
REMARK   10  A    between atoms: CB_21  and  CG_22 
ROOT
HETATM    1  N   UNK A   0      42.483 -15.528   6.746  1.00  0.00    -0.343 N 
HETATM    2  C   UNK A   0      41.256 -16.008   6.417  1.00  0.00     0.316 C 
HETATM    3  O   UNK A   0      40.908 -17.169   6.605  1.00  0.00    -0.248 OA
HETATM    4  H   UNK A   0      42.609 -14.531   6.800  1.00  0.00     0.164 HD
ATOM      5  N   TRP A   1      40.410 -15.139   5.815  1.00  0.00    -0.336 N 
ATOM      6  H   TRP A   1      39.498 -15.548   5.636  1.00  0.00     0.164 HD
ENDROOT
BRANCH   5   7
ATOM      7  CA  TRP A   1      40.562 -13.712   5.505  1.00  0.00     0.114 C 
BRANCH   7   8
ATOM      8  C   TRP A   1      39.287 -12.959   5.951  1.00  0.00     0.189 C 
BRANCH   8   9
ATOM      9  O   TRP A   1      39.173 -12.949   7.375  1.00  0.00    -0.399 OA
ATOM     10  H   TRP A   1      38.411 -13.503   7.615  1.00  0.00     0.209 HD
ENDBRANCH   8   9
ENDBRANCH   7   8
BRANCH   7  11
ATOM     11  CB  TRP A   1      40.850 -13.457   4.011  1.00  0.00     0.068 C 
BRANCH  11  12
ATOM     12  CG  TRP A   1      40.600 -14.664   3.156  1.00  0.00    -0.028 A 
ATOM     13  CD2 TRP A   1      41.552 -15.665   2.782  1.00  0.00    -0.002 A 
ATOM     14  CE2 TRP A   1      40.883 -16.611   2.004  1.00  0.00     0.042 A 
ATOM     15  CE3 TRP A   1      42.927 -15.860   3.035  1.00  0.00     0.014 A 
ATOM     16  CZ2 TRP A   1      41.513 -17.742   1.473  1.00  0.00     0.030 A 
ATOM     17  NE1 TRP A   1      39.578 -16.194   1.893  1.00  0.00    -0.365 N 
ATOM     18  CH2 TRP A   1      42.875 -17.911   1.741  1.00  0.00     0.002 A 
ATOM     19  CZ3 TRP A   1      43.574 -16.984   2.508  1.00  0.00     0.001 A 
ATOM     20  HE1 TRP A   1      38.863 -16.686   1.374  1.00  0.00     0.165 HD
ATOM     21  CD1 TRP A   1      39.396 -15.022   2.578  1.00  0.00     0.096 A 
ENDBRANCH  11  12
ENDBRANCH   7  11
ENDBRANCH   5   7
BRANCH   1  22
HETATM   22  C   UNK A   0      43.514 -16.367   7.328  1.00  0.00     0.129 C 
BRANCH  22  23
HETATM   23  C   UNK A   0      44.383 -17.108   6.300  1.00  0.00     0.058 C 
BRANCH  23  24
HETATM   24  C   UNK A   0      44.223 -18.610   6.352  1.00  0.00    -0.056 A 
HETATM   25  C   UNK A   0      44.515 -19.385   5.218  1.00  0.00     0.024 A 
HETATM   26  C   UNK A   0      44.401 -20.782   5.255  1.00  0.00     0.040 A 
HETATM   27  C   UNK A   0      43.977 -21.403   6.436  1.00  0.00     0.017 A 
HETATM   28  C   UNK A   0      43.682 -20.639   7.566  1.00  0.00     0.002 A 
HETATM   29  C   UNK A   0      43.808 -19.250   7.526  1.00  0.00     0.007 A 
BRANCH  26  30
HETATM   30  C   UNK A   0      44.716 -21.638   4.079  1.00  0.00     0.292 C 
HETATM   31  O   UNK A   0      44.903 -22.842   4.152  1.00  0.00    -0.259 OA
BRANCH  30  32
HETATM   32  O   UNK A   0      44.772 -20.895   2.945  1.00  0.00    -0.323 OA
HETATM   33  C   UNK A   0      43.980 -21.405   1.873  1.00  0.00     0.213 C 
ENDBRANCH  30  32
ENDBRANCH  26  30
ENDBRANCH  23  24
ENDBRANCH  22  23
ENDBRANCH   1  22
TORSDOF 10
ENDMDL
MODEL 2
REMARK VINA RESULT:      -7.7      2.626      4.617
REMARK  10 active torsions:
REMARK  status: ('A' for Active; 'I' for Inactive)
REMARK    1  A    between atoms: O_2  and  C_3 
REMARK    2  A    between atoms: C_3  and  C_4 
REMARK    3  A    between atoms: C_6  and  C_7 
REMARK    4  A    between atoms: C_7  and  C_8 
REMARK    5  A    between atoms: C_8  and  N_9 
REMARK       I    between atoms: N_9  and  C_10 
REMARK       I    between atoms: C_10  and  N_17 
REMARK    6  A    between atoms: N_17  and  CA_18 
REMARK    7  A    between atoms: CA_18  and  C_19 
REMARK    8  A    between atoms: CA_18  and  CB_21 
REMARK    9  A    between atoms: C_19  and  O_20 
REMARK   10  A    between atoms: CB_21  and  CG_22 
ROOT
HETATM    1  N   UNK A   0      40.835 -16.660   1.664  1.00  0.00    -0.343 N 
HETATM    2  C   UNK A   0      40.820 -15.794   0.618  1.00  0.00     0.316 C 
HETATM    3  O   UNK A   0      41.576 -15.877  -0.344  1.00  0.00    -0.248 OA
HETATM    4  H   UNK A   0      40.039 -16.685   2.277  1.00  0.00     0.164 HD
ATOM      5  N   TRP A   1      39.935 -14.773   0.694  1.00  0.00    -0.336 N 
ATOM      6  H   TRP A   1      39.944 -14.190  -0.137  1.00  0.00     0.164 HD
ENDROOT
BRANCH   5   7
ATOM      7  CA  TRP A   1      38.912 -14.463   1.701  1.00  0.00     0.114 C 
BRANCH   7   8
ATOM      8  C   TRP A   1      37.576 -14.155   0.988  1.00  0.00     0.189 C 
BRANCH   8   9
ATOM      9  O   TRP A   1      37.677 -14.406  -0.415  1.00  0.00    -0.399 OA
ATOM     10  H   TRP A   1      37.636 -13.549  -0.872  1.00  0.00     0.209 HD
ENDBRANCH   8   9
ENDBRANCH   7   8
BRANCH   7  11
ATOM     11  CB  TRP A   1      39.321 -13.292   2.620  1.00  0.00     0.068 C 
BRANCH  11  12
ATOM     12  CG  TRP A   1      40.007 -13.748   3.873  1.00  0.00    -0.028 A 
ATOM     13  CD2 TRP A   1      41.415 -13.906   4.074  1.00  0.00    -0.002 A 
ATOM     14  CE2 TRP A   1      41.607 -14.326   5.390  1.00  0.00     0.042 A 
ATOM     15  CE3 TRP A   1      42.552 -13.727   3.257  1.00  0.00     0.014 A 
ATOM     16  CZ2 TRP A   1      42.874 -14.569   5.935  1.00  0.00     0.030 A 
ATOM     17  NE1 TRP A   1      40.363 -14.437   5.965  1.00  0.00    -0.365 N 
ATOM     18  CH2 TRP A   1      43.982 -14.383   5.104  1.00  0.00     0.002 A 
ATOM     19  CZ3 TRP A   1      43.826 -13.970   3.784  1.00  0.00     0.001 A 
ATOM     20  HE1 TRP A   1      40.199 -14.733   6.918  1.00  0.00     0.165 HD
ATOM     21  CD1 TRP A   1      39.392 -14.096   5.062  1.00  0.00     0.096 A 
ENDBRANCH  11  12
ENDBRANCH   7  11
ENDBRANCH   5   7
BRANCH   1  22
HETATM   22  C   UNK A   0      41.783 -17.756   1.751  1.00  0.00     0.129 C 
BRANCH  22  23
HETATM   23  C   UNK A   0      43.138 -17.375   2.366  1.00  0.00     0.058 C 
BRANCH  23  24
HETATM   24  C   UNK A   0      43.694 -18.431   3.294  1.00  0.00    -0.056 A 
HETATM   25  C   UNK A   0      43.615 -18.252   4.684  1.00  0.00     0.024 A 
HETATM   26  C   UNK A   0      44.098 -19.233   5.562  1.00  0.00     0.040 A 
HETATM   27  C   UNK A   0      44.678 -20.395   5.037  1.00  0.00     0.017 A 
HETATM   28  C   UNK A   0      44.763 -20.577   3.656  1.00  0.00     0.002 A 
HETATM   29  C   UNK A   0      44.270 -19.602   2.788  1.00  0.00     0.007 A 
BRANCH  26  30
HETATM   30  C   UNK A   0      44.019 -19.088   7.040  1.00  0.00     0.292 C 
HETATM   31  O   UNK A   0      43.722 -20.002   7.794  1.00  0.00    -0.259 OA
BRANCH  30  32
HETATM   32  O   UNK A   0      44.309 -17.816   7.414  1.00  0.00    -0.323 OA
HETATM   33  C   UNK A   0      43.376 -17.252   8.337  1.00  0.00     0.213 C 
ENDBRANCH  30  32
ENDBRANCH  26  30
ENDBRANCH  23  24
ENDBRANCH  22  23
ENDBRANCH   1  22
TORSDOF 10
ENDMDL
MODEL 3
REMARK VINA RESULT:      -7.7      4.050      7.346
REMARK  10 active torsions:
REMARK  status: ('A' for Active; 'I' for Inactive)
REMARK    1  A    between atoms: O_2  and  C_3 
REMARK    2  A    between atoms: C_3  and  C_4 
REMARK    3  A    between atoms: C_6  and  C_7 
REMARK    4  A    between atoms: C_7  and  C_8 
REMARK    5  A    between atoms: C_8  and  N_9 
REMARK       I    between atoms: N_9  and  C_10 
REMARK       I    between atoms: C_10  and  N_17 
REMARK    6  A    between atoms: N_17  and  CA_18 
REMARK    7  A    between atoms: CA_18  and  C_19 
REMARK    8  A    between atoms: CA_18  and  CB_21 
REMARK    9  A    between atoms: C_19  and  O_20 
REMARK   10  A    between atoms: CB_21  and  CG_22 
ROOT
HETATM    1  N   UNK A   0      40.920 -12.116   6.769  1.00  0.00    -0.343 N 
HETATM    2  C   UNK A   0      39.801 -12.754   6.342  1.00  0.00     0.316 C 
HETATM    3  O   UNK A   0      38.692 -12.232   6.308  1.00  0.00    -0.248 OA
HETATM    4  H   UNK A   0      41.815 -12.510   6.534  1.00  0.00     0.164 HD
ATOM      5  N   TRP A   1      39.947 -14.050   5.976  1.00  0.00    -0.336 N 
ATOM      6  H   TRP A   1      39.084 -14.453   5.625  1.00  0.00     0.164 HD
ENDROOT
BRANCH   5   7
ATOM      7  CA  TRP A   1      41.147 -14.893   5.892  1.00  0.00     0.114 C 
BRANCH   7   8
ATOM      8  C   TRP A   1      41.991 -14.452   4.675  1.00  0.00     0.189 C 
BRANCH   8   9
ATOM      9  O   TRP A   1      43.094 -13.641   5.086  1.00  0.00    -0.399 OA
ATOM     10  H   TRP A   1      43.275 -13.006   4.373  1.00  0.00     0.209 HD
ENDBRANCH   8   9
ENDBRANCH   7   8
BRANCH   7  11
ATOM     11  CB  TRP A   1      40.809 -16.396   5.805  1.00  0.00     0.068 C 
BRANCH  11  12
ATOM     12  CG  TRP A   1      41.976 -17.275   6.143  1.00  0.00    -0.028 A 
ATOM     13  CD2 TRP A   1      42.724 -18.096   5.240  1.00  0.00    -0.002 A 
ATOM     14  CE2 TRP A   1      43.731 -18.721   5.976  1.00  0.00     0.042 A 
ATOM     15  CE3 TRP A   1      42.643 -18.365   3.857  1.00  0.00     0.014 A 
ATOM     16  CZ2 TRP A   1      44.663 -19.594   5.403  1.00  0.00     0.030 A 
ATOM     17  NE1 TRP A   1      43.591 -18.312   7.281  1.00  0.00    -0.365 N 
ATOM     18  CH2 TRP A   1      44.560 -19.842   4.032  1.00  0.00     0.002 A 
ATOM     19  CZ3 TRP A   1      43.565 -19.239   3.268  1.00  0.00     0.001 A 
ATOM     20  HE1 TRP A   1      44.184 -18.616   8.042  1.00  0.00     0.165 HD
ATOM     21  CD1 TRP A   1      42.537 -17.445   7.395  1.00  0.00     0.096 A 
ENDBRANCH  11  12
ENDBRANCH   7  11
ENDBRANCH   5   7
BRANCH   1  22
HETATM   22  C   UNK A   0      40.896 -10.751   7.261  1.00  0.00     0.129 C 
BRANCH  22  23
HETATM   23  C   UNK A   0      40.656 -10.627   8.774  1.00  0.00     0.058 C 
BRANCH  23  24
HETATM   24  C   UNK A   0      41.933 -10.584   9.582  1.00  0.00    -0.056 A 
HETATM   25  C   UNK A   0      43.133 -11.050   9.020  1.00  0.00     0.024 A 
HETATM   26  C   UNK A   0      44.333 -10.992   9.742  1.00  0.00     0.040 A 
HETATM   27  C   UNK A   0      44.324 -10.473  11.043  1.00  0.00     0.017 A 
HETATM   28  C   UNK A   0      43.136 -10.011  11.609  1.00  0.00     0.002 A 
HETATM   29  C   UNK A   0      41.946 -10.062  10.880  1.00  0.00     0.007 A 
BRANCH  26  30
HETATM   30  C   UNK A   0      45.627 -11.461   9.177  1.00  0.00     0.292 C 
HETATM   31  O   UNK A   0      46.555 -10.716   8.904  1.00  0.00    -0.259 OA
BRANCH  30  32
HETATM   32  O   UNK A   0      45.615 -12.808   9.006  1.00  0.00    -0.323 OA
HETATM   33  C   UNK A   0      45.612 -13.222   7.640  1.00  0.00     0.213 C 
ENDBRANCH  30  32
ENDBRANCH  26  30
ENDBRANCH  23  24
ENDBRANCH  22  23
ENDBRANCH   1  22
TORSDOF 10
ENDMDL
MODEL 4
REMARK VINA RESULT:      -7.7      2.465      5.533
REMARK  10 active torsions:
REMARK  status: ('A' for Active; 'I' for Inactive)
REMARK    1  A    between atoms: O_2  and  C_3 
REMARK    2  A    between atoms: C_3  and  C_4 
REMARK    3  A    between atoms: C_6  and  C_7 
REMARK    4  A    between atoms: C_7  and  C_8 
REMARK    5  A    between atoms: C_8  and  N_9 
REMARK       I    between atoms: N_9  and  C_10 
REMARK       I    between atoms: C_10  and  N_17 
REMARK    6  A    between atoms: N_17  and  CA_18 
REMARK    7  A    between atoms: CA_18  and  C_19 
REMARK    8  A    between atoms: CA_18  and  CB_21 
REMARK    9  A    between atoms: C_19  and  O_20 
REMARK   10  A    between atoms: CB_21  and  CG_22 
ROOT
HETATM    1  N   UNK A   0      40.789 -14.267   2.750  1.00  0.00    -0.343 N 
HETATM    2  C   UNK A   0      39.790 -14.787   1.992  1.00  0.00     0.316 C 
HETATM    3  O   UNK A   0      38.607 -14.498   2.136  1.00  0.00    -0.248 OA
HETATM    4  H   UNK A   0      41.735 -14.348   2.418  1.00  0.00     0.164 HD
ATOM      5  N   TRP A   1      40.152 -15.699   1.060  1.00  0.00    -0.336 N 
ATOM      6  H   TRP A   1      39.366 -16.014   0.500  1.00  0.00     0.164 HD
ENDROOT
BRANCH   5   7
ATOM      7  CA  TRP A   1      41.479 -16.192   0.666  1.00  0.00     0.114 C 
BRANCH   7   8
ATOM      8  C   TRP A   1      41.734 -15.831  -0.815  1.00  0.00     0.189 C 
BRANCH   8   9
ATOM      9  O   TRP A   1      40.607 -16.173  -1.625  1.00  0.00    -0.399 OA
ATOM     10  H   TRP A   1      40.017 -16.730  -1.089  1.00  0.00     0.209 HD
ENDBRANCH   8   9
ENDBRANCH   7   8
BRANCH   7  11
ATOM     11  CB  TRP A   1      41.636 -17.711   0.890  1.00  0.00     0.068 C 
BRANCH  11  12
ATOM     12  CG  TRP A   1      42.557 -18.039   2.028  1.00  0.00    -0.028 A 
ATOM     13  CD2 TRP A   1      43.192 -19.296   2.286  1.00  0.00    -0.002 A 
ATOM     14  CE2 TRP A   1      43.974 -19.144   3.431  1.00  0.00     0.042 A 
ATOM     15  CE3 TRP A   1      43.178 -20.555   1.648  1.00  0.00     0.014 A 
ATOM     16  CZ2 TRP A   1      44.748 -20.180   3.967  1.00  0.00     0.030 A 
ATOM     17  NE1 TRP A   1      43.809 -17.850   3.865  1.00  0.00    -0.365 N 
ATOM     18  CH2 TRP A   1      44.717 -21.416   3.315  1.00  0.00     0.002 A 
ATOM     19  CZ3 TRP A   1      43.943 -21.603   2.173  1.00  0.00     0.001 A 
ATOM     20  HE1 TRP A   1      44.255 -17.462   4.685  1.00  0.00     0.165 HD
ATOM     21  CD1 TRP A   1      42.956 -17.176   3.032  1.00  0.00     0.096 A 
ENDBRANCH  11  12
ENDBRANCH   7  11
ENDBRANCH   5   7
BRANCH   1  22
HETATM   22  C   UNK A   0      40.536 -13.336   3.835  1.00  0.00     0.129 C 
BRANCH  22  23
HETATM   23  C   UNK A   0      40.461 -13.987   5.224  1.00  0.00     0.058 C 
BRANCH  23  24
HETATM   24  C   UNK A   0      41.809 -14.404   5.766  1.00  0.00    -0.056 A 
HETATM   25  C   UNK A   0      41.936 -15.609   6.476  1.00  0.00     0.024 A 
HETATM   26  C   UNK A   0      43.183 -16.028   6.961  1.00  0.00     0.040 A 
HETATM   27  C   UNK A   0      44.308 -15.223   6.741  1.00  0.00     0.017 A 
HETATM   28  C   UNK A   0      44.189 -14.023   6.039  1.00  0.00     0.002 A 
HETATM   29  C   UNK A   0      42.946 -13.617   5.550  1.00  0.00     0.007 A 
BRANCH  26  30
HETATM   30  C   UNK A   0      43.361 -17.304   7.704  1.00  0.00     0.292 C 
HETATM   31  O   UNK A   0      43.563 -17.363   8.907  1.00  0.00    -0.259 OA
BRANCH  30  32
HETATM   32  O   UNK A   0      43.278 -18.366   6.863  1.00  0.00    -0.323 OA
HETATM   33  C   UNK A   0      43.709 -19.600   7.437  1.00  0.00     0.213 C 
ENDBRANCH  30  32
ENDBRANCH  26  30
ENDBRANCH  23  24
ENDBRANCH  22  23
ENDBRANCH   1  22
TORSDOF 10
ENDMDL
MODEL 5
REMARK VINA RESULT:      -7.6      3.375      6.260
REMARK  10 active torsions:
REMARK  status: ('A' for Active; 'I' for Inactive)
REMARK    1  A    between atoms: O_2  and  C_3 
REMARK    2  A    between atoms: C_3  and  C_4 
REMARK    3  A    between atoms: C_6  and  C_7 
REMARK    4  A    between atoms: C_7  and  C_8 
REMARK    5  A    between atoms: C_8  and  N_9 
REMARK       I    between atoms: N_9  and  C_10 
REMARK       I    between atoms: C_10  and  N_17 
REMARK    6  A    between atoms: N_17  and  CA_18 
REMARK    7  A    between atoms: CA_18  and  C_19 
REMARK    8  A    between atoms: CA_18  and  CB_21 
REMARK    9  A    between atoms: C_19  and  O_20 
REMARK   10  A    between atoms: CB_21  and  CG_22 
ROOT
HETATM    1  N   UNK A   0      40.257 -15.011   3.134  1.00  0.00    -0.343 N 
HETATM    2  C   UNK A   0      39.470 -15.078   2.029  1.00  0.00     0.316 C 
HETATM    3  O   UNK A   0      38.339 -14.608   1.971  1.00  0.00    -0.248 OA
HETATM    4  H   UNK A   0      41.242 -15.185   3.031  1.00  0.00     0.164 HD
ATOM      5  N   TRP A   1      39.980 -15.741   0.965  1.00  0.00    -0.336 N 
ATOM      6  H   TRP A   1      39.361 -15.716   0.160  1.00  0.00     0.164 HD
ENDROOT
BRANCH   5   7
ATOM      7  CA  TRP A   1      41.296 -16.360   0.762  1.00  0.00     0.114 C 
BRANCH   7   8
ATOM      8  C   TRP A   1      41.711 -16.194  -0.718  1.00  0.00     0.189 C 
BRANCH   8   9
ATOM      9  O   TRP A   1      40.627 -15.686  -1.497  1.00  0.00    -0.399 OA
ATOM     10  H   TRP A   1      40.539 -14.738  -1.298  1.00  0.00     0.209 HD
ENDBRANCH   8   9
ENDBRANCH   7   8
BRANCH   7  11
ATOM     11  CB  TRP A   1      41.319 -17.849   1.170  1.00  0.00     0.068 C 
BRANCH  11  12
ATOM     12  CG  TRP A   1      42.425 -18.171   2.131  1.00  0.00    -0.028 A 
ATOM     13  CD2 TRP A   1      43.095 -19.428   2.280  1.00  0.00    -0.002 A 
ATOM     14  CE2 TRP A   1      44.065 -19.270   3.270  1.00  0.00     0.042 A 
ATOM     15  CE3 TRP A   1      42.970 -20.690   1.661  1.00  0.00     0.014 A 
ATOM     16  CZ2 TRP A   1      44.921 -20.304   3.668  1.00  0.00     0.030 A 
ATOM     17  NE1 TRP A   1      43.979 -17.974   3.720  1.00  0.00    -0.365 N 
ATOM     18  CH2 TRP A   1      44.776 -21.543   3.038  1.00  0.00     0.002 A 
ATOM     19  CZ3 TRP A   1      43.815 -21.736   2.050  1.00  0.00     0.001 A 
ATOM     20  HE1 TRP A   1      44.561 -17.582   4.448  1.00  0.00     0.165 HD
ATOM     21  CD1 TRP A   1      42.993 -17.304   3.045  1.00  0.00     0.096 A 
ENDBRANCH  11  12
ENDBRANCH   7  11
ENDBRANCH   5   7
BRANCH   1  22
HETATM   22  C   UNK A   0      39.808 -14.397   4.370  1.00  0.00     0.129 C 
BRANCH  22  23
HETATM   23  C   UNK A   0      40.842 -13.471   5.029  1.00  0.00     0.058 C 
BRANCH  23  24
HETATM   24  C   UNK A   0      41.953 -14.217   5.733  1.00  0.00    -0.056 A 
HETATM   25  C   UNK A   0      43.126 -13.540   6.102  1.00  0.00     0.024 A 
HETATM   26  C   UNK A   0      44.155 -14.207   6.781  1.00  0.00     0.040 A 
HETATM   27  C   UNK A   0      44.009 -15.568   7.079  1.00  0.00     0.017 A 
HETATM   28  C   UNK A   0      42.848 -16.248   6.712  1.00  0.00     0.002 A 
HETATM   29  C   UNK A   0      41.822 -15.575   6.046  1.00  0.00     0.007 A 
BRANCH  26  30
HETATM   30  C   UNK A   0      45.407 -13.522   7.203  1.00  0.00     0.292 C 
HETATM   31  O   UNK A   0      46.332 -13.277   6.444  1.00  0.00    -0.259 OA
BRANCH  30  32
HETATM   32  O   UNK A   0      45.370 -13.226   8.527  1.00  0.00    -0.323 OA
HETATM   33  C   UNK A   0      45.787 -11.897   8.839  1.00  0.00     0.213 C 
ENDBRANCH  30  32
ENDBRANCH  26  30
ENDBRANCH  23  24
ENDBRANCH  22  23
ENDBRANCH   1  22
TORSDOF 10
ENDMDL
MODEL 6
REMARK VINA RESULT:      -7.6      4.235      8.068
REMARK  10 active torsions:
REMARK  status: ('A' for Active; 'I' for Inactive)
REMARK    1  A    between atoms: O_2  and  C_3 
REMARK    2  A    between atoms: C_3  and  C_4 
REMARK    3  A    between atoms: C_6  and  C_7 
REMARK    4  A    between atoms: C_7  and  C_8 
REMARK    5  A    between atoms: C_8  and  N_9 
REMARK       I    between atoms: N_9  and  C_10 
REMARK       I    between atoms: C_10  and  N_17 
REMARK    6  A    between atoms: N_17  and  CA_18 
REMARK    7  A    between atoms: CA_18  and  C_19 
REMARK    8  A    between atoms: CA_18  and  CB_21 
REMARK    9  A    between atoms: C_19  and  O_20 
REMARK   10  A    between atoms: CB_21  and  CG_22 
ROOT
HETATM    1  N   UNK A   0      44.346 -13.477   8.303  1.00  0.00    -0.343 N 
HETATM    2  C   UNK A   0      44.914 -14.042   7.207  1.00  0.00     0.316 C 
HETATM    3  O   UNK A   0      45.878 -13.564   6.619  1.00  0.00    -0.248 OA
HETATM    4  H   UNK A   0      43.738 -14.041   8.872  1.00  0.00     0.164 HD
ATOM      5  N   TRP A   1      44.333 -15.173   6.742  1.00  0.00    -0.336 N 
ATOM      6  H   TRP A   1      44.831 -15.566   5.949  1.00  0.00     0.164 HD
ENDROOT
BRANCH   5   7
ATOM      7  CA  TRP A   1      43.208 -15.958   7.265  1.00  0.00     0.114 C 
BRANCH   7   8
ATOM      8  C   TRP A   1      43.736 -17.313   7.788  1.00  0.00     0.189 C 
BRANCH   8   9
ATOM      9  O   TRP A   1      43.596 -17.401   9.208  1.00  0.00    -0.399 OA
ATOM     10  H   TRP A   1      44.134 -18.152   9.511  1.00  0.00     0.209 HD
ENDBRANCH   8   9
ENDBRANCH   7   8
BRANCH   7  11
ATOM     11  CB  TRP A   1      42.098 -16.175   6.215  1.00  0.00     0.068 C 
BRANCH  11  12
ATOM     12  CG  TRP A   1      42.604 -16.085   4.806  1.00  0.00    -0.028 A 
ATOM     13  CD2 TRP A   1      43.114 -17.157   4.005  1.00  0.00    -0.002 A 
ATOM     14  CE2 TRP A   1      43.449 -16.627   2.759  1.00  0.00     0.042 A 
ATOM     15  CE3 TRP A   1      43.320 -18.536   4.223  1.00  0.00     0.014 A 
ATOM     16  CZ2 TRP A   1      43.971 -17.403   1.718  1.00  0.00     0.030 A 
ATOM     17  NE1 TRP A   1      43.171 -15.281   2.803  1.00  0.00    -0.365 N 
ATOM     18  CH2 TRP A   1      44.164 -18.766   1.959  1.00  0.00     0.002 A 
ATOM     19  CZ3 TRP A   1      43.845 -19.326   3.193  1.00  0.00     0.001 A 
ATOM     20  HE1 TRP A   1      43.324 -14.641   2.036  1.00  0.00     0.165 HD
ATOM     21  CD1 TRP A   1      42.666 -14.942   4.030  1.00  0.00     0.096 A 
ENDBRANCH  11  12
ENDBRANCH   7  11
ENDBRANCH   5   7
BRANCH   1  22
HETATM   22  C   UNK A   0      44.818 -12.225   8.864  1.00  0.00     0.129 C 
BRANCH  22  23
HETATM   23  C   UNK A   0      44.722 -12.139  10.395  1.00  0.00     0.058 C 
BRANCH  23  24
HETATM   24  C   UNK A   0      43.720 -11.115  10.877  1.00  0.00    -0.056 A 
HETATM   25  C   UNK A   0      42.508 -10.945  10.189  1.00  0.00     0.024 A 
HETATM   26  C   UNK A   0      41.553 -10.021  10.637  1.00  0.00     0.040 A 
HETATM   27  C   UNK A   0      41.825  -9.254  11.776  1.00  0.00     0.017 A 
HETATM   28  C   UNK A   0      43.029  -9.415  12.463  1.00  0.00     0.002 A 
HETATM   29  C   UNK A   0      43.971 -10.345  12.018  1.00  0.00     0.007 A 
BRANCH  26  30
HETATM   30  C   UNK A   0      40.251  -9.821   9.945  1.00  0.00     0.292 C 
HETATM   31  O   UNK A   0      39.169  -9.900  10.505  1.00  0.00    -0.259 OA
BRANCH  30  32
HETATM   32  O   UNK A   0      40.443  -9.556   8.628  1.00  0.00    -0.323 OA
HETATM   33  C   UNK A   0      39.471 -10.149   7.766  1.00  0.00     0.213 C 
ENDBRANCH  30  32
ENDBRANCH  26  30
ENDBRANCH  23  24
ENDBRANCH  22  23
ENDBRANCH   1  22
TORSDOF 10
ENDMDL
MODEL 7
REMARK VINA RESULT:      -7.5      3.302      6.535
REMARK  10 active torsions:
REMARK  status: ('A' for Active; 'I' for Inactive)
REMARK    1  A    between atoms: O_2  and  C_3 
REMARK    2  A    between atoms: C_3  and  C_4 
REMARK    3  A    between atoms: C_6  and  C_7 
REMARK    4  A    between atoms: C_7  and  C_8 
REMARK    5  A    between atoms: C_8  and  N_9 
REMARK       I    between atoms: N_9  and  C_10 
REMARK       I    between atoms: C_10  and  N_17 
REMARK    6  A    between atoms: N_17  and  CA_18 
REMARK    7  A    between atoms: CA_18  and  C_19 
REMARK    8  A    between atoms: CA_18  and  CB_21 
REMARK    9  A    between atoms: C_19  and  O_20 
REMARK   10  A    between atoms: CB_21  and  CG_22 
ROOT
HETATM    1  N   UNK A   0      43.129 -14.894   5.628  1.00  0.00    -0.343 N 
HETATM    2  C   UNK A   0      43.994 -14.887   6.675  1.00  0.00     0.316 C 
HETATM    3  O   UNK A   0      44.480 -13.865   7.147  1.00  0.00    -0.248 OA
HETATM    4  H   UNK A   0      42.584 -15.722   5.462  1.00  0.00     0.164 HD
ATOM      5  N   TRP A   1      44.346 -16.095   7.174  1.00  0.00    -0.336 N 
ATOM      6  H   TRP A   1      44.958 -16.017   7.980  1.00  0.00     0.164 HD
ENDROOT
BRANCH   5   7
ATOM      7  CA  TRP A   1      43.896 -17.447   6.820  1.00  0.00     0.114 C 
BRANCH   7   8
ATOM      8  C   TRP A   1      43.641 -18.251   8.115  1.00  0.00     0.189 C 
BRANCH   8   9
ATOM      9  O   TRP A   1      43.579 -17.384   9.249  1.00  0.00    -0.399 OA
ATOM     10  H   TRP A   1      44.432 -17.441   9.711  1.00  0.00     0.209 HD
ENDBRANCH   8   9
ENDBRANCH   7   8
BRANCH   7  11
ATOM     11  CB  TRP A   1      44.899 -18.185   5.909  1.00  0.00     0.068 C 
BRANCH  11  12
ATOM     12  CG  TRP A   1      44.331 -18.510   4.559  1.00  0.00    -0.028 A 
ATOM     13  CD2 TRP A   1      44.341 -19.784   3.906  1.00  0.00    -0.002 A 
ATOM     14  CE2 TRP A   1      43.686 -19.634   2.684  1.00  0.00     0.042 A 
ATOM     15  CE3 TRP A   1      44.844 -21.059   4.242  1.00  0.00     0.014 A 
ATOM     16  CZ2 TRP A   1      43.502 -20.690   1.784  1.00  0.00     0.030 A 
ATOM     17  NE1 TRP A   1      43.307 -18.316   2.587  1.00  0.00    -0.365 N 
ATOM     18  CH2 TRP A   1      44.009 -21.942   2.142  1.00  0.00     0.002 A 
ATOM     19  CZ3 TRP A   1      44.672 -22.126   3.352  1.00  0.00     0.001 A 
ATOM     20  HE1 TRP A   1      42.817 -17.919   1.796  1.00  0.00     0.165 HD
ATOM     21  CD1 TRP A   1      43.693 -17.629   3.707  1.00  0.00     0.096 A 
ENDBRANCH  11  12
ENDBRANCH   7  11
ENDBRANCH   5   7
BRANCH   1  22
HETATM   22  C   UNK A   0      42.724 -13.677   4.947  1.00  0.00     0.129 C 
BRANCH  22  23
HETATM   23  C   UNK A   0      43.117 -13.621   3.463  1.00  0.00     0.058 C 
BRANCH  23  24
HETATM   24  C   UNK A   0      41.988 -13.995   2.529  1.00  0.00    -0.056 A 
HETATM   25  C   UNK A   0      42.124 -13.785   1.148  1.00  0.00     0.024 A 
HETATM   26  C   UNK A   0      41.100 -14.152   0.263  1.00  0.00     0.040 A 
HETATM   27  C   UNK A   0      39.927 -14.721   0.772  1.00  0.00     0.017 A 
HETATM   28  C   UNK A   0      39.783 -14.930   2.144  1.00  0.00     0.002 A 
HETATM   29  C   UNK A   0      40.811 -14.572   3.019  1.00  0.00     0.007 A 
BRANCH  26  30
HETATM   30  C   UNK A   0      41.212 -13.960  -1.208  1.00  0.00     0.292 C 
HETATM   31  O   UNK A   0      42.055 -13.250  -1.735  1.00  0.00    -0.259 OA
BRANCH  30  32
HETATM   32  O   UNK A   0      40.253 -14.665  -1.859  1.00  0.00    -0.323 OA
HETATM   33  C   UNK A   0      40.762 -15.684  -2.721  1.00  0.00     0.213 C 
ENDBRANCH  30  32
ENDBRANCH  26  30
ENDBRANCH  23  24
ENDBRANCH  22  23
ENDBRANCH   1  22
TORSDOF 10
ENDMDL
MODEL 8
REMARK VINA RESULT:      -7.5      2.974      5.062
REMARK  10 active torsions:
REMARK  status: ('A' for Active; 'I' for Inactive)
REMARK    1  A    between atoms: O_2  and  C_3 
REMARK    2  A    between atoms: C_3  and  C_4 
REMARK    3  A    between atoms: C_6  and  C_7 
REMARK    4  A    between atoms: C_7  and  C_8 
REMARK    5  A    between atoms: C_8  and  N_9 
REMARK       I    between atoms: N_9  and  C_10 
REMARK       I    between atoms: C_10  and  N_17 
REMARK    6  A    between atoms: N_17  and  CA_18 
REMARK    7  A    between atoms: CA_18  and  C_19 
REMARK    8  A    between atoms: CA_18  and  CB_21 
REMARK    9  A    between atoms: C_19  and  O_20 
REMARK   10  A    between atoms: CB_21  and  CG_22 
ROOT
HETATM    1  N   UNK A   0      40.663 -16.560   0.946  1.00  0.00    -0.343 N 
HETATM    2  C   UNK A   0      41.800 -16.531   0.205  1.00  0.00     0.316 C 
HETATM    3  O   UNK A   0      42.812 -17.163   0.488  1.00  0.00    -0.248 OA
HETATM    4  H   UNK A   0      39.810 -16.230   0.528  1.00  0.00     0.164 HD
ATOM      5  N   TRP A   1      41.793 -15.719  -0.878  1.00  0.00    -0.336 N 
ATOM      6  H   TRP A   1      42.655 -15.778  -1.412  1.00  0.00     0.164 HD
ENDROOT
BRANCH   5   7
ATOM      7  CA  TRP A   1      40.723 -14.891  -1.449  1.00  0.00     0.114 C 
BRANCH   7   8
ATOM      8  C   TRP A   1      40.762 -15.006  -2.990  1.00  0.00     0.189 C 
BRANCH   8   9
ATOM      9  O   TRP A   1      42.107 -15.124  -3.458  1.00  0.00    -0.399 OA
ATOM     10  H   TRP A   1      42.277 -14.379  -4.060  1.00  0.00     0.209 HD
ENDBRANCH   8   9
ENDBRANCH   7   8
BRANCH   7  11
ATOM     11  CB  TRP A   1      40.818 -13.414  -1.011  1.00  0.00     0.068 C 
BRANCH  11  12
ATOM     12  CG  TRP A   1      40.231 -13.172   0.348  1.00  0.00    -0.028 A 
ATOM     13  CD2 TRP A   1      40.933 -13.142   1.595  1.00  0.00    -0.002 A 
ATOM     14  CE2 TRP A   1      40.000 -12.863   2.595  1.00  0.00     0.042 A 
ATOM     15  CE3 TRP A   1      42.281 -13.323   1.971  1.00  0.00     0.014 A 
ATOM     16  CZ2 TRP A   1      40.345 -12.749   3.947  1.00  0.00     0.030 A 
ATOM     17  NE1 TRP A   1      38.775 -12.745   1.984  1.00  0.00    -0.365 N 
ATOM     18  CH2 TRP A   1      41.688 -12.931   4.290  1.00  0.00     0.002 A 
ATOM     19  CZ3 TRP A   1      42.643 -13.216   3.319  1.00  0.00     0.001 A 
ATOM     20  HE1 TRP A   1      37.910 -12.551   2.471  1.00  0.00     0.165 HD
ATOM     21  CD1 TRP A   1      38.899 -12.933   0.633  1.00  0.00     0.096 A 
ENDBRANCH  11  12
ENDBRANCH   7  11
ENDBRANCH   5   7
BRANCH   1  22
HETATM   22  C   UNK A   0      40.555 -17.327   2.173  1.00  0.00     0.129 C 
BRANCH  22  23
HETATM   23  C   UNK A   0      40.998 -16.571   3.435  1.00  0.00     0.058 C 
BRANCH  23  24
HETATM   24  C   UNK A   0      42.196 -17.191   4.117  1.00  0.00    -0.056 A 
HETATM   25  C   UNK A   0      42.745 -18.385   3.619  1.00  0.00     0.024 A 
HETATM   26  C   UNK A   0      43.873 -18.960   4.220  1.00  0.00     0.040 A 
HETATM   27  C   UNK A   0      44.445 -18.340   5.337  1.00  0.00     0.017 A 
HETATM   28  C   UNK A   0      43.903 -17.156   5.839  1.00  0.00     0.002 A 
HETATM   29  C   UNK A   0      42.786 -16.582   5.230  1.00  0.00     0.007 A 
BRANCH  26  30
HETATM   30  C   UNK A   0      44.492 -20.215   3.714  1.00  0.00     0.292 C 
HETATM   31  O   UNK A   0      44.276 -20.674   2.603  1.00  0.00    -0.259 OA
BRANCH  30  32
HETATM   32  O   UNK A   0      45.305 -20.762   4.652  1.00  0.00    -0.323 OA
HETATM   33  C   UNK A   0      44.912 -22.069   5.073  1.00  0.00     0.213 C 
ENDBRANCH  30  32
ENDBRANCH  26  30
ENDBRANCH  23  24
ENDBRANCH  22  23
ENDBRANCH   1  22
TORSDOF 10
ENDMDL
MODEL 9
REMARK VINA RESULT:      -7.5      3.206      6.552
REMARK  10 active torsions:
REMARK  status: ('A' for Active; 'I' for Inactive)
REMARK    1  A    between atoms: O_2  and  C_3 
REMARK    2  A    between atoms: C_3  and  C_4 
REMARK    3  A    between atoms: C_6  and  C_7 
REMARK    4  A    between atoms: C_7  and  C_8 
REMARK    5  A    between atoms: C_8  and  N_9 
REMARK       I    between atoms: N_9  and  C_10 
REMARK       I    between atoms: C_10  and  N_17 
REMARK    6  A    between atoms: N_17  and  CA_18 
REMARK    7  A    between atoms: CA_18  and  C_19 
REMARK    8  A    between atoms: CA_18  and  CB_21 
REMARK    9  A    between atoms: C_19  and  O_20 
REMARK   10  A    between atoms: CB_21  and  CG_22 
ROOT
HETATM    1  N   UNK A   0      42.845 -14.502   6.117  1.00  0.00    -0.343 N 
HETATM    2  C   UNK A   0      44.059 -14.541   6.725  1.00  0.00     0.316 C 
HETATM    3  O   UNK A   0      44.723 -13.542   6.981  1.00  0.00    -0.248 OA
HETATM    4  H   UNK A   0      42.257 -15.316   6.170  1.00  0.00     0.164 HD
ATOM      5  N   TRP A   1      44.549 -15.769   7.015  1.00  0.00    -0.336 N 
ATOM      6  H   TRP A   1      45.436 -15.725   7.507  1.00  0.00     0.164 HD
ENDROOT
BRANCH   5   7
ATOM      7  CA  TRP A   1      43.956 -17.102   6.847  1.00  0.00     0.114 C 
BRANCH   7   8
ATOM      8  C   TRP A   1      43.234 -17.503   8.153  1.00  0.00     0.189 C 
BRANCH   8   9
ATOM      9  O   TRP A   1      43.947 -18.539   8.832  1.00  0.00    -0.399 OA
ATOM     10  H   TRP A   1      43.560 -18.631   9.719  1.00  0.00     0.209 HD
ENDBRANCH   8   9
ENDBRANCH   7   8
BRANCH   7  11
ATOM     11  CB  TRP A   1      45.000 -18.168   6.452  1.00  0.00     0.068 C 
BRANCH  11  12
ATOM     12  CG  TRP A   1      44.655 -18.875   5.175  1.00  0.00    -0.028 A 
ATOM     13  CD2 TRP A   1      44.122 -18.287   3.984  1.00  0.00    -0.002 A 
ATOM     14  CE2 TRP A   1      43.977 -19.305   3.041  1.00  0.00     0.042 A 
ATOM     15  CE3 TRP A   1      43.750 -16.976   3.614  1.00  0.00     0.014 A 
ATOM     16  CZ2 TRP A   1      43.488 -19.082   1.749  1.00  0.00     0.030 A 
ATOM     17  NE1 TRP A   1      44.389 -20.472   3.640  1.00  0.00    -0.365 N 
ATOM     18  CH2 TRP A   1      43.128 -17.775   1.409  1.00  0.00     0.002 A 
ATOM     19  CZ3 TRP A   1      43.255 -16.736   2.327  1.00  0.00     0.001 A 
ATOM     20  HE1 TRP A   1      44.384 -21.377   3.189  1.00  0.00     0.165 HD
ATOM     21  CD1 TRP A   1      44.795 -20.227   4.924  1.00  0.00     0.096 A 
ENDBRANCH  11  12
ENDBRANCH   7  11
ENDBRANCH   5   7
BRANCH   1  22
HETATM   22  C   UNK A   0      42.234 -13.259   5.683  1.00  0.00     0.129 C 
BRANCH  22  23
HETATM   23  C   UNK A   0      40.785 -13.402   5.193  1.00  0.00     0.058 C 
BRANCH  23  24
HETATM   24  C   UNK A   0      40.681 -13.852   3.753  1.00  0.00    -0.056 A 
HETATM   25  C   UNK A   0      41.342 -13.132   2.745  1.00  0.00     0.024 A 
HETATM   26  C   UNK A   0      41.281 -13.550   1.408  1.00  0.00     0.040 A 
HETATM   27  C   UNK A   0      40.539 -14.691   1.081  1.00  0.00     0.017 A 
HETATM   28  C   UNK A   0      39.877 -15.410   2.077  1.00  0.00     0.002 A 
HETATM   29  C   UNK A   0      39.950 -14.995   3.408  1.00  0.00     0.007 A 
BRANCH  26  30
HETATM   30  C   UNK A   0      41.979 -12.823   0.314  1.00  0.00     0.292 C 
HETATM   31  O   UNK A   0      42.612 -11.792   0.484  1.00  0.00    -0.259 OA
BRANCH  30  32
HETATM   32  O   UNK A   0      41.803 -13.457  -0.873  1.00  0.00    -0.323 OA
HETATM   33  C   UNK A   0      42.444 -12.818  -1.977  1.00  0.00     0.213 C 
ENDBRANCH  30  32
ENDBRANCH  26  30
ENDBRANCH  23  24
ENDBRANCH  22  23
ENDBRANCH   1  22
TORSDOF 10
ENDMDL
MODEL 10
REMARK VINA RESULT:      -7.5      2.883      6.440
REMARK  10 active torsions:
REMARK  status: ('A' for Active; 'I' for Inactive)
REMARK    1  A    between atoms: O_2  and  C_3 
REMARK    2  A    between atoms: C_3  and  C_4 
REMARK    3  A    between atoms: C_6  and  C_7 
REMARK    4  A    between atoms: C_7  and  C_8 
REMARK    5  A    between atoms: C_8  and  N_9 
REMARK       I    between atoms: N_9  and  C_10 
REMARK       I    between atoms: C_10  and  N_17 
REMARK    6  A    between atoms: N_17  and  CA_18 
REMARK    7  A    between atoms: CA_18  and  C_19 
REMARK    8  A    between atoms: CA_18  and  CB_21 
REMARK    9  A    between atoms: C_19  and  O_20 
REMARK   10  A    between atoms: CB_21  and  CG_22 
ROOT
HETATM    1  N   UNK A   0      42.559 -14.623   6.312  1.00  0.00    -0.343 N 
HETATM    2  C   UNK A   0      43.875 -14.865   6.540  1.00  0.00     0.316 C 
HETATM    3  O   UNK A   0      44.754 -14.019   6.410  1.00  0.00    -0.248 OA
HETATM    4  H   UNK A   0      41.882 -15.270   6.677  1.00  0.00     0.164 HD
ATOM      5  N   TRP A   1      44.203 -16.129   6.894  1.00  0.00    -0.336 N 
ATOM      6  H   TRP A   1      45.194 -16.231   7.092  1.00  0.00     0.164 HD
ENDROOT
BRANCH   5   7
ATOM      7  CA  TRP A   1      43.359 -17.304   7.146  1.00  0.00     0.114 C 
BRANCH   7   8
ATOM      8  C   TRP A   1      43.858 -18.022   8.421  1.00  0.00     0.189 C 
BRANCH   8   9
ATOM      9  O   TRP A   1      43.807 -19.441   8.260  1.00  0.00    -0.399 OA
ATOM     10  H   TRP A   1      44.050 -19.643   7.340  1.00  0.00     0.209 HD
ENDBRANCH   8   9
ENDBRANCH   7   8
BRANCH   7  11
ATOM     11  CB  TRP A   1      43.327 -18.279   5.950  1.00  0.00     0.068 C 
BRANCH  11  12
ATOM     12  CG  TRP A   1      42.397 -17.832   4.861  1.00  0.00    -0.028 A 
ATOM     13  CD2 TRP A   1      42.720 -17.638   3.480  1.00  0.00    -0.002 A 
ATOM     14  CE2 TRP A   1      41.552 -17.244   2.827  1.00  0.00     0.042 A 
ATOM     15  CE3 TRP A   1      43.901 -17.764   2.718  1.00  0.00     0.014 A 
ATOM     16  CZ2 TRP A   1      41.501 -16.976   1.454  1.00  0.00     0.030 A 
ATOM     17  NE1 TRP A   1      40.559 -17.182   3.776  1.00  0.00    -0.365 N 
ATOM     18  CH2 TRP A   1      42.685 -17.111   0.724  1.00  0.00     0.002 A 
ATOM     19  CZ3 TRP A   1      43.869 -17.497   1.345  1.00  0.00     0.001 A 
ATOM     20  HE1 TRP A   1      39.603 -16.914   3.585  1.00  0.00     0.165 HD
ATOM     21  CD1 TRP A   1      41.055 -17.530   5.003  1.00  0.00     0.096 A 
ENDBRANCH  11  12
ENDBRANCH   7  11
ENDBRANCH   5   7
BRANCH   1  22
HETATM   22  C   UNK A   0      42.074 -13.333   5.855  1.00  0.00     0.129 C 
BRANCH  22  23
HETATM   23  C   UNK A   0      40.730 -13.387   5.113  1.00  0.00     0.058 C 
BRANCH  23  24
HETATM   24  C   UNK A   0      40.877 -13.457   3.610  1.00  0.00    -0.056 A 
HETATM   25  C   UNK A   0      39.758 -13.744   2.810  1.00  0.00     0.024 A 
HETATM   26  C   UNK A   0      39.868 -13.785   1.413  1.00  0.00     0.040 A 
HETATM   27  C   UNK A   0      41.112 -13.548   0.817  1.00  0.00     0.017 A 
HETATM   28  C   UNK A   0      42.229 -13.266   1.605  1.00  0.00     0.002 A 
HETATM   29  C   UNK A   0      42.111 -13.216   2.996  1.00  0.00     0.007 A 
BRANCH  26  30
HETATM   30  C   UNK A   0      38.704 -14.071   0.531  1.00  0.00     0.292 C 
HETATM   31  O   UNK A   0      37.572 -14.261   0.947  1.00  0.00    -0.259 OA
BRANCH  30  32
HETATM   32  O   UNK A   0      39.084 -14.098  -0.771  1.00  0.00    -0.323 OA
HETATM   33  C   UNK A   0      38.021 -13.859  -1.694  1.00  0.00     0.213 C 
ENDBRANCH  30  32
ENDBRANCH  26  30
ENDBRANCH  23  24
ENDBRANCH  22  23
ENDBRANCH   1  22
TORSDOF 10
ENDMDL
