MODEL 1
REMARK VINA RESULT:      -9.9      0.000      0.000
REMARK  5 active torsions:
REMARK  status: ('A' for Active; 'I' for Inactive)
REMARK    1  A    between atoms: C_2  and  C_3 
REMARK    2  A    between atoms: C_6  and  C_7 
REMARK    3  A    between atoms: C_11  and  C_12 
REMARK       I    between atoms: C_12  and  N_13 
REMARK    4  A    between atoms: N_13  and  N_14 
REMARK    5  A    between atoms: C_15  and  C_16 
ROOT
HETATM    1  C   UNL     1      44.692 -13.476   7.961  1.00  0.00     0.289 C 
HETATM    2  N   UNL     1      43.931 -14.612   7.716  1.00  0.00    -0.242 N 
HETATM    3  O   UNL     1      45.773 -13.227   7.434  1.00  0.00    -0.264 OA
HETATM    4  H   UNL     1      42.972 -14.626   8.043  1.00  0.00     0.192 HD
ENDROOT
BRANCH   1   5
HETATM    5  C   UNL     1      44.108 -12.558   8.909  1.00  0.00     0.121 A 
HETATM    6  N   UNL     1      43.391 -11.471   8.492  1.00  0.00    -0.272 N 
HETATM    7  N   UNL     1      42.938 -10.695   9.485  1.00  0.00    -0.174 NA
HETATM    8  H   UNL     1      43.189 -11.209   7.531  1.00  0.00     0.189 HD
HETATM    9  C   UNL     1      43.357 -11.298  10.608  1.00  0.00     0.089 A 
HETATM   10  C   UNL     1      44.097 -12.473  10.287  1.00  0.00     0.071 A 
BRANCH   9  11
HETATM   11  C   UNL     1      43.059 -10.747  11.934  1.00  0.00    -0.006 A 
HETATM   12  C   UNL     1      43.841  -9.724  12.487  1.00  0.00     0.014 A 
HETATM   13  C   UNL     1      43.543  -9.204  13.753  1.00  0.00     0.008 A 
HETATM   14  C   UNL     1      42.462  -9.698  14.490  1.00  0.00    -0.059 A 
HETATM   15  C   UNL     1      41.676 -10.715  13.939  1.00  0.00     0.008 A 
HETATM   16  C   UNL     1      41.975 -11.237  12.677  1.00  0.00     0.014 A 
BRANCH  14  17
HETATM   17  C   UNL     1      42.134  -9.128  15.847  1.00  0.00     0.034 C 
HETATM   18  C   UNL     1      40.819  -8.361  15.835  1.00  0.00     0.010 C 
ENDBRANCH  14  17
ENDBRANCH   9  11
ENDBRANCH   1   5
BRANCH   2  19
HETATM   19  N   UNL     1      44.210 -15.626   6.832  1.00  0.00    -0.183 NA
HETATM   20  C   UNL     1      43.246 -16.369   6.389  1.00  0.00     0.153 C 
BRANCH  20  21
HETATM   21  C   UNL     1      43.534 -17.458   5.467  1.00  0.00     0.018 A 
HETATM   22  C   UNL     1      43.585 -17.349   4.035  1.00  0.00     0.004 A 
HETATM   23  C   UNL     1      43.907 -18.606   3.529  1.00  0.00     0.043 A 
HETATM   24  C   UNL     1      43.388 -16.291   3.120  1.00  0.00     0.014 A 
HETATM   25  C   UNL     1      44.051 -18.862   2.160  1.00  0.00     0.030 A 
HETATM   26  N   UNL     1      44.037 -19.451   4.604  1.00  0.00    -0.358 N 
HETATM   27  C   UNL     1      43.853 -17.798   1.277  1.00  0.00     0.002 A 
HETATM   28  C   UNL     1      43.525 -16.530   1.747  1.00  0.00     0.001 A 
HETATM   29  H   UNL     1      44.267 -20.433   4.529  1.00  0.00     0.166 HD
HETATM   30  C   UNL     1      43.815 -18.782   5.781  1.00  0.00     0.018 A 
HETATM   31  C   UNL     1      43.899 -19.485   7.089  1.00  0.00     0.069 C 
ENDBRANCH  20  21
ENDBRANCH   2  19
TORSDOF 5
ENDMDL
MODEL 2
REMARK VINA RESULT:      -9.3      1.428      2.391
REMARK  5 active torsions:
REMARK  status: ('A' for Active; 'I' for Inactive)
REMARK    1  A    between atoms: C_2  and  C_3 
REMARK    2  A    between atoms: C_6  and  C_7 
REMARK    3  A    between atoms: C_11  and  C_12 
REMARK       I    between atoms: C_12  and  N_13 
REMARK    4  A    between atoms: N_13  and  N_14 
REMARK    5  A    between atoms: C_15  and  C_16 
ROOT
HETATM    1  C   UNL     1      44.982 -13.304   7.658  1.00  0.00     0.289 C 
HETATM    2  N   UNL     1      43.992 -14.237   7.376  1.00  0.00    -0.242 N 
HETATM    3  O   UNL     1      45.953 -13.072   6.944  1.00  0.00    -0.264 OA
HETATM    4  H   UNL     1      43.138 -14.209   7.920  1.00  0.00     0.192 HD
ENDROOT
BRANCH   1   5
HETATM    5  C   UNL     1      44.788 -12.582   8.892  1.00  0.00     0.121 A 
HETATM    6  N   UNL     1      45.849 -12.087   9.597  1.00  0.00    -0.272 N 
HETATM    7  N   UNL     1      45.514 -11.469  10.737  1.00  0.00    -0.174 NA
HETATM    8  H   UNL     1      46.832 -12.155   9.345  1.00  0.00     0.189 HD
HETATM    9  C   UNL     1      44.175 -11.541  10.784  1.00  0.00     0.089 A 
HETATM   10  C   UNL     1      43.681 -12.235   9.642  1.00  0.00     0.071 A 
BRANCH   9  11
HETATM   11  C   UNL     1      43.412 -10.970  11.899  1.00  0.00    -0.006 A 
HETATM   12  C   UNL     1      42.156 -11.479  12.255  1.00  0.00     0.014 A 
HETATM   13  C   UNL     1      41.440 -10.928  13.324  1.00  0.00     0.008 A 
HETATM   14  C   UNL     1      41.963  -9.856  14.055  1.00  0.00    -0.059 A 
HETATM   15  C   UNL     1      43.219  -9.348  13.706  1.00  0.00     0.008 A 
HETATM   16  C   UNL     1      43.932  -9.897  12.636  1.00  0.00     0.014 A 
BRANCH  14  17
HETATM   17  C   UNL     1      41.198  -9.271  15.215  1.00  0.00     0.034 C 
HETATM   18  C   UNL     1      42.123  -8.853  16.350  1.00  0.00     0.010 C 
ENDBRANCH  14  17
ENDBRANCH   9  11
ENDBRANCH   1   5
BRANCH   2  19
HETATM   19  N   UNL     1      43.889 -15.027   6.257  1.00  0.00    -0.183 NA
HETATM   20  C   UNL     1      42.836 -15.763   6.090  1.00  0.00     0.153 C 
BRANCH  20  21
HETATM   21  C   UNL     1      42.725 -16.618   4.917  1.00  0.00     0.018 A 
HETATM   22  C   UNL     1      43.473 -17.824   4.689  1.00  0.00     0.004 A 
HETATM   23  C   UNL     1      43.059 -18.349   3.467  1.00  0.00     0.043 A 
HETATM   24  C   UNL     1      44.466 -18.519   5.413  1.00  0.00     0.014 A 
HETATM   25  C   UNL     1      43.578 -19.535   2.933  1.00  0.00     0.030 A 
HETATM   26  N   UNL     1      42.107 -17.497   2.964  1.00  0.00    -0.358 N 
HETATM   27  C   UNL     1      44.557 -20.204   3.671  1.00  0.00     0.002 A 
HETATM   28  C   UNL     1      44.999 -19.705   4.893  1.00  0.00     0.001 A 
HETATM   29  H   UNL     1      41.633 -17.634   2.081  1.00  0.00     0.166 HD
HETATM   30  C   UNL     1      41.891 -16.446   3.820  1.00  0.00     0.018 A 
HETATM   31  C   UNL     1      40.900 -15.385   3.495  1.00  0.00     0.069 C 
ENDBRANCH  20  21
ENDBRANCH   2  19
TORSDOF 5
ENDMDL
MODEL 3
REMARK VINA RESULT:      -9.2      2.069     11.119
REMARK  5 active torsions:
REMARK  status: ('A' for Active; 'I' for Inactive)
REMARK    1  A    between atoms: C_2  and  C_3 
REMARK    2  A    between atoms: C_6  and  C_7 
REMARK    3  A    between atoms: C_11  and  C_12 
REMARK       I    between atoms: C_12  and  N_13 
REMARK    4  A    between atoms: N_13  and  N_14 
REMARK    5  A    between atoms: C_15  and  C_16 
ROOT
HETATM    1  C   UNL     1      44.170 -13.188   7.782  1.00  0.00     0.289 C 
HETATM    2  N   UNL     1      43.218 -12.178   7.731  1.00  0.00    -0.242 N 
HETATM    3  O   UNL     1      45.092 -13.244   8.591  1.00  0.00    -0.264 OA
HETATM    4  H   UNL     1      42.391 -12.326   7.165  1.00  0.00     0.192 HD
ENDROOT
BRANCH   1   5
HETATM    5  C   UNL     1      43.998 -14.222   6.790  1.00  0.00     0.121 A 
HETATM    6  N   UNL     1      43.246 -14.009   5.669  1.00  0.00    -0.272 N 
HETATM    7  N   UNL     1      43.153 -15.070   4.857  1.00  0.00    -0.174 NA
HETATM    8  H   UNL     1      42.763 -13.151   5.414  1.00  0.00     0.189 HD
HETATM    9  C   UNL     1      43.887 -16.022   5.454  1.00  0.00     0.089 A 
HETATM   10  C   UNL     1      44.433 -15.527   6.673  1.00  0.00     0.071 A 
BRANCH   9  11
HETATM   11  C   UNL     1      44.037 -17.358   4.868  1.00  0.00    -0.006 A 
HETATM   12  C   UNL     1      43.577 -17.640   3.574  1.00  0.00     0.014 A 
HETATM   13  C   UNL     1      43.731 -18.919   3.026  1.00  0.00     0.008 A 
HETATM   14  C   UNL     1      44.344 -19.940   3.759  1.00  0.00    -0.059 A 
HETATM   15  C   UNL     1      44.809 -19.662   5.049  1.00  0.00     0.008 A 
HETATM   16  C   UNL     1      44.652 -18.385   5.598  1.00  0.00     0.014 A 
BRANCH  14  17
HETATM   17  C   UNL     1      44.522 -21.313   3.163  1.00  0.00     0.034 C 
HETATM   18  C   UNL     1      43.770 -21.461   1.849  1.00  0.00     0.010 C 
ENDBRANCH  14  17
ENDBRANCH   9  11
ENDBRANCH   1   5
BRANCH   2  19
HETATM   19  N   UNL     1      43.102 -11.100   8.575  1.00  0.00    -0.183 NA
HETATM   20  C   UNL     1      41.928 -10.722   8.972  1.00  0.00     0.153 C 
BRANCH  20  21
HETATM   21  C   UNL     1      41.794  -9.571   9.851  1.00  0.00     0.018 A 
HETATM   22  C   UNL     1      42.310  -9.476  11.188  1.00  0.00     0.004 A 
HETATM   23  C   UNL     1      41.985  -8.211  11.675  1.00  0.00     0.043 A 
HETATM   24  C   UNL     1      43.027 -10.352  12.032  1.00  0.00     0.014 A 
HETATM   25  C   UNL     1      42.344  -7.773  12.955  1.00  0.00     0.030 A 
HETATM   26  N   UNL     1      41.291  -7.563  10.683  1.00  0.00    -0.358 N 
HETATM   27  C   UNL     1      43.056  -8.658  13.768  1.00  0.00     0.002 A 
HETATM   28  C   UNL     1      43.393  -9.931  13.317  1.00  0.00     0.001 A 
HETATM   29  H   UNL     1      40.928  -6.623  10.765  1.00  0.00     0.166 HD
HETATM   30  C   UNL     1      41.162  -8.364   9.575  1.00  0.00     0.018 A 
HETATM   31  C   UNL     1      40.447  -7.884   8.363  1.00  0.00     0.069 C 
ENDBRANCH  20  21
ENDBRANCH   2  19
TORSDOF 5
ENDMDL
MODEL 4
REMARK VINA RESULT:      -9.0      2.801     11.202
REMARK  5 active torsions:
REMARK  status: ('A' for Active; 'I' for Inactive)
REMARK    1  A    between atoms: C_2  and  C_3 
REMARK    2  A    between atoms: C_6  and  C_7 
REMARK    3  A    between atoms: C_11  and  C_12 
REMARK       I    between atoms: C_12  and  N_13 
REMARK    4  A    between atoms: N_13  and  N_14 
REMARK    5  A    between atoms: C_15  and  C_16 
ROOT
HETATM    1  C   UNL     1      41.758 -12.028   5.321  1.00  0.00     0.289 C 
HETATM    2  N   UNL     1      41.816 -12.200   6.699  1.00  0.00    -0.242 N 
HETATM    3  O   UNL     1      41.296 -11.041   4.756  1.00  0.00    -0.264 OA
HETATM    4  H   UNL     1      42.392 -12.949   7.065  1.00  0.00     0.192 HD
ENDROOT
BRANCH   1   5
HETATM    5  C   UNL     1      42.305 -13.124   4.559  1.00  0.00     0.121 A 
HETATM    6  N   UNL     1      42.815 -12.930   3.306  1.00  0.00    -0.272 N 
HETATM    7  N   UNL     1      43.258 -14.045   2.711  1.00  0.00    -0.174 NA
HETATM    8  H   UNL     1      42.875 -12.048   2.804  1.00  0.00     0.189 HD
HETATM    9  C   UNL     1      43.049 -15.018   3.611  1.00  0.00     0.089 A 
HETATM   10  C   UNL     1      42.450 -14.478   4.786  1.00  0.00     0.071 A 
BRANCH   9  11
HETATM   11  C   UNL     1      43.406 -16.413   3.333  1.00  0.00    -0.006 A 
HETATM   12  C   UNL     1      43.699 -16.842   2.032  1.00  0.00     0.014 A 
HETATM   13  C   UNL     1      44.043 -18.176   1.781  1.00  0.00     0.008 A 
HETATM   14  C   UNL     1      44.097 -19.106   2.824  1.00  0.00    -0.059 A 
HETATM   15  C   UNL     1      43.810 -18.681   4.126  1.00  0.00     0.008 A 
HETATM   16  C   UNL     1      43.464 -17.350   4.375  1.00  0.00     0.014 A 
BRANCH  14  17
HETATM   17  C   UNL     1      44.480 -20.539   2.556  1.00  0.00     0.034 C 
HETATM   18  C   UNL     1      43.395 -21.281   1.788  1.00  0.00     0.010 C 
ENDBRANCH  14  17
ENDBRANCH   9  11
ENDBRANCH   1   5
BRANCH   2  19
HETATM   19  N   UNL     1      41.420 -11.308   7.666  1.00  0.00    -0.183 NA
HETATM   20  C   UNL     1      42.306 -10.572   8.257  1.00  0.00     0.153 C 
BRANCH  20  21
HETATM   21  C   UNL     1      41.899  -9.638   9.296  1.00  0.00     0.018 A 
HETATM   22  C   UNL     1      42.401  -9.615  10.642  1.00  0.00     0.004 A 
HETATM   23  C   UNL     1      41.773  -8.563  11.307  1.00  0.00     0.043 A 
HETATM   24  C   UNL     1      43.337 -10.393  11.358  1.00  0.00     0.014 A 
HETATM   25  C   UNL     1      42.035  -8.244  12.645  1.00  0.00     0.030 A 
HETATM   26  N   UNL     1      40.917  -7.974  10.410  1.00  0.00    -0.358 N 
HETATM   27  C   UNL     1      42.966  -9.028  13.329  1.00  0.00     0.002 A 
HETATM   28  C   UNL     1      43.608 -10.090  12.698  1.00  0.00     0.001 A 
HETATM   29  H   UNL     1      40.327  -7.181  10.625  1.00  0.00     0.166 HD
HETATM   30  C   UNL     1      40.974  -8.606   9.192  1.00  0.00     0.018 A 
HETATM   31  C   UNL     1      40.135  -8.150   8.053  1.00  0.00     0.069 C 
ENDBRANCH  20  21
ENDBRANCH   2  19
TORSDOF 5
ENDMDL
MODEL 5
REMARK VINA RESULT:      -9.0      7.208     11.514
REMARK  5 active torsions:
REMARK  status: ('A' for Active; 'I' for Inactive)
REMARK    1  A    between atoms: C_2  and  C_3 
REMARK    2  A    between atoms: C_6  and  C_7 
REMARK    3  A    between atoms: C_11  and  C_12 
REMARK       I    between atoms: C_12  and  N_13 
REMARK    4  A    between atoms: N_13  and  N_14 
REMARK    5  A    between atoms: C_15  and  C_16 
ROOT
HETATM    1  C   UNL     1      41.464 -15.823   0.497  1.00  0.00     0.289 C 
HETATM    2  N   UNL     1      42.530 -16.708   0.596  1.00  0.00    -0.242 N 
HETATM    3  O   UNL     1      40.523 -15.766   1.283  1.00  0.00    -0.264 OA
HETATM    4  H   UNL     1      43.346 -16.542   0.019  1.00  0.00     0.192 HD
ENDROOT
BRANCH   1   5
HETATM    5  C   UNL     1      41.534 -14.927  -0.632  1.00  0.00     0.121 A 
HETATM    6  N   UNL     1      41.346 -15.378  -1.908  1.00  0.00    -0.272 N 
HETATM    7  N   UNL     1      41.472 -14.436  -2.851  1.00  0.00    -0.174 NA
HETATM    8  H   UNL     1      41.136 -16.332  -2.191  1.00  0.00     0.189 HD
HETATM    9  C   UNL     1      41.740 -13.308  -2.174  1.00  0.00     0.089 A 
HETATM   10  C   UNL     1      41.788 -13.577  -0.775  1.00  0.00     0.071 A 
BRANCH   9  11
HETATM   11  C   UNL     1      41.951 -12.030  -2.861  1.00  0.00    -0.006 A 
HETATM   12  C   UNL     1      42.532 -10.938  -2.200  1.00  0.00     0.014 A 
HETATM   13  C   UNL     1      42.732  -9.725  -2.869  1.00  0.00     0.008 A 
HETATM   14  C   UNL     1      42.355  -9.578  -4.208  1.00  0.00    -0.059 A 
HETATM   15  C   UNL     1      41.780 -10.667  -4.873  1.00  0.00     0.008 A 
HETATM   16  C   UNL     1      41.577 -11.877  -4.203  1.00  0.00     0.014 A 
BRANCH  14  17
HETATM   17  C   UNL     1      42.583  -8.275  -4.932  1.00  0.00     0.034 C 
HETATM   18  C   UNL     1      42.981  -8.497  -6.384  1.00  0.00     0.010 C 
ENDBRANCH  14  17
ENDBRANCH   9  11
ENDBRANCH   1   5
BRANCH   2  19
HETATM   19  N   UNL     1      42.753 -17.634   1.586  1.00  0.00    -0.183 NA
HETATM   20  C   UNL     1      43.744 -17.469   2.403  1.00  0.00     0.153 C 
BRANCH  20  21
HETATM   21  C   UNL     1      44.001 -18.454   3.443  1.00  0.00     0.018 A 
HETATM   22  C   UNL     1      44.202 -19.860   3.231  1.00  0.00     0.004 A 
HETATM   23  C   UNL     1      44.434 -20.443   4.474  1.00  0.00     0.043 A 
HETATM   24  C   UNL     1      44.208 -20.693   2.091  1.00  0.00     0.014 A 
HETATM   25  C   UNL     1      44.680 -21.812   4.639  1.00  0.00     0.030 A 
HETATM   26  N   UNL     1      44.369 -19.440   5.409  1.00  0.00    -0.358 N 
HETATM   27  C   UNL     1      44.683 -22.613   3.495  1.00  0.00     0.002 A 
HETATM   28  C   UNL     1      44.449 -22.065   2.237  1.00  0.00     0.001 A 
HETATM   29  H   UNL     1      44.499 -19.580   6.402  1.00  0.00     0.166 HD
HETATM   30  C   UNL     1      44.108 -18.232   4.811  1.00  0.00     0.018 A 
HETATM   31  C   UNL     1      43.990 -16.988   5.617  1.00  0.00     0.069 C 
ENDBRANCH  20  21
ENDBRANCH   2  19
TORSDOF 5
ENDMDL
MODEL 6
REMARK VINA RESULT:      -8.7      7.054     12.352
REMARK  5 active torsions:
REMARK  status: ('A' for Active; 'I' for Inactive)
REMARK    1  A    between atoms: C_2  and  C_3 
REMARK    2  A    between atoms: C_6  and  C_7 
REMARK    3  A    between atoms: C_11  and  C_12 
REMARK       I    between atoms: C_12  and  N_13 
REMARK    4  A    between atoms: N_13  and  N_14 
REMARK    5  A    between atoms: C_15  and  C_16 
ROOT
HETATM    1  C   UNL     1      41.729 -15.296  -0.000  1.00  0.00     0.289 C 
HETATM    2  N   UNL     1      42.083 -16.632   0.135  1.00  0.00    -0.242 N 
HETATM    3  O   UNL     1      42.077 -14.396   0.759  1.00  0.00    -0.264 OA
HETATM    4  H   UNL     1      41.915 -17.254  -0.647  1.00  0.00     0.192 HD
ENDROOT
BRANCH   1   5
HETATM    5  C   UNL     1      40.897 -15.011  -1.144  1.00  0.00     0.121 A 
HETATM    6  N   UNL     1      41.285 -15.361  -2.407  1.00  0.00    -0.272 N 
HETATM    7  N   UNL     1      40.424 -15.004  -3.368  1.00  0.00    -0.174 NA
HETATM    8  H   UNL     1      42.142 -15.841  -2.668  1.00  0.00     0.189 HD
HETATM    9  C   UNL     1      39.414 -14.406  -2.717  1.00  0.00     0.089 A 
HETATM   10  C   UNL     1      39.675 -14.390  -1.316  1.00  0.00     0.071 A 
BRANCH   9  11
HETATM   11  C   UNL     1      38.252 -13.864  -3.429  1.00  0.00    -0.006 A 
HETATM   12  C   UNL     1      38.087 -12.483  -3.603  1.00  0.00     0.014 A 
HETATM   13  C   UNL     1      36.975 -11.979  -4.289  1.00  0.00     0.008 A 
HETATM   14  C   UNL     1      36.008 -12.843  -4.812  1.00  0.00    -0.059 A 
HETATM   15  C   UNL     1      36.172 -14.223  -4.646  1.00  0.00     0.008 A 
HETATM   16  C   UNL     1      37.280 -14.725  -3.958  1.00  0.00     0.014 A 
BRANCH  14  17
HETATM   17  C   UNL     1      34.819 -12.301  -5.563  1.00  0.00     0.034 C 
HETATM   18  C   UNL     1      33.531 -12.446  -4.764  1.00  0.00     0.010 C 
ENDBRANCH  14  17
ENDBRANCH   9  11
ENDBRANCH   1   5
BRANCH   2  19
HETATM   19  N   UNL     1      42.901 -17.183   1.092  1.00  0.00    -0.183 NA
HETATM   20  C   UNL     1      42.480 -18.191   1.789  1.00  0.00     0.153 C 
BRANCH  20  21
HETATM   21  C   UNL     1      43.331 -18.770   2.817  1.00  0.00     0.018 A 
HETATM   22  C   UNL     1      43.683 -18.142   4.061  1.00  0.00     0.004 A 
HETATM   23  C   UNL     1      44.493 -19.031   4.765  1.00  0.00     0.043 A 
HETATM   24  C   UNL     1      43.385 -16.897   4.655  1.00  0.00     0.014 A 
HETATM   25  C   UNL     1      45.014 -18.745   6.033  1.00  0.00     0.030 A 
HETATM   26  N   UNL     1      44.639 -20.150   3.982  1.00  0.00    -0.358 N 
HETATM   27  C   UNL     1      44.702 -17.507   6.598  1.00  0.00     0.002 A 
HETATM   28  C   UNL     1      43.900 -16.593   5.922  1.00  0.00     0.001 A 
HETATM   29  H   UNL     1      45.183 -20.961   4.247  1.00  0.00     0.166 HD
HETATM   30  C   UNL     1      43.949 -20.014   2.803  1.00  0.00     0.018 A 
HETATM   31  C   UNL     1      43.953 -21.098   1.784  1.00  0.00     0.069 C 
ENDBRANCH  20  21
ENDBRANCH   2  19
TORSDOF 5
ENDMDL
MODEL 7
REMARK VINA RESULT:      -8.6      7.367     12.454
REMARK  5 active torsions:
REMARK  status: ('A' for Active; 'I' for Inactive)
REMARK    1  A    between atoms: C_2  and  C_3 
REMARK    2  A    between atoms: C_6  and  C_7 
REMARK    3  A    between atoms: C_11  and  C_12 
REMARK       I    between atoms: C_12  and  N_13 
REMARK    4  A    between atoms: N_13  and  N_14 
REMARK    5  A    between atoms: C_15  and  C_16 
ROOT
HETATM    1  C   UNL     1      41.575 -14.652  -0.190  1.00  0.00     0.289 C 
HETATM    2  N   UNL     1      41.837 -16.007  -0.029  1.00  0.00    -0.242 N 
HETATM    3  O   UNL     1      42.002 -13.763   0.540  1.00  0.00    -0.264 OA
HETATM    4  H   UNL     1      41.609 -16.634  -0.792  1.00  0.00     0.192 HD
ENDROOT
BRANCH   1   5
HETATM    5  C   UNL     1      40.743 -14.335  -1.326  1.00  0.00     0.121 A 
HETATM    6  N   UNL     1      41.277 -14.188  -2.575  1.00  0.00    -0.272 N 
HETATM    7  N   UNL     1      40.386 -13.864  -3.521  1.00  0.00    -0.174 NA
HETATM    8  H   UNL     1      42.254 -14.290  -2.835  1.00  0.00     0.189 HD
HETATM    9  C   UNL     1      39.209 -13.810  -2.878  1.00  0.00     0.089 A 
HETATM   10  C   UNL     1      39.393 -14.099  -1.495  1.00  0.00     0.071 A 
BRANCH   9  11
HETATM   11  C   UNL     1      37.964 -13.478  -3.578  1.00  0.00    -0.006 A 
HETATM   12  C   UNL     1      37.588 -12.146  -3.799  1.00  0.00     0.014 A 
HETATM   13  C   UNL     1      36.398 -11.843  -4.472  1.00  0.00     0.008 A 
HETATM   14  C   UNL     1      35.562 -12.864  -4.935  1.00  0.00    -0.059 A 
HETATM   15  C   UNL     1      35.936 -14.195  -4.722  1.00  0.00     0.008 A 
HETATM   16  C   UNL     1      37.122 -14.497  -4.047  1.00  0.00     0.014 A 
BRANCH  14  17
HETATM   17  C   UNL     1      34.288 -12.538  -5.672  1.00  0.00     0.034 C 
HETATM   18  C   UNL     1      33.325 -11.733  -4.811  1.00  0.00     0.010 C 
ENDBRANCH  14  17
ENDBRANCH   9  11
ENDBRANCH   1   5
BRANCH   2  19
HETATM   19  N   UNL     1      42.632 -16.593   0.926  1.00  0.00    -0.183 NA
HETATM   20  C   UNL     1      42.144 -17.529   1.677  1.00  0.00     0.153 C 
BRANCH  20  21
HETATM   21  C   UNL     1      42.972 -18.143   2.704  1.00  0.00     0.018 A 
HETATM   22  C   UNL     1      43.477 -19.487   2.677  1.00  0.00     0.004 A 
HETATM   23  C   UNL     1      44.236 -19.674   3.830  1.00  0.00     0.043 A 
HETATM   24  C   UNL     1      43.359 -20.566   1.773  1.00  0.00     0.014 A 
HETATM   25  C   UNL     1      44.888 -20.878   4.125  1.00  0.00     0.030 A 
HETATM   26  N   UNL     1      44.189 -18.499   4.538  1.00  0.00    -0.358 N 
HETATM   27  C   UNL     1      44.757 -21.927   3.213  1.00  0.00     0.002 A 
HETATM   28  C   UNL     1      44.003 -21.778   2.054  1.00  0.00     0.001 A 
HETATM   29  H   UNL     1      44.654 -18.351   5.424  1.00  0.00     0.166 HD
HETATM   30  C   UNL     1      43.432 -17.562   3.880  1.00  0.00     0.018 A 
HETATM   31  C   UNL     1      43.231 -16.203   4.449  1.00  0.00     0.069 C 
ENDBRANCH  20  21
ENDBRANCH   2  19
TORSDOF 5
ENDMDL
MODEL 8
REMARK VINA RESULT:      -8.3      8.627     11.937
REMARK  5 active torsions:
REMARK  status: ('A' for Active; 'I' for Inactive)
REMARK    1  A    between atoms: C_2  and  C_3 
REMARK    2  A    between atoms: C_6  and  C_7 
REMARK    3  A    between atoms: C_11  and  C_12 
REMARK       I    between atoms: C_12  and  N_13 
REMARK    4  A    between atoms: N_13  and  N_14 
REMARK    5  A    between atoms: C_15  and  C_16 
ROOT
HETATM    1  C   UNL     1      41.016 -14.301  -0.118  1.00  0.00     0.289 C 
HETATM    2  N   UNL     1      42.031 -13.354  -0.139  1.00  0.00    -0.242 N 
HETATM    3  O   UNL     1      39.891 -14.135  -0.580  1.00  0.00    -0.264 OA
HETATM    4  H   UNL     1      42.973 -13.655   0.082  1.00  0.00     0.192 HD
ENDROOT
BRANCH   1   5
HETATM    5  C   UNL     1      41.381 -15.555   0.497  1.00  0.00     0.121 A 
HETATM    6  N   UNL     1      40.600 -16.667   0.355  1.00  0.00    -0.272 N 
HETATM    7  N   UNL     1      41.051 -17.745   1.009  1.00  0.00    -0.174 NA
HETATM    8  H   UNL     1      39.736 -16.740  -0.176  1.00  0.00     0.189 HD
HETATM    9  C   UNL     1      42.187 -17.338   1.597  1.00  0.00     0.089 A 
HETATM   10  C   UNL     1      42.427 -15.965   1.299  1.00  0.00     0.071 A 
BRANCH   9  11
HETATM   11  C   UNL     1      42.994 -18.243   2.421  1.00  0.00    -0.006 A 
HETATM   12  C   UNL     1      43.239 -17.968   3.774  1.00  0.00     0.014 A 
HETATM   13  C   UNL     1      44.008 -18.843   4.551  1.00  0.00     0.008 A 
HETATM   14  C   UNL     1      44.548 -20.006   3.992  1.00  0.00    -0.059 A 
HETATM   15  C   UNL     1      44.302 -20.286   2.644  1.00  0.00     0.008 A 
HETATM   16  C   UNL     1      43.537 -19.411   1.867  1.00  0.00     0.014 A 
BRANCH  14  17
HETATM   17  C   UNL     1      45.365 -20.954   4.832  1.00  0.00     0.034 C 
HETATM   18  C   UNL     1      44.745 -22.343   4.882  1.00  0.00     0.010 C 
ENDBRANCH  14  17
ENDBRANCH   9  11
ENDBRANCH   1   5
BRANCH   2  19
HETATM   19  N   UNL     1      41.988 -12.100  -0.700  1.00  0.00    -0.183 NA
HETATM   20  C   UNL     1      42.866 -11.770  -1.593  1.00  0.00     0.153 C 
BRANCH  20  21
HETATM   21  C   UNL     1      42.841 -10.438  -2.180  1.00  0.00     0.018 A 
HETATM   22  C   UNL     1      42.546 -10.136  -3.553  1.00  0.00     0.004 A 
HETATM   23  C   UNL     1      42.607  -8.752  -3.700  1.00  0.00     0.043 A 
HETATM   24  C   UNL     1      42.230 -10.915  -4.687  1.00  0.00     0.014 A 
HETATM   25  C   UNL     1      42.363  -8.104  -4.918  1.00  0.00     0.030 A 
HETATM   26  N   UNL     1      42.935  -8.230  -2.473  1.00  0.00    -0.358 N 
HETATM   27  C   UNL     1      42.050  -8.898  -6.023  1.00  0.00     0.002 A 
HETATM   28  C   UNL     1      41.985 -10.284  -5.914  1.00  0.00     0.001 A 
HETATM   29  H   UNL     1      43.050  -7.242  -2.289  1.00  0.00     0.166 HD
HETATM   30  C   UNL     1      43.083  -9.228  -1.542  1.00  0.00     0.018 A 
HETATM   31  C   UNL     1      43.439  -8.913  -0.133  1.00  0.00     0.069 C 
ENDBRANCH  20  21
ENDBRANCH   2  19
TORSDOF 5
ENDMDL
MODEL 9
REMARK VINA RESULT:      -8.2      8.774     12.471
REMARK  5 active torsions:
REMARK  status: ('A' for Active; 'I' for Inactive)
REMARK    1  A    between atoms: C_2  and  C_3 
REMARK    2  A    between atoms: C_6  and  C_7 
REMARK    3  A    between atoms: C_11  and  C_12 
REMARK       I    between atoms: C_12  and  N_13 
REMARK    4  A    between atoms: N_13  and  N_14 
REMARK    5  A    between atoms: C_15  and  C_16 
ROOT
HETATM    1  C   UNL     1      41.222 -14.873  -0.631  1.00  0.00     0.289 C 
HETATM    2  N   UNL     1      40.098 -15.002  -1.437  1.00  0.00    -0.242 N 
HETATM    3  O   UNL     1      41.958 -13.891  -0.603  1.00  0.00    -0.264 OA
HETATM    4  H   UNL     1      39.451 -15.756  -1.241  1.00  0.00     0.192 HD
ENDROOT
BRANCH   1   5
HETATM    5  C   UNL     1      41.481 -16.011   0.219  1.00  0.00     0.121 A 
HETATM    6  N   UNL     1      40.471 -16.840   0.619  1.00  0.00    -0.272 N 
HETATM    7  N   UNL     1      40.860 -17.832   1.430  1.00  0.00    -0.174 NA
HETATM    8  H   UNL     1      39.488 -16.764   0.371  1.00  0.00     0.189 HD
HETATM    9  C   UNL     1      42.185 -17.666   1.561  1.00  0.00     0.089 A 
HETATM   10  C   UNL     1      42.613 -16.530   0.815  1.00  0.00     0.071 A 
BRANCH   9  11
HETATM   11  C   UNL     1      42.996 -18.567   2.387  1.00  0.00    -0.006 A 
HETATM   12  C   UNL     1      43.351 -19.845   1.935  1.00  0.00     0.014 A 
HETATM   13  C   UNL     1      44.129 -20.693   2.732  1.00  0.00     0.008 A 
HETATM   14  C   UNL     1      44.564 -20.282   3.996  1.00  0.00    -0.059 A 
HETATM   15  C   UNL     1      44.216 -19.005   4.450  1.00  0.00     0.008 A 
HETATM   16  C   UNL     1      43.437 -18.160   3.655  1.00  0.00     0.014 A 
BRANCH  14  17
HETATM   17  C   UNL     1      45.413 -21.190   4.849  1.00  0.00     0.034 C 
HETATM   18  C   UNL     1      44.887 -22.619   4.853  1.00  0.00     0.010 C 
ENDBRANCH  14  17
ENDBRANCH   9  11
ENDBRANCH   1   5
BRANCH   2  19
HETATM   19  N   UNL     1      39.584 -14.067  -2.303  1.00  0.00    -0.183 NA
HETATM   20  C   UNL     1      38.394 -13.596  -2.101  1.00  0.00     0.153 C 
BRANCH  20  21
HETATM   21  C   UNL     1      37.833 -12.620  -3.023  1.00  0.00     0.018 A 
HETATM   22  C   UNL     1      36.881 -12.902  -4.061  1.00  0.00     0.004 A 
HETATM   23  C   UNL     1      36.588 -11.699  -4.700  1.00  0.00     0.043 A 
HETATM   24  C   UNL     1      36.239 -14.074  -4.517  1.00  0.00     0.014 A 
HETATM   25  C   UNL     1      35.682 -11.603  -5.764  1.00  0.00     0.030 A 
HETATM   26  N   UNL     1      37.334 -10.724  -4.086  1.00  0.00    -0.358 N 
HETATM   27  C   UNL     1      35.059 -12.777  -6.193  1.00  0.00     0.002 A 
HETATM   28  C   UNL     1      35.333 -13.997  -5.582  1.00  0.00     0.001 A 
HETATM   29  H   UNL     1      37.320  -9.748  -4.350  1.00  0.00     0.166 HD
HETATM   30  C   UNL     1      38.094 -11.256  -3.073  1.00  0.00     0.018 A 
HETATM   31  C   UNL     1      38.991 -10.396  -2.256  1.00  0.00     0.069 C 
ENDBRANCH  20  21
ENDBRANCH   2  19
TORSDOF 5
ENDMDL
MODEL 10
REMARK VINA RESULT:      -8.1      3.333      4.620
REMARK  5 active torsions:
REMARK  status: ('A' for Active; 'I' for Inactive)
REMARK    1  A    between atoms: C_2  and  C_3 
REMARK    2  A    between atoms: C_6  and  C_7 
REMARK    3  A    between atoms: C_11  and  C_12 
REMARK       I    between atoms: C_12  and  N_13 
REMARK    4  A    between atoms: N_13  and  N_14 
REMARK    5  A    between atoms: C_15  and  C_16 
ROOT
HETATM    1  C   UNL     1      42.581 -13.836   3.902  1.00  0.00     0.289 C 
HETATM    2  N   UNL     1      42.298 -15.132   4.313  1.00  0.00    -0.242 N 
HETATM    3  O   UNL     1      43.226 -13.542   2.900  1.00  0.00    -0.264 OA
HETATM    4  H   UNL     1      41.596 -15.265   5.032  1.00  0.00     0.192 HD
ENDROOT
BRANCH   1   5
HETATM    5  C   UNL     1      42.041 -12.806   4.757  1.00  0.00     0.121 A 
HETATM    6  N   UNL     1      41.721 -11.572   4.264  1.00  0.00    -0.272 N 
HETATM    7  N   UNL     1      41.260 -10.714   5.183  1.00  0.00    -0.174 NA
HETATM    8  H   UNL     1      41.810 -11.261   3.301  1.00  0.00     0.189 HD
HETATM    9  C   UNL     1      41.257 -11.410   6.330  1.00  0.00     0.089 A 
HETATM   10  C   UNL     1      41.743 -12.730   6.103  1.00  0.00     0.071 A 
BRANCH   9  11
HETATM   11  C   UNL     1      40.813 -10.811   7.593  1.00  0.00    -0.006 A 
HETATM   12  C   UNL     1      39.481 -10.913   8.017  1.00  0.00     0.014 A 
HETATM   13  C   UNL     1      39.072 -10.340   9.227  1.00  0.00     0.008 A 
HETATM   14  C   UNL     1      39.984  -9.652  10.034  1.00  0.00    -0.059 A 
HETATM   15  C   UNL     1      41.316  -9.552   9.618  1.00  0.00     0.008 A 
HETATM   16  C   UNL     1      41.723 -10.122   8.408  1.00  0.00     0.014 A 
BRANCH  14  17
HETATM   17  C   UNL     1      39.546  -9.047  11.344  1.00  0.00     0.034 C 
HETATM   18  C   UNL     1      38.184  -8.376  11.230  1.00  0.00     0.010 C 
ENDBRANCH  14  17
ENDBRANCH   9  11
ENDBRANCH   1   5
BRANCH   2  19
HETATM   19  N   UNL     1      42.637 -16.300   3.674  1.00  0.00    -0.183 NA
HETATM   20  C   UNL     1      43.432 -17.140   4.259  1.00  0.00     0.153 C 
BRANCH  20  21
HETATM   21  C   UNL     1      43.813 -18.371   3.583  1.00  0.00     0.018 A 
HETATM   22  C   UNL     1      44.091 -19.625   4.227  1.00  0.00     0.004 A 
HETATM   23  C   UNL     1      44.397 -20.549   3.230  1.00  0.00     0.043 A 
HETATM   24  C   UNL     1      44.109 -20.061   5.570  1.00  0.00     0.014 A 
HETATM   25  C   UNL     1      44.713 -21.886   3.502  1.00  0.00     0.030 A 
HETATM   26  N   UNL     1      44.320 -19.888   2.029  1.00  0.00    -0.358 N 
HETATM   27  C   UNL     1      44.721 -22.291   4.839  1.00  0.00     0.002 A 
HETATM   28  C   UNL     1      44.426 -21.394   5.861  1.00  0.00     0.001 A 
HETATM   29  H   UNL     1      44.496 -20.319   1.132  1.00  0.00     0.166 HD
HETATM   30  C   UNL     1      43.970 -18.574   2.218  1.00  0.00     0.018 A 
HETATM   31  C   UNL     1      43.822 -17.648   1.063  1.00  0.00     0.069 C 
ENDBRANCH  20  21
ENDBRANCH   2  19
TORSDOF 5
ENDMDL
