MODEL 1
REMARK VINA RESULT:      -7.7      0.000      0.000
REMARK  6 active torsions:
REMARK  status: ('A' for Active; 'I' for Inactive)
REMARK    1  A    between atoms: C_2  and  N_3 
REMARK    2  A    between atoms: N_3  and  C_5 
REMARK    3  A    between atoms: C_5  and  C_6 
REMARK    4  A    between atoms: C_6  and  N_7 
REMARK       I    between atoms: N_7  and  C_8 
REMARK    5  A    between atoms: C_8  and  C_9 
REMARK    6  A    between atoms: C_10  and  C_11 
ROOT
HETATM    1  N   UNL     1      42.414 -18.997   2.078  1.00  0.00    -0.354 N 
HETATM    2  C   UNL     1      43.773 -19.202   2.237  1.00  0.00     0.255 C 
HETATM    3  O   UNL     1      44.573 -18.316   1.954  1.00  0.00    -0.268 OA
HETATM    4  H   UNL     1      41.779 -19.748   2.317  1.00  0.00     0.162 HD
ENDROOT
BRANCH   2   5
HETATM    5  C   UNL     1      44.153 -20.500   2.780  1.00  0.00     0.080 A 
HETATM    6  C   UNL     1      44.446 -20.864   4.140  1.00  0.00     0.104 A 
HETATM    7  N   UNL     1      44.798 -22.158   4.222  1.00  0.00    -0.174 NA
HETATM    8  N   UNL     1      44.729 -22.619   2.975  1.00  0.00    -0.288 N 
HETATM    9  H   UNL     1      44.967 -23.593   2.811  1.00  0.00     0.188 HD
HETATM   10  C   UNL     1      44.345 -21.676   2.070  1.00  0.00     0.128 A 
BRANCH   6  11
HETATM   11  C   UNL     1      44.409 -20.061   5.365  1.00  0.00    -0.002 A 
HETATM   12  C   UNL     1      44.936 -18.768   5.410  1.00  0.00     0.056 A 
HETATM   13  C   UNL     1      44.861 -18.029   6.587  1.00  0.00     0.117 A 
HETATM   14  F   UNL     1      45.380 -16.794   6.617  1.00  0.00    -0.206 F 
HETATM   15  C   UNL     1      44.251 -18.542   7.727  1.00  0.00     0.042 A 
HETATM   16  C   UNL     1      43.704 -19.821   7.689  1.00  0.00     0.004 A 
HETATM   17  C   UNL     1      43.781 -20.575   6.515  1.00  0.00     0.014 A 
ENDBRANCH   6  11
ENDBRANCH   2   5
BRANCH   1  18
HETATM   18  C   UNL     1      41.894 -17.775   1.504  1.00  0.00     0.162 C 
BRANCH  18  19
HETATM   19  C   UNL     1      41.660 -16.577   2.483  1.00  0.00     0.143 C 
HETATM   20  C   UNL     1      40.189 -16.141   2.667  1.00  0.00     0.041 C 
HETATM   21  C   UNL     1      39.870 -15.160   1.544  1.00  0.00     0.003 C 
HETATM   22  C   UNL     1      41.210 -14.631   1.055  1.00  0.00     0.003 C 
HETATM   23  C   UNL     1      42.271 -15.261   1.954  1.00  0.00     0.041 C 
BRANCH  19  24
HETATM   24  N   UNL     1      42.264 -16.911   3.895  1.00  0.00    -0.065 N 
HETATM   25  H   UNL     1      43.027 -17.582   3.729  1.00  0.00     0.280 HD
HETATM   26  C   UNL     1      42.943 -15.707   4.548  1.00  0.00     0.270 C 
BRANCH  24  27
HETATM   27  C   UNL     1      41.350 -17.553   4.933  1.00  0.00     0.231 C 
HETATM   28  C   UNL     1      41.259 -16.765   6.222  1.00  0.00     0.034 C 
ENDBRANCH  24  27
ENDBRANCH  19  24
ENDBRANCH  18  19
ENDBRANCH   1  18
TORSDOF 6
ENDMDL
MODEL 2
REMARK VINA RESULT:      -7.6      2.574      4.464
REMARK  6 active torsions:
REMARK  status: ('A' for Active; 'I' for Inactive)
REMARK    1  A    between atoms: C_2  and  N_3 
REMARK    2  A    between atoms: N_3  and  C_5 
REMARK    3  A    between atoms: C_5  and  C_6 
REMARK    4  A    between atoms: C_6  and  N_7 
REMARK       I    between atoms: N_7  and  C_8 
REMARK    5  A    between atoms: C_8  and  C_9 
REMARK    6  A    between atoms: C_10  and  C_11 
ROOT
HETATM    1  N   UNL     1      41.952 -16.084   4.624  1.00  0.00    -0.354 N 
HETATM    2  C   UNL     1      42.167 -17.383   5.049  1.00  0.00     0.255 C 
HETATM    3  O   UNL     1      41.268 -18.215   4.986  1.00  0.00    -0.268 OA
HETATM    4  H   UNL     1      42.711 -15.419   4.692  1.00  0.00     0.162 HD
ENDROOT
BRANCH   2   5
HETATM    5  C   UNL     1      43.512 -17.671   5.529  1.00  0.00     0.080 A 
HETATM    6  C   UNL     1      44.428 -18.693   5.102  1.00  0.00     0.104 A 
HETATM    7  N   UNL     1      45.560 -18.652   5.826  1.00  0.00    -0.174 NA
HETATM    8  N   UNL     1      45.393 -17.645   6.681  1.00  0.00    -0.288 N 
HETATM    9  H   UNL     1      46.142 -17.445   7.336  1.00  0.00     0.188 HD
HETATM   10  C   UNL     1      44.191 -17.018   6.548  1.00  0.00     0.128 A 
BRANCH   6  11
HETATM   11  C   UNL     1      44.299 -19.702   4.047  1.00  0.00    -0.002 A 
HETATM   12  C   UNL     1      44.657 -21.036   4.262  1.00  0.00     0.056 A 
HETATM   13  C   UNL     1      44.496 -21.969   3.242  1.00  0.00     0.117 A 
HETATM   14  F   UNL     1      44.854 -23.242   3.460  1.00  0.00    -0.206 F 
HETATM   15  C   UNL     1      43.966 -21.610   2.008  1.00  0.00     0.042 A 
HETATM   16  C   UNL     1      43.587 -20.289   1.788  1.00  0.00     0.004 A 
HETATM   17  C   UNL     1      43.751 -19.341   2.802  1.00  0.00     0.014 A 
ENDBRANCH   6  11
ENDBRANCH   2   5
BRANCH   1  18
HETATM   18  C   UNL     1      40.651 -15.642   4.168  1.00  0.00     0.162 C 
BRANCH  18  19
HETATM   19  C   UNL     1      40.512 -15.303   2.647  1.00  0.00     0.143 C 
HETATM   20  C   UNL     1      40.175 -16.495   1.724  1.00  0.00     0.041 C 
HETATM   21  C   UNL     1      41.495 -17.163   1.356  1.00  0.00     0.003 C 
HETATM   22  C   UNL     1      42.575 -16.117   1.594  1.00  0.00     0.003 C 
HETATM   23  C   UNL     1      41.849 -14.845   2.025  1.00  0.00     0.041 C 
BRANCH  19  24
HETATM   24  N   UNL     1      39.423 -14.188   2.442  1.00  0.00    -0.065 N 
HETATM   25  H   UNL     1      38.582 -14.514   2.937  1.00  0.00     0.280 HD
HETATM   26  C   UNL     1      39.788 -12.872   3.129  1.00  0.00     0.270 C 
BRANCH  24  27
HETATM   27  C   UNL     1      38.983 -13.866   1.018  1.00  0.00     0.231 C 
HETATM   28  C   UNL     1      37.504 -14.081   0.784  1.00  0.00     0.034 C 
ENDBRANCH  24  27
ENDBRANCH  19  24
ENDBRANCH  18  19
ENDBRANCH   1  18
TORSDOF 6
ENDMDL
MODEL 3
REMARK VINA RESULT:      -7.6      2.591      4.388
REMARK  6 active torsions:
REMARK  status: ('A' for Active; 'I' for Inactive)
REMARK    1  A    between atoms: C_2  and  N_3 
REMARK    2  A    between atoms: N_3  and  C_5 
REMARK    3  A    between atoms: C_5  and  C_6 
REMARK    4  A    between atoms: C_6  and  N_7 
REMARK       I    between atoms: N_7  and  C_8 
REMARK    5  A    between atoms: C_8  and  C_9 
REMARK    6  A    between atoms: C_10  and  C_11 
ROOT
HETATM    1  N   UNL     1      41.684 -15.682   5.949  1.00  0.00    -0.354 N 
HETATM    2  C   UNL     1      41.681 -17.063   6.027  1.00  0.00     0.255 C 
HETATM    3  O   UNL     1      40.823 -17.717   5.442  1.00  0.00    -0.268 OA
HETATM    4  H   UNL     1      42.401 -15.169   6.446  1.00  0.00     0.162 HD
ENDROOT
BRANCH   2   5
HETATM    5  C   UNL     1      42.762 -17.650   6.807  1.00  0.00     0.080 A 
HETATM    6  C   UNL     1      43.766 -18.594   6.399  1.00  0.00     0.104 A 
HETATM    7  N   UNL     1      44.562 -18.921   7.432  1.00  0.00    -0.174 NA
HETATM    8  N   UNL     1      44.104 -18.214   8.464  1.00  0.00    -0.288 N 
HETATM    9  H   UNL     1      44.569 -18.321   9.360  1.00  0.00     0.188 HD
HETATM   10  C   UNL     1      43.033 -17.433   8.150  1.00  0.00     0.128 A 
BRANCH   6  11
HETATM   11  C   UNL     1      44.019 -19.204   5.091  1.00  0.00    -0.002 A 
HETATM   12  C   UNL     1      43.865 -18.482   3.904  1.00  0.00     0.056 A 
HETATM   13  C   UNL     1      44.139 -19.090   2.683  1.00  0.00     0.117 A 
HETATM   14  F   UNL     1      43.976 -18.387   1.553  1.00  0.00    -0.206 F 
HETATM   15  C   UNL     1      44.583 -20.405   2.611  1.00  0.00     0.042 A 
HETATM   16  C   UNL     1      44.759 -21.129   3.787  1.00  0.00     0.004 A 
HETATM   17  C   UNL     1      44.481 -20.531   5.019  1.00  0.00     0.014 A 
ENDBRANCH   6  11
ENDBRANCH   2   5
BRANCH   1  18
HETATM   18  C   UNL     1      40.642 -14.960   5.249  1.00  0.00     0.162 C 
BRANCH  18  19
HETATM   19  C   UNL     1      40.848 -14.732   3.715  1.00  0.00     0.143 C 
HETATM   20  C   UNL     1      42.316 -14.679   3.238  1.00  0.00     0.041 C 
HETATM   21  C   UNL     1      42.794 -13.242   3.418  1.00  0.00     0.003 C 
HETATM   22  C   UNL     1      41.537 -12.387   3.480  1.00  0.00     0.003 C 
HETATM   23  C   UNL     1      40.362 -13.338   3.261  1.00  0.00     0.041 C 
BRANCH  19  24
HETATM   24  N   UNL     1      40.096 -15.846   2.901  1.00  0.00    -0.065 N 
HETATM   25  H   UNL     1      39.478 -16.323   3.571  1.00  0.00     0.280 HD
HETATM   26  C   UNL     1      39.150 -15.271   1.846  1.00  0.00     0.270 C 
BRANCH  24  27
HETATM   27  C   UNL     1      40.929 -16.937   2.237  1.00  0.00     0.231 C 
HETATM   28  C   UNL     1      41.041 -16.777   0.736  1.00  0.00     0.034 C 
ENDBRANCH  24  27
ENDBRANCH  19  24
ENDBRANCH  18  19
ENDBRANCH   1  18
TORSDOF 6
ENDMDL
MODEL 4
REMARK VINA RESULT:      -7.6      2.910      4.848
REMARK  6 active torsions:
REMARK  status: ('A' for Active; 'I' for Inactive)
REMARK    1  A    between atoms: C_2  and  N_3 
REMARK    2  A    between atoms: N_3  and  C_5 
REMARK    3  A    between atoms: C_5  and  C_6 
REMARK    4  A    between atoms: C_6  and  N_7 
REMARK       I    between atoms: N_7  and  C_8 
REMARK    5  A    between atoms: C_8  and  C_9 
REMARK    6  A    between atoms: C_10  and  C_11 
ROOT
HETATM    1  N   UNL     1      41.557 -15.360   3.646  1.00  0.00    -0.354 N 
HETATM    2  C   UNL     1      41.666 -16.237   4.711  1.00  0.00     0.255 C 
HETATM    3  O   UNL     1      40.945 -17.227   4.777  1.00  0.00    -0.268 OA
HETATM    4  H   UNL     1      42.162 -14.550   3.621  1.00  0.00     0.162 HD
ENDROOT
BRANCH   2   5
HETATM    5  C   UNL     1      42.693 -15.909   5.691  1.00  0.00     0.080 A 
HETATM    6  C   UNL     1      43.670 -16.768   6.303  1.00  0.00     0.104 A 
HETATM    7  N   UNL     1      44.414 -16.088   7.192  1.00  0.00    -0.174 NA
HETATM    8  N   UNL     1      43.950 -14.840   7.154  1.00  0.00    -0.288 N 
HETATM    9  H   UNL     1      44.379 -14.152   7.766  1.00  0.00     0.188 HD
HETATM   10  C   UNL     1      42.926 -14.671   6.272  1.00  0.00     0.128 A 
BRANCH   6  11
HETATM   11  C   UNL     1      43.942 -18.193   6.096  1.00  0.00    -0.002 A 
HETATM   12  C   UNL     1      43.579 -19.154   7.044  1.00  0.00     0.056 A 
HETATM   13  C   UNL     1      43.834 -20.500   6.799  1.00  0.00     0.117 A 
HETATM   14  F   UNL     1      43.489 -21.408   7.723  1.00  0.00    -0.206 F 
HETATM   15  C   UNL     1      44.430 -20.921   5.616  1.00  0.00     0.042 A 
HETATM   16  C   UNL     1      44.779 -19.976   4.655  1.00  0.00     0.004 A 
HETATM   17  C   UNL     1      44.534 -18.621   4.893  1.00  0.00     0.014 A 
ENDBRANCH   6  11
ENDBRANCH   2   5
BRANCH   1  18
HETATM   18  C   UNL     1      40.548 -15.533   2.623  1.00  0.00     0.162 C 
BRANCH  18  19
HETATM   19  C   UNL     1      41.033 -16.066   1.234  1.00  0.00     0.143 C 
HETATM   20  C   UNL     1      40.943 -17.595   1.036  1.00  0.00     0.041 C 
HETATM   21  C   UNL     1      42.223 -18.196   1.605  1.00  0.00     0.003 C 
HETATM   22  C   UNL     1      43.239 -17.064   1.639  1.00  0.00     0.003 C 
HETATM   23  C   UNL     1      42.547 -15.851   1.021  1.00  0.00     0.041 C 
BRANCH  19  24
HETATM   24  N   UNL     1      40.230 -15.363   0.079  1.00  0.00    -0.065 N 
HETATM   25  H   UNL     1      39.585 -16.073  -0.294  1.00  0.00     0.280 HD
HETATM   26  C   UNL     1      39.321 -14.244   0.587  1.00  0.00     0.270 C 
BRANCH  24  27
HETATM   27  C   UNL     1      41.012 -14.826  -1.115  1.00  0.00     0.231 C 
HETATM   28  C   UNL     1      40.896 -15.695  -2.348  1.00  0.00     0.034 C 
ENDBRANCH  24  27
ENDBRANCH  19  24
ENDBRANCH  18  19
ENDBRANCH   1  18
TORSDOF 6
ENDMDL
MODEL 5
REMARK VINA RESULT:      -7.6      3.067      5.577
REMARK  6 active torsions:
REMARK  status: ('A' for Active; 'I' for Inactive)
REMARK    1  A    between atoms: C_2  and  N_3 
REMARK    2  A    between atoms: N_3  and  C_5 
REMARK    3  A    between atoms: C_5  and  C_6 
REMARK    4  A    between atoms: C_6  and  N_7 
REMARK       I    between atoms: N_7  and  C_8 
REMARK    5  A    between atoms: C_8  and  C_9 
REMARK    6  A    between atoms: C_10  and  C_11 
ROOT
HETATM    1  N   UNL     1      40.916 -16.080   0.414  1.00  0.00    -0.354 N 
HETATM    2  C   UNL     1      41.946 -16.136   1.336  1.00  0.00     0.255 C 
HETATM    3  O   UNL     1      43.104 -15.928   0.987  1.00  0.00    -0.268 OA
HETATM    4  H   UNL     1      39.972 -16.260   0.729  1.00  0.00     0.162 HD
ENDROOT
BRANCH   2   5
HETATM    5  C   UNL     1      41.546 -16.420   2.707  1.00  0.00     0.080 A 
HETATM    6  C   UNL     1      41.926 -17.517   3.555  1.00  0.00     0.104 A 
HETATM    7  N   UNL     1      41.305 -17.439   4.744  1.00  0.00    -0.174 NA
HETATM    8  N   UNL     1      40.560 -16.337   4.678  1.00  0.00    -0.288 N 
HETATM    9  H   UNL     1      39.994 -16.093   5.485  1.00  0.00     0.188 HD
HETATM   10  C   UNL     1      40.666 -15.684   3.488  1.00  0.00     0.128 A 
BRANCH   6  11
HETATM   11  C   UNL     1      42.845 -18.631   3.309  1.00  0.00    -0.002 A 
HETATM   12  C   UNL     1      43.760 -19.055   4.277  1.00  0.00     0.056 A 
HETATM   13  C   UNL     1      44.599 -20.133   4.013  1.00  0.00     0.117 A 
HETATM   14  F   UNL     1      45.479 -20.520   4.947  1.00  0.00    -0.206 F 
HETATM   15  C   UNL     1      44.538 -20.820   2.806  1.00  0.00     0.042 A 
HETATM   16  C   UNL     1      43.618 -20.421   1.841  1.00  0.00     0.004 A 
HETATM   17  C   UNL     1      42.775 -19.335   2.092  1.00  0.00     0.014 A 
ENDBRANCH   6  11
ENDBRANCH   2   5
BRANCH   1  18
HETATM   18  C   UNL     1      41.170 -15.856  -0.994  1.00  0.00     0.162 C 
BRANCH  18  19
HETATM   19  C   UNL     1      40.591 -14.543  -1.617  1.00  0.00     0.143 C 
HETATM   20  C   UNL     1      41.406 -13.939  -2.782  1.00  0.00     0.041 C 
HETATM   21  C   UNL     1      42.484 -13.056  -2.163  1.00  0.00     0.003 C 
HETATM   22  C   UNL     1      42.000 -12.724  -0.760  1.00  0.00     0.003 C 
HETATM   23  C   UNL     1      40.619 -13.361  -0.622  1.00  0.00     0.041 C 
BRANCH  19  24
HETATM   24  N   UNL     1      39.118 -14.785  -2.109  1.00  0.00    -0.065 N 
HETATM   25  H   UNL     1      38.845 -15.710  -1.749  1.00  0.00     0.280 HD
HETATM   26  C   UNL     1      38.117 -13.817  -1.478  1.00  0.00     0.270 C 
BRANCH  24  27
HETATM   27  C   UNL     1      38.858 -14.816  -3.610  1.00  0.00     0.231 C 
HETATM   28  C   UNL     1      38.936 -16.206  -4.205  1.00  0.00     0.034 C 
ENDBRANCH  24  27
ENDBRANCH  19  24
ENDBRANCH  18  19
ENDBRANCH   1  18
TORSDOF 6
ENDMDL
MODEL 6
REMARK VINA RESULT:      -7.5      1.857      3.269
REMARK  6 active torsions:
REMARK  status: ('A' for Active; 'I' for Inactive)
REMARK    1  A    between atoms: C_2  and  N_3 
REMARK    2  A    between atoms: N_3  and  C_5 
REMARK    3  A    between atoms: C_5  and  C_6 
REMARK    4  A    between atoms: C_6  and  N_7 
REMARK       I    between atoms: N_7  and  C_8 
REMARK    5  A    between atoms: C_8  and  C_9 
REMARK    6  A    between atoms: C_10  and  C_11 
ROOT
HETATM    1  N   UNL     1      42.426 -17.788   1.590  1.00  0.00    -0.354 N 
HETATM    2  C   UNL     1      43.763 -18.048   1.833  1.00  0.00     0.255 C 
HETATM    3  O   UNL     1      44.632 -17.309   1.381  1.00  0.00    -0.268 OA
HETATM    4  H   UNL     1      41.732 -18.417   1.972  1.00  0.00     0.162 HD
ENDROOT
BRANCH   2   5
HETATM    5  C   UNL     1      44.035 -19.211   2.667  1.00  0.00     0.080 A 
HETATM    6  C   UNL     1      43.970 -19.336   4.098  1.00  0.00     0.104 A 
HETATM    7  N   UNL     1      44.337 -20.570   4.486  1.00  0.00    -0.174 NA
HETATM    8  N   UNL     1      44.621 -21.221   3.359  1.00  0.00    -0.288 N 
HETATM    9  H   UNL     1      44.932 -22.185   3.430  1.00  0.00     0.188 HD
HETATM   10  C   UNL     1      44.455 -20.462   2.240  1.00  0.00     0.128 A 
BRANCH   6  11
HETATM   11  C   UNL     1      43.577 -18.361   5.118  1.00  0.00    -0.002 A 
HETATM   12  C   UNL     1      42.238 -18.169   5.472  1.00  0.00     0.056 A 
HETATM   13  C   UNL     1      41.908 -17.251   6.463  1.00  0.00     0.117 A 
HETATM   14  F   UNL     1      40.619 -17.070   6.784  1.00  0.00    -0.206 F 
HETATM   15  C   UNL     1      42.886 -16.523   7.132  1.00  0.00     0.042 A 
HETATM   16  C   UNL     1      44.225 -16.719   6.803  1.00  0.00     0.004 A 
HETATM   17  C   UNL     1      44.567 -17.634   5.804  1.00  0.00     0.014 A 
ENDBRANCH   6  11
ENDBRANCH   2   5
BRANCH   1  18
HETATM   18  C   UNL     1      42.009 -16.695   0.738  1.00  0.00     0.162 C 
BRANCH  18  19
HETATM   19  C   UNL     1      41.255 -15.509   1.426  1.00  0.00     0.143 C 
HETATM   20  C   UNL     1      41.985 -14.148   1.400  1.00  0.00     0.041 C 
HETATM   21  C   UNL     1      42.923 -14.121   2.601  1.00  0.00     0.003 C 
HETATM   22  C   UNL     1      42.388 -15.160   3.575  1.00  0.00     0.003 C 
HETATM   23  C   UNL     1      41.110 -15.714   2.950  1.00  0.00     0.041 C 
BRANCH  19  24
HETATM   24  N   UNL     1      39.834 -15.328   0.778  1.00  0.00    -0.065 N 
HETATM   25  H   UNL     1      39.556 -16.257   0.433  1.00  0.00     0.280 HD
HETATM   26  C   UNL     1      38.760 -14.962   1.803  1.00  0.00     0.270 C 
BRANCH  24  27
HETATM   27  C   UNL     1      39.699 -14.374  -0.403  1.00  0.00     0.231 C 
HETATM   28  C   UNL     1      38.435 -13.544  -0.363  1.00  0.00     0.034 C 
ENDBRANCH  24  27
ENDBRANCH  19  24
ENDBRANCH  18  19
ENDBRANCH   1  18
TORSDOF 6
ENDMDL
MODEL 7
REMARK VINA RESULT:      -7.5      2.605      4.239
REMARK  6 active torsions:
REMARK  status: ('A' for Active; 'I' for Inactive)
REMARK    1  A    between atoms: C_2  and  N_3 
REMARK    2  A    between atoms: N_3  and  C_5 
REMARK    3  A    between atoms: C_5  and  C_6 
REMARK    4  A    between atoms: C_6  and  N_7 
REMARK       I    between atoms: N_7  and  C_8 
REMARK    5  A    between atoms: C_8  and  C_9 
REMARK    6  A    between atoms: C_10  and  C_11 
ROOT
HETATM    1  N   UNL     1      42.303 -16.180   4.817  1.00  0.00    -0.354 N 
HETATM    2  C   UNL     1      42.008 -17.407   5.382  1.00  0.00     0.255 C 
HETATM    3  O   UNL     1      41.163 -18.138   4.875  1.00  0.00    -0.268 OA
HETATM    4  H   UNL     1      43.001 -15.596   5.259  1.00  0.00     0.162 HD
ENDROOT
BRANCH   2   5
HETATM    5  C   UNL     1      42.783 -17.756   6.566  1.00  0.00     0.080 A 
HETATM    6  C   UNL     1      43.666 -18.870   6.777  1.00  0.00     0.104 A 
HETATM    7  N   UNL     1      44.159 -18.857   8.027  1.00  0.00    -0.174 NA
HETATM    8  N   UNL     1      43.629 -17.780   8.602  1.00  0.00    -0.288 N 
HETATM    9  H   UNL     1      43.871 -17.585   9.569  1.00  0.00     0.188 HD
HETATM   10  C   UNL     1      42.803 -17.079   7.777  1.00  0.00     0.128 A 
BRANCH   6  11
HETATM   11  C   UNL     1      44.073 -19.943   5.867  1.00  0.00    -0.002 A 
HETATM   12  C   UNL     1      44.470 -19.678   4.553  1.00  0.00     0.056 A 
HETATM   13  C   UNL     1      44.872 -20.723   3.727  1.00  0.00     0.117 A 
HETATM   14  F   UNL     1      45.240 -20.454   2.466  1.00  0.00    -0.206 F 
HETATM   15  C   UNL     1      44.908 -22.036   4.183  1.00  0.00     0.042 A 
HETATM   16  C   UNL     1      44.534 -22.310   5.495  1.00  0.00     0.004 A 
HETATM   17  C   UNL     1      44.121 -21.270   6.332  1.00  0.00     0.014 A 
ENDBRANCH   6  11
ENDBRANCH   2   5
BRANCH   1  18
HETATM   18  C   UNL     1      41.579 -15.681   3.667  1.00  0.00     0.162 C 
BRANCH  18  19
HETATM   19  C   UNL     1      42.430 -15.263   2.422  1.00  0.00     0.143 C 
HETATM   20  C   UNL     1      41.924 -15.786   1.059  1.00  0.00     0.041 C 
HETATM   21  C   UNL     1      42.511 -17.180   0.870  1.00  0.00     0.003 C 
HETATM   22  C   UNL     1      43.716 -17.257   1.795  1.00  0.00     0.003 C 
HETATM   23  C   UNL     1      43.844 -15.881   2.445  1.00  0.00     0.041 C 
BRANCH  19  24
HETATM   24  N   UNL     1      42.538 -13.696   2.348  1.00  0.00    -0.065 N 
HETATM   25  H   UNL     1      43.544 -13.480   2.309  1.00  0.00     0.280 HD
HETATM   26  C   UNL     1      41.971 -13.125   1.048  1.00  0.00     0.270 C 
BRANCH  24  27
HETATM   27  C   UNL     1      41.970 -12.881   3.505  1.00  0.00     0.231 C 
HETATM   28  C   UNL     1      41.139 -11.700   3.056  1.00  0.00     0.034 C 
ENDBRANCH  24  27
ENDBRANCH  19  24
ENDBRANCH  18  19
ENDBRANCH   1  18
TORSDOF 6
ENDMDL
MODEL 8
REMARK VINA RESULT:      -7.4      2.882      5.177
REMARK  6 active torsions:
REMARK  status: ('A' for Active; 'I' for Inactive)
REMARK    1  A    between atoms: C_2  and  N_3 
REMARK    2  A    between atoms: N_3  and  C_5 
REMARK    3  A    between atoms: C_5  and  C_6 
REMARK    4  A    between atoms: C_6  and  N_7 
REMARK       I    between atoms: N_7  and  C_8 
REMARK    5  A    between atoms: C_8  and  C_9 
REMARK    6  A    between atoms: C_10  and  C_11 
ROOT
HETATM    1  N   UNL     1      40.828 -16.065   0.347  1.00  0.00    -0.354 N 
HETATM    2  C   UNL     1      41.872 -16.116   1.253  1.00  0.00     0.255 C 
HETATM    3  O   UNL     1      43.026 -15.930   0.882  1.00  0.00    -0.268 OA
HETATM    4  H   UNL     1      39.886 -16.226   0.681  1.00  0.00     0.162 HD
ENDROOT
BRANCH   2   5
HETATM    5  C   UNL     1      41.490 -16.366   2.636  1.00  0.00     0.080 A 
HETATM    6  C   UNL     1      41.894 -17.434   3.510  1.00  0.00     0.104 A 
HETATM    7  N   UNL     1      41.284 -17.331   4.703  1.00  0.00    -0.174 NA
HETATM    8  N   UNL     1      40.525 -16.240   4.615  1.00  0.00    -0.288 N 
HETATM    9  H   UNL     1      39.965 -15.981   5.422  1.00  0.00     0.188 HD
HETATM   10  C   UNL     1      40.610 -15.619   3.406  1.00  0.00     0.128 A 
BRANCH   6  11
HETATM   11  C   UNL     1      42.823 -18.544   3.283  1.00  0.00    -0.002 A 
HETATM   12  C   UNL     1      43.752 -18.932   4.254  1.00  0.00     0.056 A 
HETATM   13  C   UNL     1      44.601 -20.006   4.010  1.00  0.00     0.117 A 
HETATM   14  F   UNL     1      45.493 -20.359   4.946  1.00  0.00    -0.206 F 
HETATM   15  C   UNL     1      44.538 -20.725   2.822  1.00  0.00     0.042 A 
HETATM   16  C   UNL     1      43.604 -20.362   1.855  1.00  0.00     0.004 A 
HETATM   17  C   UNL     1      42.751 -19.280   2.086  1.00  0.00     0.014 A 
ENDBRANCH   6  11
ENDBRANCH   2   5
BRANCH   1  18
HETATM   18  C   UNL     1      41.062 -15.873  -1.069  1.00  0.00     0.162 C 
BRANCH  18  19
HETATM   19  C   UNL     1      40.815 -14.436  -1.638  1.00  0.00     0.143 C 
HETATM   20  C   UNL     1      39.439 -13.814  -1.312  1.00  0.00     0.041 C 
HETATM   21  C   UNL     1      38.465 -14.300  -2.380  1.00  0.00     0.003 C 
HETATM   22  C   UNL     1      39.320 -14.732  -3.563  1.00  0.00     0.003 C 
HETATM   23  C   UNL     1      40.765 -14.419  -3.182  1.00  0.00     0.041 C 
BRANCH  19  24
HETATM   24  N   UNL     1      41.939 -13.459  -1.134  1.00  0.00    -0.065 N 
HETATM   25  H   UNL     1      42.607 -14.038  -0.608  1.00  0.00     0.280 HD
HETATM   26  C   UNL     1      42.762 -12.864  -2.278  1.00  0.00     0.270 C 
BRANCH  24  27
HETATM   27  C   UNL     1      41.535 -12.319  -0.206  1.00  0.00     0.231 C 
HETATM   28  C   UNL     1      41.976 -12.527   1.227  1.00  0.00     0.034 C 
ENDBRANCH  24  27
ENDBRANCH  19  24
ENDBRANCH  18  19
ENDBRANCH   1  18
TORSDOF 6
ENDMDL
MODEL 9
REMARK VINA RESULT:      -7.3      2.825      4.762
REMARK  6 active torsions:
REMARK  status: ('A' for Active; 'I' for Inactive)
REMARK    1  A    between atoms: C_2  and  N_3 
REMARK    2  A    between atoms: N_3  and  C_5 
REMARK    3  A    between atoms: C_5  and  C_6 
REMARK    4  A    between atoms: C_6  and  N_7 
REMARK       I    between atoms: N_7  and  C_8 
REMARK    5  A    between atoms: C_8  and  C_9 
REMARK    6  A    between atoms: C_10  and  C_11 
ROOT
HETATM    1  N   UNL     1      42.005 -14.628   3.395  1.00  0.00    -0.354 N 
HETATM    2  C   UNL     1      43.107 -15.409   3.692  1.00  0.00     0.255 C 
HETATM    3  O   UNL     1      43.985 -15.588   2.854  1.00  0.00    -0.268 OA
HETATM    4  H   UNL     1      41.295 -14.500   4.104  1.00  0.00     0.162 HD
ENDROOT
BRANCH   2   5
HETATM    5  C   UNL     1      43.148 -15.950   5.044  1.00  0.00     0.080 A 
HETATM    6  C   UNL     1      43.430 -17.291   5.476  1.00  0.00     0.104 A 
HETATM    7  N   UNL     1      43.327 -17.394   6.812  1.00  0.00    -0.174 NA
HETATM    8  N   UNL     1      43.001 -16.173   7.233  1.00  0.00    -0.288 N 
HETATM    9  H   UNL     1      42.866 -16.031   8.229  1.00  0.00     0.188 HD
HETATM   10  C   UNL     1      42.885 -15.267   6.222  1.00  0.00     0.128 A 
BRANCH   6  11
HETATM   11  C   UNL     1      43.794 -18.481   4.701  1.00  0.00    -0.002 A 
HETATM   12  C   UNL     1      43.161 -18.791   3.494  1.00  0.00     0.056 A 
HETATM   13  C   UNL     1      43.553 -19.916   2.776  1.00  0.00     0.117 A 
HETATM   14  F   UNL     1      42.929 -20.207   1.625  1.00  0.00    -0.206 F 
HETATM   15  C   UNL     1      44.580 -20.740   3.222  1.00  0.00     0.042 A 
HETATM   16  C   UNL     1      45.232 -20.431   4.412  1.00  0.00     0.004 A 
HETATM   17  C   UNL     1      44.843 -19.307   5.146  1.00  0.00     0.014 A 
ENDBRANCH   6  11
ENDBRANCH   2   5
BRANCH   1  18
HETATM   18  C   UNL     1      41.807 -14.065   2.076  1.00  0.00     0.162 C 
BRANCH  18  19
HETATM   19  C   UNL     1      40.687 -14.707   1.193  1.00  0.00     0.143 C 
HETATM   20  C   UNL     1      39.809 -15.768   1.894  1.00  0.00     0.041 C 
HETATM   21  C   UNL     1      40.536 -17.102   1.770  1.00  0.00     0.003 C 
HETATM   22  C   UNL     1      41.504 -16.946   0.607  1.00  0.00     0.003 C 
HETATM   23  C   UNL     1      41.265 -15.551   0.036  1.00  0.00     0.041 C 
BRANCH  19  24
HETATM   24  N   UNL     1      39.750 -13.585   0.614  1.00  0.00    -0.065 N 
HETATM   25  H   UNL     1      40.328 -12.736   0.546  1.00  0.00     0.280 HD
HETATM   26  C   UNL     1      39.310 -13.866  -0.824  1.00  0.00     0.270 C 
BRANCH  24  27
HETATM   27  C   UNL     1      38.513 -13.198   1.415  1.00  0.00     0.231 C 
HETATM   28  C   UNL     1      37.219 -13.398   0.656  1.00  0.00     0.034 C 
ENDBRANCH  24  27
ENDBRANCH  19  24
ENDBRANCH  18  19
ENDBRANCH   1  18
TORSDOF 6
ENDMDL
MODEL 10
REMARK VINA RESULT:      -7.3      1.801      2.516
REMARK  6 active torsions:
REMARK  status: ('A' for Active; 'I' for Inactive)
REMARK    1  A    between atoms: C_2  and  N_3 
REMARK    2  A    between atoms: N_3  and  C_5 
REMARK    3  A    between atoms: C_5  and  C_6 
REMARK    4  A    between atoms: C_6  and  N_7 
REMARK       I    between atoms: N_7  and  C_8 
REMARK    5  A    between atoms: C_8  and  C_9 
REMARK    6  A    between atoms: C_10  and  C_11 
ROOT
HETATM    1  N   UNL     1      42.387 -17.369   1.664  1.00  0.00    -0.354 N 
HETATM    2  C   UNL     1      43.705 -17.781   1.747  1.00  0.00     0.255 C 
HETATM    3  O   UNL     1      44.597 -17.119   1.225  1.00  0.00    -0.268 OA
HETATM    4  H   UNL     1      41.673 -17.937   2.101  1.00  0.00     0.162 HD
ENDROOT
BRANCH   2   5
HETATM    5  C   UNL     1      43.935 -19.002   2.507  1.00  0.00     0.080 A 
HETATM    6  C   UNL     1      43.866 -19.214   3.927  1.00  0.00     0.104 A 
HETATM    7  N   UNL     1      44.188 -20.481   4.237  1.00  0.00    -0.174 NA
HETATM    8  N   UNL     1      44.447 -21.071   3.071  1.00  0.00    -0.288 N 
HETATM    9  H   UNL     1      44.721 -22.049   3.081  1.00  0.00     0.188 HD
HETATM   10  C   UNL     1      44.307 -20.239   2.002  1.00  0.00     0.128 A 
BRANCH   6  11
HETATM   11  C   UNL     1      43.511 -18.290   5.007  1.00  0.00    -0.002 A 
HETATM   12  C   UNL     1      42.179 -17.988   5.306  1.00  0.00     0.056 A 
HETATM   13  C   UNL     1      41.883 -17.124   6.355  1.00  0.00     0.117 A 
HETATM   14  F   UNL     1      40.601 -16.837   6.622  1.00  0.00    -0.206 F 
HETATM   15  C   UNL     1      42.886 -16.561   7.136  1.00  0.00     0.042 A 
HETATM   16  C   UNL     1      44.215 -16.868   6.861  1.00  0.00     0.004 A 
HETATM   17  C   UNL     1      44.526 -17.729   5.805  1.00  0.00     0.014 A 
ENDBRANCH   6  11
ENDBRANCH   2   5
BRANCH   1  18
HETATM   18  C   UNL     1      42.004 -16.200   0.900  1.00  0.00     0.162 C 
BRANCH  18  19
HETATM   19  C   UNL     1      41.456 -14.977   1.706  1.00  0.00     0.143 C 
HETATM   20  C   UNL     1      40.398 -15.305   2.784  1.00  0.00     0.041 C 
HETATM   21  C   UNL     1      39.043 -15.331   2.087  1.00  0.00     0.003 C 
HETATM   22  C   UNL     1      39.217 -14.536   0.802  1.00  0.00     0.003 C 
HETATM   23  C   UNL     1      40.648 -14.005   0.818  1.00  0.00     0.041 C 
BRANCH  19  24
HETATM   24  N   UNL     1      42.644 -14.207   2.389  1.00  0.00    -0.065 N 
HETATM   25  H   UNL     1      43.395 -14.159   1.687  1.00  0.00     0.280 HD
HETATM   26  C   UNL     1      42.306 -12.746   2.691  1.00  0.00     0.270 C 
BRANCH  24  27
HETATM   27  C   UNL     1      43.267 -14.812   3.642  1.00  0.00     0.231 C 
HETATM   28  C   UNL     1      43.442 -13.816   4.767  1.00  0.00     0.034 C 
ENDBRANCH  24  27
ENDBRANCH  19  24
ENDBRANCH  18  19
ENDBRANCH   1  18
TORSDOF 6
ENDMDL
