MODEL 1
REMARK VINA RESULT:      -8.8      0.000      0.000
REMARK  8 active torsions:
REMARK  status: ('A' for Active; 'I' for Inactive)
REMARK    1  A    between atoms: O_2  and  C_3 
REMARK    2  A    between atoms: C_5  and  N_6 
REMARK    3  A    between atoms: N_6  and  C_7 
REMARK    4  A    between atoms: C_9  and  N_10 
REMARK    5  A    between atoms: C_12  and  C_13 
REMARK    6  A    between atoms: C_13  and  N_14 
REMARK    7  A    between atoms: N_18  and  C_19 
REMARK    8  A    between atoms: C_29  and  O_30 
ROOT
HETATM    1  C   UNL     1      44.696 -12.622   9.225  1.00  0.00     0.731 A 
HETATM    2  N   UNL     1      45.811 -11.923   9.053  1.00  0.00    -0.031 NA
HETATM    3  C   UNL     1      46.532 -12.191   7.982  1.00  0.00     0.219 A 
HETATM    4  N   UNL     1      46.183 -13.052   7.042  1.00  0.00    -0.200 NA
HETATM    5  C   UNL     1      45.036 -13.690   7.266  1.00  0.00     0.174 A 
HETATM    6  N   UNL     1      44.255 -13.507   8.330  1.00  0.00    -0.045 NA
ENDROOT
BRANCH   5   7
HETATM    7  C   UNL     1      44.436 -14.440   6.092  1.00  0.00     0.316 C 
BRANCH   7   8
HETATM    8  N   UNL     1      43.911 -15.859   6.416  1.00  0.00    -0.061 N 
HETATM    9  H   UNL     1      43.357 -15.746   7.274  1.00  0.00     0.280 HD
HETATM   10  C   UNL     1      42.984 -16.394   5.328  1.00  0.00     0.255 C 
HETATM   11  C   UNL     1      42.429 -17.782   5.733  1.00  0.00     0.152 C 
HETATM   12  N   UNL     1      43.491 -18.739   6.133  1.00  0.00    -0.364 N 
HETATM   13  C   UNL     1      44.458 -18.216   7.131  1.00  0.00     0.152 C 
HETATM   14  C   UNL     1      45.040 -16.843   6.710  1.00  0.00     0.255 C 
BRANCH  12  15
HETATM   15  C   UNL     1      43.953 -19.678   5.229  1.00  0.00     0.102 A 
HETATM   16  N   UNL     1      44.346 -20.870   5.717  1.00  0.00    -0.352 N 
HETATM   17  H   UNL     1      44.239 -21.022   6.717  1.00  0.00     0.166 HD
HETATM   18  C   UNL     1      44.793 -21.884   4.959  1.00  0.00     0.089 A 
HETATM   19  C   UNL     1      44.866 -21.738   3.583  1.00  0.00     0.017 A 
HETATM   20  C   UNL     1      44.456 -20.539   3.019  1.00  0.00     0.005 A 
HETATM   21  C   UNL     1      43.990 -19.510   3.838  1.00  0.00     0.048 A 
ENDBRANCH  12  15
ENDBRANCH   7   8
ENDBRANCH   5   7
BRANCH   3  22
HETATM   22  N   UNL     1      47.699 -11.481   7.800  1.00  0.00    -0.270 NA
HETATM   23  H   UNL     1      47.601 -10.874   6.991  1.00  0.00     0.127 HD
HETATM   24  H   UNL     1      47.981 -11.005   8.646  1.00  0.00     0.127 HD
ENDBRANCH   3  22
BRANCH   1  25
HETATM   25  N   UNL     1      43.899 -12.439  10.348  1.00  0.00    -0.185 N 
HETATM   26  H   UNL     1      44.065 -13.150  11.052  1.00  0.00     0.184 HD
BRANCH  25  27
HETATM   27  C   UNL     1      43.359 -11.256  10.896  1.00  0.00     0.085 A 
HETATM   28  C   UNL     1      43.577 -10.886  12.229  1.00  0.00     0.069 A 
HETATM   29  C   UNL     1      43.056  -9.697  12.747  1.00  0.00     0.070 A 
HETATM   30  C   UNL     1      42.291  -8.873  11.926  1.00  0.00     0.039 A 
HETATM   31  C   UNL     1      42.054  -9.230  10.593  1.00  0.00     0.042 A 
HETATM   32  C   UNL     1      42.581 -10.414  10.075  1.00  0.00     0.095 A 
BRANCH  29  33
HETATM   33  O   UNL     1      43.379  -9.459  14.055  1.00  0.00    -0.356 OA
HETATM   34  C   UNL     1      42.367  -9.714  15.024  1.00  0.00     0.210 C 
ENDBRANCH  29  33
BRANCH  32  35
HETATM   35  O   UNL     1      42.410 -10.857   8.782  1.00  0.00    -0.354 OA
HETATM   36  C   UNL     1      41.473 -10.134   7.984  1.00  0.00     0.210 C 
ENDBRANCH  32  35
ENDBRANCH  25  27
ENDBRANCH   1  25
TORSDOF 8
ENDMDL
MODEL 2
REMARK VINA RESULT:      -8.6      2.921      4.217
REMARK  8 active torsions:
REMARK  status: ('A' for Active; 'I' for Inactive)
REMARK    1  A    between atoms: O_2  and  C_3 
REMARK    2  A    between atoms: C_5  and  N_6 
REMARK    3  A    between atoms: N_6  and  C_7 
REMARK    4  A    between atoms: C_9  and  N_10 
REMARK    5  A    between atoms: C_12  and  C_13 
REMARK    6  A    between atoms: C_13  and  N_14 
REMARK    7  A    between atoms: N_18  and  C_19 
REMARK    8  A    between atoms: C_29  and  O_30 
ROOT
HETATM    1  C   UNL     1      44.699 -12.545   9.399  1.00  0.00     0.731 A 
HETATM    2  N   UNL     1      45.785 -11.818   9.168  1.00  0.00    -0.031 NA
HETATM    3  C   UNL     1      46.480 -12.100   8.083  1.00  0.00     0.219 A 
HETATM    4  N   UNL     1      46.127 -13.001   7.183  1.00  0.00    -0.200 NA
HETATM    5  C   UNL     1      45.009 -13.666   7.465  1.00  0.00     0.174 A 
HETATM    6  N   UNL     1      44.257 -13.471   8.548  1.00  0.00    -0.045 NA
ENDROOT
BRANCH   5   7
HETATM    7  C   UNL     1      44.395 -14.472   6.337  1.00  0.00     0.316 C 
BRANCH   7   8
HETATM    8  N   UNL     1      42.852 -14.409   6.246  1.00  0.00    -0.061 N 
HETATM    9  H   UNL     1      42.527 -14.464   7.219  1.00  0.00     0.280 HD
HETATM   10  C   UNL     1      42.361 -13.085   5.666  1.00  0.00     0.255 C 
HETATM   11  C   UNL     1      40.813 -13.042   5.664  1.00  0.00     0.152 C 
HETATM   12  N   UNL     1      40.199 -14.235   5.028  1.00  0.00    -0.364 N 
HETATM   13  C   UNL     1      40.718 -15.538   5.515  1.00  0.00     0.152 C 
HETATM   14  C   UNL     1      42.266 -15.594   5.485  1.00  0.00     0.255 C 
BRANCH  12  15
HETATM   15  C   UNL     1      39.762 -14.172   3.717  1.00  0.00     0.102 A 
HETATM   16  N   UNL     1      39.587 -15.337   3.063  1.00  0.00    -0.352 N 
HETATM   17  H   UNL     1      39.746 -16.193   3.588  1.00  0.00     0.166 HD
HETATM   18  C   UNL     1      39.146 -15.431   1.799  1.00  0.00     0.089 A 
HETATM   19  C   UNL     1      38.835 -14.284   1.087  1.00  0.00     0.017 A 
HETATM   20  C   UNL     1      38.976 -13.054   1.714  1.00  0.00     0.005 A 
HETATM   21  C   UNL     1      39.431 -12.996   3.032  1.00  0.00     0.048 A 
ENDBRANCH  12  15
ENDBRANCH   7   8
ENDBRANCH   5   7
BRANCH   3  22
HETATM   22  N   UNL     1      47.617 -11.361   7.839  1.00  0.00    -0.270 NA
HETATM   23  H   UNL     1      47.584 -10.995   6.892  1.00  0.00     0.127 HD
HETATM   24  H   UNL     1      47.764 -10.659   8.552  1.00  0.00     0.127 HD
ENDBRANCH   3  22
BRANCH   1  25
HETATM   25  N   UNL     1      43.933 -12.349  10.542  1.00  0.00    -0.185 N 
HETATM   26  H   UNL     1      44.140 -13.034  11.261  1.00  0.00     0.184 HD
BRANCH  25  27
HETATM   27  C   UNL     1      43.379 -11.164  11.072  1.00  0.00     0.085 A 
HETATM   28  C   UNL     1      43.640 -10.742  12.383  1.00  0.00     0.069 A 
HETATM   29  C   UNL     1      43.104  -9.553  12.882  1.00  0.00     0.070 A 
HETATM   30  C   UNL     1      42.280  -8.781  12.067  1.00  0.00     0.039 A 
HETATM   31  C   UNL     1      42.000  -9.189  10.758  1.00  0.00     0.042 A 
HETATM   32  C   UNL     1      42.542 -10.375  10.257  1.00  0.00     0.095 A 
BRANCH  29  33
HETATM   33  O   UNL     1      43.472  -9.260  14.167  1.00  0.00    -0.356 OA
HETATM   34  C   UNL     1      42.449  -9.307  15.156  1.00  0.00     0.210 C 
ENDBRANCH  29  33
BRANCH  32  35
HETATM   35  O   UNL     1      42.333 -10.866   8.988  1.00  0.00    -0.354 OA
HETATM   36  C   UNL     1      41.632 -10.012   8.086  1.00  0.00     0.210 C 
ENDBRANCH  32  35
ENDBRANCH  25  27
ENDBRANCH   1  25
TORSDOF 8
ENDMDL
MODEL 3
REMARK VINA RESULT:      -8.6      3.028     10.035
REMARK  8 active torsions:
REMARK  status: ('A' for Active; 'I' for Inactive)
REMARK    1  A    between atoms: O_2  and  C_3 
REMARK    2  A    between atoms: C_5  and  N_6 
REMARK    3  A    between atoms: N_6  and  C_7 
REMARK    4  A    between atoms: C_9  and  N_10 
REMARK    5  A    between atoms: C_12  and  C_13 
REMARK    6  A    between atoms: C_13  and  N_14 
REMARK    7  A    between atoms: N_18  and  C_19 
REMARK    8  A    between atoms: C_29  and  O_30 
ROOT
HETATM    1  C   UNL     1      43.052 -15.895   5.355  1.00  0.00     0.731 A 
HETATM    2  N   UNL     1      42.974 -15.148   4.260  1.00  0.00    -0.031 NA
HETATM    3  C   UNL     1      43.415 -13.908   4.342  1.00  0.00     0.219 A 
HETATM    4  N   UNL     1      43.990 -13.389   5.413  1.00  0.00    -0.200 NA
HETATM    5  C   UNL     1      44.063 -14.207   6.461  1.00  0.00     0.174 A 
HETATM    6  N   UNL     1      43.621 -15.464   6.481  1.00  0.00    -0.045 NA
ENDROOT
BRANCH   5   7
HETATM    7  C   UNL     1      44.981 -13.782   7.591  1.00  0.00     0.316 C 
BRANCH   7   8
HETATM    8  N   UNL     1      44.696 -12.379   8.179  1.00  0.00    -0.061 N 
HETATM    9  H   UNL     1      45.080 -11.721   7.490  1.00  0.00     0.280 HD
HETATM   10  C   UNL     1      43.201 -12.100   8.308  1.00  0.00     0.255 C 
HETATM   11  C   UNL     1      42.968 -10.661   8.830  1.00  0.00     0.152 C 
HETATM   12  N   UNL     1      43.740 -10.358  10.062  1.00  0.00    -0.364 N 
HETATM   13  C   UNL     1      45.183 -10.696   9.994  1.00  0.00     0.152 C 
HETATM   14  C   UNL     1      45.416 -12.148   9.504  1.00  0.00     0.255 C 
BRANCH  12  15
HETATM   15  C   UNL     1      43.125 -10.432  11.299  1.00  0.00     0.102 A 
HETATM   16  N   UNL     1      42.027 -11.206  11.403  1.00  0.00    -0.352 N 
HETATM   17  H   UNL     1      41.743 -11.723  10.574  1.00  0.00     0.166 HD
HETATM   18  C   UNL     1      41.342 -11.392  12.542  1.00  0.00     0.089 A 
HETATM   19  C   UNL     1      41.758 -10.771  13.708  1.00  0.00     0.017 A 
HETATM   20  C   UNL     1      42.894  -9.976  13.670  1.00  0.00     0.005 A 
HETATM   21  C   UNL     1      43.585  -9.812  12.468  1.00  0.00     0.048 A 
ENDBRANCH  12  15
ENDBRANCH   7   8
ENDBRANCH   5   7
BRANCH   3  22
HETATM   22  N   UNL     1      43.327 -13.120   3.216  1.00  0.00    -0.270 NA
HETATM   23  H   UNL     1      43.455 -13.698   2.390  1.00  0.00     0.127 HD
HETATM   24  H   UNL     1      42.478 -12.570   3.212  1.00  0.00     0.127 HD
ENDBRANCH   3  22
BRANCH   1  25
HETATM   25  N   UNL     1      42.569 -17.197   5.373  1.00  0.00    -0.185 N 
HETATM   26  H   UNL     1      41.590 -17.243   5.108  1.00  0.00     0.184 HD
BRANCH  25  27
HETATM   27  C   UNL     1      43.241 -18.419   5.161  1.00  0.00     0.085 A 
HETATM   28  C   UNL     1      43.579 -18.870   3.878  1.00  0.00     0.069 A 
HETATM   29  C   UNL     1      44.269 -20.070   3.689  1.00  0.00     0.070 A 
HETATM   30  C   UNL     1      44.612 -20.841   4.797  1.00  0.00     0.039 A 
HETATM   31  C   UNL     1      44.276 -20.413   6.086  1.00  0.00     0.042 A 
HETATM   32  C   UNL     1      43.592 -19.209   6.274  1.00  0.00     0.095 A 
BRANCH  29  33
HETATM   33  O   UNL     1      44.553 -20.362   2.383  1.00  0.00    -0.356 OA
HETATM   34  C   UNL     1      43.998 -21.562   1.855  1.00  0.00     0.210 C 
ENDBRANCH  29  33
BRANCH  32  35
HETATM   35  O   UNL     1      43.216 -18.697   7.496  1.00  0.00    -0.354 OA
HETATM   36  C   UNL     1      44.251 -18.548   8.466  1.00  0.00     0.210 C 
ENDBRANCH  32  35
ENDBRANCH  25  27
ENDBRANCH   1  25
TORSDOF 8
ENDMDL
MODEL 4
REMARK VINA RESULT:      -8.5      6.580     10.898
REMARK  8 active torsions:
REMARK  status: ('A' for Active; 'I' for Inactive)
REMARK    1  A    between atoms: O_2  and  C_3 
REMARK    2  A    between atoms: C_5  and  N_6 
REMARK    3  A    between atoms: N_6  and  C_7 
REMARK    4  A    between atoms: C_9  and  N_10 
REMARK    5  A    between atoms: C_12  and  C_13 
REMARK    6  A    between atoms: C_13  and  N_14 
REMARK    7  A    between atoms: N_18  and  C_19 
REMARK    8  A    between atoms: C_29  and  O_30 
ROOT
HETATM    1  C   UNL     1      43.139 -17.440   4.169  1.00  0.00     0.731 A 
HETATM    2  N   UNL     1      42.708 -16.842   5.273  1.00  0.00    -0.031 NA
HETATM    3  C   UNL     1      41.651 -16.062   5.163  1.00  0.00     0.219 A 
HETATM    4  N   UNL     1      40.955 -15.898   4.051  1.00  0.00    -0.200 NA
HETATM    5  C   UNL     1      41.427 -16.555   2.994  1.00  0.00     0.174 A 
HETATM    6  N   UNL     1      42.503 -17.341   3.002  1.00  0.00    -0.045 NA
ENDROOT
BRANCH   5   7
HETATM    7  C   UNL     1      40.508 -16.657   1.793  1.00  0.00     0.316 C 
BRANCH   7   8
HETATM    8  N   UNL     1      40.430 -15.387   0.913  1.00  0.00    -0.061 N 
HETATM    9  H   UNL     1      41.095 -14.730   1.338  1.00  0.00     0.280 HD
HETATM   10  C   UNL     1      40.883 -15.648  -0.520  1.00  0.00     0.255 C 
HETATM   11  C   UNL     1      40.857 -14.333  -1.338  1.00  0.00     0.152 C 
HETATM   12  N   UNL     1      39.559 -13.617  -1.245  1.00  0.00    -0.364 N 
HETATM   13  C   UNL     1      39.052 -13.421   0.136  1.00  0.00     0.152 C 
HETATM   14  C   UNL     1      39.046 -14.743   0.944  1.00  0.00     0.255 C 
BRANCH  12  15
HETATM   15  C   UNL     1      38.623 -13.746  -2.256  1.00  0.00     0.102 A 
HETATM   16  N   UNL     1      38.305 -14.993  -2.653  1.00  0.00    -0.352 N 
HETATM   17  H   UNL     1      38.740 -15.765  -2.155  1.00  0.00     0.166 HD
HETATM   18  C   UNL     1      37.399 -15.272  -3.603  1.00  0.00     0.089 A 
HETATM   19  C   UNL     1      36.723 -14.243  -4.238  1.00  0.00     0.017 A 
HETATM   20  C   UNL     1      36.994 -12.936  -3.859  1.00  0.00     0.005 A 
HETATM   21  C   UNL     1      37.937 -12.685  -2.861  1.00  0.00     0.048 A 
ENDBRANCH  12  15
ENDBRANCH   7   8
ENDBRANCH   5   7
BRANCH   3  22
HETATM   22  N   UNL     1      41.202 -15.426   6.300  1.00  0.00    -0.270 NA
HETATM   23  H   UNL     1      41.276 -16.058   7.092  1.00  0.00     0.127 HD
HETATM   24  H   UNL     1      41.662 -14.535   6.434  1.00  0.00     0.127 HD
ENDBRANCH   3  22
BRANCH   1  25
HETATM   25  N   UNL     1      44.274 -18.241   4.182  1.00  0.00    -0.185 N 
HETATM   26  H   UNL     1      45.082 -17.750   4.550  1.00  0.00     0.184 HD
BRANCH  25  27
HETATM   27  C   UNL     1      44.397 -19.642   4.301  1.00  0.00     0.085 A 
HETATM   28  C   UNL     1      44.386 -20.488   3.184  1.00  0.00     0.069 A 
HETATM   29  C   UNL     1      44.536 -21.870   3.319  1.00  0.00     0.070 A 
HETATM   30  C   UNL     1      44.681 -22.419   4.591  1.00  0.00     0.039 A 
HETATM   31  C   UNL     1      44.684 -21.592   5.720  1.00  0.00     0.042 A 
HETATM   32  C   UNL     1      44.542 -20.209   5.583  1.00  0.00     0.095 A 
BRANCH  29  33
HETATM   33  O   UNL     1      44.535 -22.559   2.138  1.00  0.00    -0.356 OA
HETATM   34  C   UNL     1      43.832 -21.970   1.049  1.00  0.00     0.210 C 
ENDBRANCH  29  33
BRANCH  32  35
HETATM   35  O   UNL     1      44.534 -19.308   6.624  1.00  0.00    -0.354 OA
HETATM   36  C   UNL     1      43.659 -19.605   7.711  1.00  0.00     0.210 C 
ENDBRANCH  32  35
ENDBRANCH  25  27
ENDBRANCH   1  25
TORSDOF 8
ENDMDL
MODEL 5
REMARK VINA RESULT:      -8.5      2.511      3.578
REMARK  8 active torsions:
REMARK  status: ('A' for Active; 'I' for Inactive)
REMARK    1  A    between atoms: O_2  and  C_3 
REMARK    2  A    between atoms: C_5  and  N_6 
REMARK    3  A    between atoms: N_6  and  C_7 
REMARK    4  A    between atoms: C_9  and  N_10 
REMARK    5  A    between atoms: C_12  and  C_13 
REMARK    6  A    between atoms: C_13  and  N_14 
REMARK    7  A    between atoms: N_18  and  C_19 
REMARK    8  A    between atoms: C_29  and  O_30 
ROOT
HETATM    1  C   UNL     1      41.804 -11.298   7.363  1.00  0.00     0.731 A 
HETATM    2  N   UNL     1      40.505 -11.369   7.096  1.00  0.00    -0.031 NA
HETATM    3  C   UNL     1      40.130 -12.198   6.142  1.00  0.00     0.219 A 
HETATM    4  N   UNL     1      40.947 -13.009   5.493  1.00  0.00    -0.200 NA
HETATM    5  C   UNL     1      42.229 -12.907   5.839  1.00  0.00     0.174 A 
HETATM    6  N   UNL     1      42.705 -12.080   6.768  1.00  0.00    -0.045 NA
ENDROOT
BRANCH   5   7
HETATM    7  C   UNL     1      43.150 -14.015   5.365  1.00  0.00     0.316 C 
BRANCH   7   8
HETATM    8  N   UNL     1      42.456 -15.166   4.599  1.00  0.00    -0.061 N 
HETATM    9  H   UNL     1      41.498 -14.833   4.433  1.00  0.00     0.280 HD
HETATM   10  C   UNL     1      43.102 -15.429   3.242  1.00  0.00     0.255 C 
HETATM   11  C   UNL     1      42.327 -16.536   2.486  1.00  0.00     0.152 C 
HETATM   12  N   UNL     1      42.128 -17.764   3.298  1.00  0.00    -0.364 N 
HETATM   13  C   UNL     1      41.577 -17.531   4.656  1.00  0.00     0.152 C 
HETATM   14  C   UNL     1      42.372 -16.446   5.426  1.00  0.00     0.255 C 
BRANCH  12  15
HETATM   15  C   UNL     1      42.968 -18.850   3.127  1.00  0.00     0.102 A 
HETATM   16  N   UNL     1      43.786 -19.169   4.148  1.00  0.00    -0.352 N 
HETATM   17  H   UNL     1      43.705 -18.618   4.999  1.00  0.00     0.166 HD
HETATM   18  C   UNL     1      44.635 -20.209   4.135  1.00  0.00     0.089 A 
HETATM   19  C   UNL     1      44.704 -21.032   3.023  1.00  0.00     0.017 A 
HETATM   20  C   UNL     1      43.871 -20.765   1.946  1.00  0.00     0.005 A 
HETATM   21  C   UNL     1      42.995 -19.680   1.999  1.00  0.00     0.048 A 
ENDBRANCH  12  15
ENDBRANCH   7   8
ENDBRANCH   5   7
BRANCH   3  22
HETATM   22  N   UNL     1      38.787 -12.270   5.846  1.00  0.00    -0.270 NA
HETATM   23  H   UNL     1      38.664 -12.274   4.838  1.00  0.00     0.127 HD
HETATM   24  H   UNL     1      38.341 -13.042   6.323  1.00  0.00     0.127 HD
ENDBRANCH   3  22
BRANCH   1  25
HETATM   25  N   UNL     1      42.294 -10.418   8.319  1.00  0.00    -0.185 N 
HETATM   26  H   UNL     1      42.053  -9.455   8.108  1.00  0.00     0.184 HD
BRANCH  25  27
HETATM   27  C   UNL     1      42.553 -10.618   9.692  1.00  0.00     0.085 A 
HETATM   28  C   UNL     1      41.526 -10.684  10.642  1.00  0.00     0.069 A 
HETATM   29  C   UNL     1      41.800 -10.909  11.994  1.00  0.00     0.070 A 
HETATM   30  C   UNL     1      43.123 -11.054  12.406  1.00  0.00     0.039 A 
HETATM   31  C   UNL     1      44.164 -10.983  11.474  1.00  0.00     0.042 A 
HETATM   32  C   UNL     1      43.888 -10.764  10.122  1.00  0.00     0.095 A 
BRANCH  29  33
HETATM   33  O   UNL     1      40.693 -10.977  12.794  1.00  0.00    -0.356 OA
HETATM   34  C   UNL     1      39.562 -10.210  12.394  1.00  0.00     0.210 C 
ENDBRANCH  29  33
BRANCH  32  35
HETATM   35  O   UNL     1      44.835 -10.679   9.125  1.00  0.00    -0.354 OA
HETATM   36  C   UNL     1      45.677 -11.816   8.954  1.00  0.00     0.210 C 
ENDBRANCH  32  35
ENDBRANCH  25  27
ENDBRANCH   1  25
TORSDOF 8
ENDMDL
MODEL 6
REMARK VINA RESULT:      -8.5      6.067      9.721
REMARK  8 active torsions:
REMARK  status: ('A' for Active; 'I' for Inactive)
REMARK    1  A    between atoms: O_2  and  C_3 
REMARK    2  A    between atoms: C_5  and  N_6 
REMARK    3  A    between atoms: N_6  and  C_7 
REMARK    4  A    between atoms: C_9  and  N_10 
REMARK    5  A    between atoms: C_12  and  C_13 
REMARK    6  A    between atoms: C_13  and  N_14 
REMARK    7  A    between atoms: N_18  and  C_19 
REMARK    8  A    between atoms: C_29  and  O_30 
ROOT
HETATM    1  C   UNL     1      41.283 -16.222   4.941  1.00  0.00     0.731 A 
HETATM    2  N   UNL     1      40.558 -15.547   5.825  1.00  0.00    -0.031 NA
HETATM    3  C   UNL     1      40.509 -14.236   5.689  1.00  0.00     0.219 A 
HETATM    4  N   UNL     1      41.069 -13.566   4.698  1.00  0.00    -0.200 NA
HETATM    5  C   UNL     1      41.750 -14.313   3.832  1.00  0.00     0.174 A 
HETATM    6  N   UNL     1      41.879 -15.637   3.902  1.00  0.00    -0.045 NA
ENDROOT
BRANCH   5   7
HETATM    7  C   UNL     1      42.139 -13.652   2.523  1.00  0.00     0.316 C 
BRANCH   7   8
HETATM    8  N   UNL     1      40.959 -13.310   1.582  1.00  0.00    -0.061 N 
HETATM    9  H   UNL     1      40.471 -12.533   2.043  1.00  0.00     0.280 HD
HETATM   10  C   UNL     1      41.433 -12.819   0.217  1.00  0.00     0.255 C 
HETATM   11  C   UNL     1      40.220 -12.422  -0.660  1.00  0.00     0.152 C 
HETATM   12  N   UNL     1      39.184 -13.483  -0.735  1.00  0.00    -0.364 N 
HETATM   13  C   UNL     1      38.763 -14.038   0.576  1.00  0.00     0.152 C 
HETATM   14  C   UNL     1      39.975 -14.468   1.440  1.00  0.00     0.255 C 
BRANCH  12  15
HETATM   15  C   UNL     1      39.137 -14.327  -1.830  1.00  0.00     0.102 A 
HETATM   16  N   UNL     1      37.944 -14.498  -2.432  1.00  0.00    -0.352 N 
HETATM   17  H   UNL     1      37.160 -13.962  -2.070  1.00  0.00     0.166 HD
HETATM   18  C   UNL     1      37.752 -15.266  -3.516  1.00  0.00     0.089 A 
HETATM   19  C   UNL     1      38.820 -15.939  -4.085  1.00  0.00     0.017 A 
HETATM   20  C   UNL     1      40.078 -15.787  -3.521  1.00  0.00     0.005 A 
HETATM   21  C   UNL     1      40.242 -14.974  -2.399  1.00  0.00     0.048 A 
ENDBRANCH  12  15
ENDBRANCH   7   8
ENDBRANCH   5   7
BRANCH   3  22
HETATM   22  N   UNL     1      39.771 -13.523   6.609  1.00  0.00    -0.270 NA
HETATM   23  H   UNL     1      39.451 -12.657   6.185  1.00  0.00     0.127 HD
HETATM   24  H   UNL     1      39.034 -14.087   7.011  1.00  0.00     0.127 HD
ENDBRANCH   3  22
BRANCH   1  25
HETATM   25  N   UNL     1      41.430 -17.600   5.035  1.00  0.00    -0.185 N 
HETATM   26  H   UNL     1      40.614 -18.094   4.690  1.00  0.00     0.184 HD
BRANCH  25  27
HETATM   27  C   UNL     1      42.596 -18.395   4.996  1.00  0.00     0.085 A 
HETATM   28  C   UNL     1      43.097 -18.922   3.799  1.00  0.00     0.069 A 
HETATM   29  C   UNL     1      44.267 -19.685   3.775  1.00  0.00     0.070 A 
HETATM   30  C   UNL     1      44.939 -19.940   4.969  1.00  0.00     0.039 A 
HETATM   31  C   UNL     1      44.449 -19.430   6.176  1.00  0.00     0.042 A 
HETATM   32  C   UNL     1      43.283 -18.661   6.198  1.00  0.00     0.095 A 
BRANCH  29  33
HETATM   33  O   UNL     1      44.646 -20.105   2.530  1.00  0.00    -0.356 OA
HETATM   34  C   UNL     1      44.438 -21.479   2.222  1.00  0.00     0.210 C 
ENDBRANCH  29  33
BRANCH  32  35
HETATM   35  O   UNL     1      42.718 -18.112   7.327  1.00  0.00    -0.354 OA
HETATM   36  C   UNL     1      43.440 -17.047   7.942  1.00  0.00     0.210 C 
ENDBRANCH  32  35
ENDBRANCH  25  27
ENDBRANCH   1  25
TORSDOF 8
ENDMDL
MODEL 7
REMARK VINA RESULT:      -8.4      2.868      4.208
REMARK  8 active torsions:
REMARK  status: ('A' for Active; 'I' for Inactive)
REMARK    1  A    between atoms: O_2  and  C_3 
REMARK    2  A    between atoms: C_5  and  N_6 
REMARK    3  A    between atoms: N_6  and  C_7 
REMARK    4  A    between atoms: C_9  and  N_10 
REMARK    5  A    between atoms: C_12  and  C_13 
REMARK    6  A    between atoms: C_13  and  N_14 
REMARK    7  A    between atoms: N_18  and  C_19 
REMARK    8  A    between atoms: C_29  and  O_30 
ROOT
HETATM    1  C   UNL     1      40.636 -11.082   7.435  1.00  0.00     0.731 A 
HETATM    2  N   UNL     1      39.476 -10.901   6.815  1.00  0.00    -0.031 NA
HETATM    3  C   UNL     1      39.374 -11.358   5.583  1.00  0.00     0.219 A 
HETATM    4  N   UNL     1      40.316 -12.043   4.958  1.00  0.00    -0.200 NA
HETATM    5  C   UNL     1      41.437 -12.215   5.655  1.00  0.00     0.174 A 
HETATM    6  N   UNL     1      41.644 -11.766   6.892  1.00  0.00    -0.045 NA
ENDROOT
BRANCH   5   7
HETATM    7  C   UNL     1      42.415 -13.246   5.124  1.00  0.00     0.316 C 
BRANCH   7   8
HETATM    8  N   UNL     1      41.858 -14.685   5.013  1.00  0.00    -0.061 N 
HETATM    9  H   UNL     1      40.914 -14.635   5.415  1.00  0.00     0.280 HD
HETATM   10  C   UNL     1      41.725 -15.142   3.563  1.00  0.00     0.255 C 
HETATM   11  C   UNL     1      41.096 -16.556   3.503  1.00  0.00     0.152 C 
HETATM   12  N   UNL     1      41.790 -17.538   4.376  1.00  0.00    -0.364 N 
HETATM   13  C   UNL     1      42.008 -17.086   5.773  1.00  0.00     0.152 C 
HETATM   14  C   UNL     1      42.667 -15.686   5.833  1.00  0.00     0.255 C 
BRANCH  12  15
HETATM   15  C   UNL     1      42.718 -18.409   3.835  1.00  0.00     0.102 A 
HETATM   16  N   UNL     1      43.600 -18.980   4.677  1.00  0.00    -0.352 N 
HETATM   17  H   UNL     1      43.502 -18.768   5.667  1.00  0.00     0.166 HD
HETATM   18  C   UNL     1      44.540 -19.861   4.300  1.00  0.00     0.089 A 
HETATM   19  C   UNL     1      44.641 -20.238   2.971  1.00  0.00     0.017 A 
HETATM   20  C   UNL     1      43.747 -19.699   2.057  1.00  0.00     0.005 A 
HETATM   21  C   UNL     1      42.778 -18.791   2.488  1.00  0.00     0.048 A 
ENDBRANCH  12  15
ENDBRANCH   7   8
ENDBRANCH   5   7
BRANCH   3  22
HETATM   22  N   UNL     1      38.179 -11.163   4.924  1.00  0.00    -0.270 NA
HETATM   23  H   UNL     1      38.218 -11.617   4.015  1.00  0.00     0.127 HD
HETATM   24  H   UNL     1      37.391 -11.439   5.494  1.00  0.00     0.127 HD
ENDBRANCH   3  22
BRANCH   1  25
HETATM   25  N   UNL     1      40.850 -10.592   8.717  1.00  0.00    -0.185 N 
HETATM   26  H   UNL     1      39.984 -10.493   9.236  1.00  0.00     0.184 HD
BRANCH  25  27
HETATM   27  C   UNL     1      41.972 -10.719   9.564  1.00  0.00     0.085 A 
HETATM   28  C   UNL     1      43.284 -10.649   9.078  1.00  0.00     0.069 A 
HETATM   29  C   UNL     1      44.382 -10.751   9.935  1.00  0.00     0.070 A 
HETATM   30  C   UNL     1      44.168 -10.943  11.298  1.00  0.00     0.039 A 
HETATM   31  C   UNL     1      42.865 -11.025  11.802  1.00  0.00     0.042 A 
HETATM   32  C   UNL     1      41.768 -10.916  10.945  1.00  0.00     0.095 A 
BRANCH  29  33
HETATM   33  O   UNL     1      45.597 -10.635   9.317  1.00  0.00    -0.356 OA
HETATM   34  C   UNL     1      46.110 -11.800   8.680  1.00  0.00     0.210 C 
ENDBRANCH  29  33
BRANCH  32  35
HETATM   35  O   UNL     1      40.449 -10.980  11.337  1.00  0.00    -0.354 OA
HETATM   36  C   UNL     1      40.188 -11.636  12.576  1.00  0.00     0.210 C 
ENDBRANCH  32  35
ENDBRANCH  25  27
ENDBRANCH   1  25
TORSDOF 8
ENDMDL
MODEL 8
REMARK VINA RESULT:      -8.4      6.405      9.978
REMARK  8 active torsions:
REMARK  status: ('A' for Active; 'I' for Inactive)
REMARK    1  A    between atoms: O_2  and  C_3 
REMARK    2  A    between atoms: C_5  and  N_6 
REMARK    3  A    between atoms: N_6  and  C_7 
REMARK    4  A    between atoms: C_9  and  N_10 
REMARK    5  A    between atoms: C_12  and  C_13 
REMARK    6  A    between atoms: C_13  and  N_14 
REMARK    7  A    between atoms: N_18  and  C_19 
REMARK    8  A    between atoms: C_29  and  O_30 
ROOT
HETATM    1  C   UNL     1      42.518 -16.013   4.194  1.00  0.00     0.731 A 
HETATM    2  N   UNL     1      41.733 -16.642   5.060  1.00  0.00    -0.031 NA
HETATM    3  C   UNL     1      40.770 -15.940   5.623  1.00  0.00     0.219 A 
HETATM    4  N   UNL     1      40.493 -14.681   5.329  1.00  0.00    -0.200 NA
HETATM    5  C   UNL     1      41.301 -14.127   4.427  1.00  0.00     0.174 A 
HETATM    6  N   UNL     1      42.315 -14.747   3.827  1.00  0.00    -0.045 NA
ENDROOT
BRANCH   5   7
HETATM    7  C   UNL     1      40.845 -12.812   3.825  1.00  0.00     0.316 C 
BRANCH   7   8
HETATM    8  N   UNL     1      39.798 -12.933   2.692  1.00  0.00    -0.061 N 
HETATM    9  H   UNL     1      38.938 -12.530   3.083  1.00  0.00     0.280 HD
HETATM   10  C   UNL     1      40.180 -12.114   1.463  1.00  0.00     0.255 C 
HETATM   11  C   UNL     1      39.068 -12.210   0.389  1.00  0.00     0.152 C 
HETATM   12  N   UNL     1      38.680 -13.610   0.077  1.00  0.00    -0.364 N 
HETATM   13  C   UNL     1      38.383 -14.454   1.261  1.00  0.00     0.152 C 
HETATM   14  C   UNL     1      39.511 -14.385   2.320  1.00  0.00     0.255 C 
BRANCH  12  15
HETATM   15  C   UNL     1      39.200 -14.238  -1.041  1.00  0.00     0.102 A 
HETATM   16  N   UNL     1      38.380 -14.411  -2.095  1.00  0.00    -0.352 N 
HETATM   17  H   UNL     1      37.441 -14.029  -2.020  1.00  0.00     0.166 HD
HETATM   18  C   UNL     1      38.751 -14.981  -3.252  1.00  0.00     0.089 A 
HETATM   19  C   UNL     1      40.051 -15.430  -3.416  1.00  0.00     0.017 A 
HETATM   20  C   UNL     1      40.949 -15.263  -2.372  1.00  0.00     0.005 A 
HETATM   21  C   UNL     1      40.529 -14.658  -1.186  1.00  0.00     0.048 A 
ENDBRANCH  12  15
ENDBRANCH   7   8
ENDBRANCH   5   7
BRANCH   3  22
HETATM   22  N   UNL     1      39.958 -16.579   6.534  1.00  0.00    -0.270 NA
HETATM   23  H   UNL     1      40.468 -16.717   7.402  1.00  0.00     0.127 HD
HETATM   24  H   UNL     1      39.073 -16.101   6.642  1.00  0.00     0.127 HD
ENDBRANCH   3  22
BRANCH   1  25
HETATM   25  N   UNL     1      43.587 -16.662   3.590  1.00  0.00    -0.185 N 
HETATM   26  H   UNL     1      44.466 -16.183   3.755  1.00  0.00     0.184 HD
BRANCH  25  27
HETATM   27  C   UNL     1      43.768 -18.029   3.290  1.00  0.00     0.085 A 
HETATM   28  C   UNL     1      44.396 -18.910   4.180  1.00  0.00     0.069 A 
HETATM   29  C   UNL     1      44.543 -20.266   3.878  1.00  0.00     0.070 A 
HETATM   30  C   UNL     1      44.071 -20.748   2.660  1.00  0.00     0.039 A 
HETATM   31  C   UNL     1      43.449 -19.883   1.753  1.00  0.00     0.042 A 
HETATM   32  C   UNL     1      43.296 -18.529   2.059  1.00  0.00     0.095 A 
BRANCH  29  33
HETATM   33  O   UNL     1      45.150 -21.003   4.858  1.00  0.00    -0.356 OA
HETATM   34  C   UNL     1      44.869 -22.399   4.880  1.00  0.00     0.210 C 
ENDBRANCH  29  33
BRANCH  32  35
HETATM   35  O   UNL     1      42.699 -17.595   1.241  1.00  0.00    -0.354 OA
HETATM   36  C   UNL     1      41.277 -17.649   1.152  1.00  0.00     0.210 C 
ENDBRANCH  32  35
ENDBRANCH  25  27
ENDBRANCH   1  25
TORSDOF 8
ENDMDL
MODEL 9
REMARK VINA RESULT:      -8.3      2.630      3.092
REMARK  8 active torsions:
REMARK  status: ('A' for Active; 'I' for Inactive)
REMARK    1  A    between atoms: O_2  and  C_3 
REMARK    2  A    between atoms: C_5  and  N_6 
REMARK    3  A    between atoms: N_6  and  C_7 
REMARK    4  A    between atoms: C_9  and  N_10 
REMARK    5  A    between atoms: C_12  and  C_13 
REMARK    6  A    between atoms: C_13  and  N_14 
REMARK    7  A    between atoms: N_18  and  C_19 
REMARK    8  A    between atoms: C_29  and  O_30 
ROOT
HETATM    1  C   UNL     1      44.363 -11.270   9.140  1.00  0.00     0.731 A 
HETATM    2  N   UNL     1      45.601 -10.871   8.871  1.00  0.00    -0.031 NA
HETATM    3  C   UNL     1      46.424 -11.764   8.359  1.00  0.00     0.219 A 
HETATM    4  N   UNL     1      46.080 -12.997   8.031  1.00  0.00    -0.200 NA
HETATM    5  C   UNL     1      44.815 -13.315   8.298  1.00  0.00     0.174 A 
HETATM    6  N   UNL     1      43.919 -12.491   8.839  1.00  0.00    -0.045 NA
ENDROOT
BRANCH   5   7
HETATM    7  C   UNL     1      44.287 -14.587   7.663  1.00  0.00     0.316 C 
BRANCH   7   8
HETATM    8  N   UNL     1      43.305 -14.377   6.485  1.00  0.00    -0.061 N 
HETATM    9  H   UNL     1      42.676 -13.626   6.796  1.00  0.00     0.280 HD
HETATM   10  C   UNL     1      44.014 -13.898   5.222  1.00  0.00     0.255 C 
HETATM   11  C   UNL     1      42.982 -13.632   4.097  1.00  0.00     0.152 C 
HETATM   12  N   UNL     1      42.065 -14.777   3.868  1.00  0.00    -0.364 N 
HETATM   13  C   UNL     1      41.424 -15.318   5.093  1.00  0.00     0.152 C 
HETATM   14  C   UNL     1      42.459 -15.616   6.207  1.00  0.00     0.255 C 
BRANCH  12  15
HETATM   15  C   UNL     1      42.306 -15.661   2.832  1.00  0.00     0.102 A 
HETATM   16  N   UNL     1      43.565 -16.116   2.683  1.00  0.00    -0.352 N 
HETATM   17  H   UNL     1      44.252 -15.815   3.369  1.00  0.00     0.166 HD
HETATM   18  C   UNL     1      43.942 -16.993   1.740  1.00  0.00     0.089 A 
HETATM   19  C   UNL     1      43.009 -17.490   0.845  1.00  0.00     0.017 A 
HETATM   20  C   UNL     1      41.690 -17.074   0.960  1.00  0.00     0.005 A 
HETATM   21  C   UNL     1      41.334 -16.166   1.958  1.00  0.00     0.048 A 
ENDBRANCH  12  15
ENDBRANCH   7   8
ENDBRANCH   5   7
BRANCH   3  22
HETATM   22  N   UNL     1      47.715 -11.365   8.088  1.00  0.00    -0.270 NA
HETATM   23  H   UNL     1      47.865 -10.432   8.462  1.00  0.00     0.127 HD
HETATM   24  H   UNL     1      48.389 -12.051   8.399  1.00  0.00     0.127 HD
ENDBRANCH   3  22
BRANCH   1  25
HETATM   25  N   UNL     1      43.442 -10.411   9.725  1.00  0.00    -0.185 N 
HETATM   26  H   UNL     1      43.092  -9.723   9.066  1.00  0.00     0.184 HD
BRANCH  25  27
HETATM   27  C   UNL     1      42.553 -10.626  10.800  1.00  0.00     0.085 A 
HETATM   28  C   UNL     1      42.973 -10.574  12.135  1.00  0.00     0.069 A 
HETATM   29  C   UNL     1      42.074 -10.762  13.187  1.00  0.00     0.070 A 
HETATM   30  C   UNL     1      40.736 -11.024  12.902  1.00  0.00     0.039 A 
HETATM   31  C   UNL     1      40.298 -11.090  11.574  1.00  0.00     0.042 A 
HETATM   32  C   UNL     1      41.197 -10.893  10.523  1.00  0.00     0.095 A 
BRANCH  29  33
HETATM   33  O   UNL     1      42.628 -10.653  14.434  1.00  0.00    -0.356 OA
HETATM   34  C   UNL     1      42.499  -9.395  15.087  1.00  0.00     0.210 C 
ENDBRANCH  29  33
BRANCH  32  35
HETATM   35  O   UNL     1      40.871 -10.935   9.186  1.00  0.00    -0.354 OA
HETATM   36  C   UNL     1      39.497 -11.156   8.876  1.00  0.00     0.210 C 
ENDBRANCH  32  35
ENDBRANCH  25  27
ENDBRANCH   1  25
TORSDOF 8
ENDMDL
MODEL 10
REMARK VINA RESULT:      -8.3      2.970      4.349
REMARK  8 active torsions:
REMARK  status: ('A' for Active; 'I' for Inactive)
REMARK    1  A    between atoms: O_2  and  C_3 
REMARK    2  A    between atoms: C_5  and  N_6 
REMARK    3  A    between atoms: N_6  and  C_7 
REMARK    4  A    between atoms: C_9  and  N_10 
REMARK    5  A    between atoms: C_12  and  C_13 
REMARK    6  A    between atoms: C_13  and  N_14 
REMARK    7  A    between atoms: N_18  and  C_19 
REMARK    8  A    between atoms: C_29  and  O_30 
ROOT
HETATM    1  C   UNL     1      41.207 -10.309   7.756  1.00  0.00     0.731 A 
HETATM    2  N   UNL     1      40.232  -9.421   7.595  1.00  0.00    -0.031 NA
HETATM    3  C   UNL     1      39.273  -9.728   6.743  1.00  0.00     0.219 A 
HETATM    4  N   UNL     1      39.182 -10.880   6.103  1.00  0.00    -0.200 NA
HETATM    5  C   UNL     1      40.176 -11.733   6.341  1.00  0.00     0.174 A 
HETATM    6  N   UNL     1      41.201 -11.501   7.161  1.00  0.00    -0.045 NA
ENDROOT
BRANCH   5   7
HETATM    7  C   UNL     1      39.964 -13.166   5.892  1.00  0.00     0.316 C 
BRANCH   7   8
HETATM    8  N   UNL     1      41.224 -14.063   5.934  1.00  0.00    -0.061 N 
HETATM    9  H   UNL     1      41.711 -13.793   6.798  1.00  0.00     0.280 HD
HETATM   10  C   UNL     1      40.874 -15.545   6.040  1.00  0.00     0.255 C 
HETATM   11  C   UNL     1      42.165 -16.392   6.153  1.00  0.00     0.152 C 
HETATM   12  N   UNL     1      43.156 -16.088   5.090  1.00  0.00    -0.364 N 
HETATM   13  C   UNL     1      43.454 -14.645   4.909  1.00  0.00     0.152 C 
HETATM   14  C   UNL     1      42.164 -13.801   4.761  1.00  0.00     0.255 C 
BRANCH  12  15
HETATM   15  C   UNL     1      43.247 -16.903   3.976  1.00  0.00     0.102 A 
HETATM   16  N   UNL     1      43.626 -16.331   2.817  1.00  0.00    -0.352 N 
HETATM   17  H   UNL     1      43.864 -15.343   2.841  1.00  0.00     0.166 HD
HETATM   18  C   UNL     1      43.781 -17.000   1.663  1.00  0.00     0.089 A 
HETATM   19  C   UNL     1      43.550 -18.365   1.618  1.00  0.00     0.017 A 
HETATM   20  C   UNL     1      43.176 -19.014   2.785  1.00  0.00     0.005 A 
HETATM   21  C   UNL     1      43.033 -18.288   3.968  1.00  0.00     0.048 A 
ENDBRANCH  12  15
ENDBRANCH   7   8
ENDBRANCH   5   7
BRANCH   3  22
HETATM   22  N   UNL     1      38.264  -8.809   6.557  1.00  0.00    -0.270 NA
HETATM   23  H   UNL     1      37.606  -8.870   7.329  1.00  0.00     0.127 HD
HETATM   24  H   UNL     1      38.631  -7.881   6.395  1.00  0.00     0.127 HD
ENDBRANCH   3  22
BRANCH   1  25
HETATM   25  N   UNL     1      42.282 -10.050   8.597  1.00  0.00    -0.185 N 
HETATM   26  H   UNL     1      42.611  -9.093   8.511  1.00  0.00     0.184 HD
BRANCH  25  27
HETATM   27  C   UNL     1      42.624 -10.625   9.839  1.00  0.00     0.085 A 
HETATM   28  C   UNL     1      41.764 -10.577  10.944  1.00  0.00     0.069 A 
HETATM   29  C   UNL     1      42.108 -11.175  12.159  1.00  0.00     0.070 A 
HETATM   30  C   UNL     1      43.338 -11.818  12.278  1.00  0.00     0.039 A 
HETATM   31  C   UNL     1      44.215 -11.869  11.189  1.00  0.00     0.042 A 
HETATM   32  C   UNL     1      43.867 -11.277   9.973  1.00  0.00     0.095 A 
BRANCH  29  33
HETATM   33  O   UNL     1      41.154 -11.069  13.134  1.00  0.00    -0.356 OA
HETATM   34  C   UNL     1      41.486 -10.287  14.276  1.00  0.00     0.210 C 
ENDBRANCH  29  33
BRANCH  32  35
HETATM   35  O   UNL     1      44.653 -11.271   8.842  1.00  0.00    -0.354 OA
HETATM   36  C   UNL     1      45.748 -12.185   8.828  1.00  0.00     0.210 C 
ENDBRANCH  32  35
ENDBRANCH  25  27
ENDBRANCH   1  25
TORSDOF 8
ENDMDL
