MODEL 1
REMARK VINA RESULT:      -7.5      0.000      0.000
REMARK  2 active torsions:
REMARK  status: ('A' for Active; 'I' for Inactive)
REMARK    1  A    between atoms: C_8  and  S_9 
REMARK    2  A    between atoms: S_9  and  C_10 
ROOT
HETATM    1  C   UNL     1      44.930 -22.214   4.762  1.00  0.00     0.002 A 
HETATM    2  C   UNL     1      44.633 -20.895   5.108  1.00  0.00     0.034 A 
HETATM    3  C   UNL     1      44.206 -19.977   4.155  1.00  0.00     0.087 A 
HETATM    4  C   UNL     1      44.064 -20.402   2.808  1.00  0.00     0.087 A 
HETATM    5  N   UNL     1      43.637 -19.558   1.850  1.00  0.00    -0.232 NA
HETATM    6  C   UNL     1      43.339 -18.300   2.234  1.00  0.00     0.164 A 
HETATM    7 CL   UNL     1      42.758 -17.312   0.959  1.00  0.00    -0.059 Cl
HETATM    8  C   UNL     1      43.488 -17.880   3.546  1.00  0.00     0.165 A 
HETATM    9  N   UNL     1      43.933 -18.706   4.526  1.00  0.00    -0.234 NA
HETATM   10  C   UNL     1      44.368 -21.716   2.476  1.00  0.00     0.034 A 
HETATM   11  C   UNL     1      44.800 -22.625   3.442  1.00  0.00     0.002 A 
ENDROOT
BRANCH   8  12
HETATM   12  S   UNL     1      43.095 -16.226   4.125  1.00  0.00     0.078 S 
HETATM   13  O   UNL     1      43.643 -16.141   5.525  1.00  0.00    -0.251 OA
BRANCH  12  14
HETATM   14  C   UNL     1      41.264 -16.329   4.329  1.00  0.00     0.112 C 
HETATM   15  C   UNL     1      40.889 -16.171   5.809  1.00  0.00     0.250 C 
HETATM   16  N   UNL     1      41.170 -14.768   6.270  1.00  0.00    -0.074 N 
HETATM   17  H   UNL     1      42.194 -14.600   6.146  1.00  0.00     0.277 HD
HETATM   18  H   UNL     1      41.004 -14.679   7.279  1.00  0.00     0.277 HD
HETATM   19  C   UNL     1      40.425 -13.720   5.523  1.00  0.00     0.232 C 
HETATM   20  C   UNL     1      40.763 -13.818   4.042  1.00  0.00     0.029 C 
HETATM   21  C   UNL     1      40.585 -15.235   3.487  1.00  0.00     0.021 C 
ENDBRANCH  12  14
ENDBRANCH   8  12
TORSDOF 2
ENDMDL
MODEL 2
REMARK VINA RESULT:      -7.3      2.048      2.645
REMARK  2 active torsions:
REMARK  status: ('A' for Active; 'I' for Inactive)
REMARK    1  A    between atoms: C_8  and  S_9 
REMARK    2  A    between atoms: S_9  and  C_10 
ROOT
HETATM    1  C   UNL     1      43.823 -21.416   1.684  1.00  0.00     0.002 A 
HETATM    2  C   UNL     1      43.453 -20.104   1.983  1.00  0.00     0.034 A 
HETATM    3  C   UNL     1      43.753 -19.531   3.213  1.00  0.00     0.087 A 
HETATM    4  C   UNL     1      44.458 -20.301   4.175  1.00  0.00     0.087 A 
HETATM    5  N   UNL     1      44.789 -19.789   5.375  1.00  0.00    -0.232 NA
HETATM    6  C   UNL     1      44.433 -18.509   5.611  1.00  0.00     0.164 A 
HETATM    7 CL   UNL     1      44.938 -17.926   7.142  1.00  0.00    -0.059 Cl
HETATM    8  C   UNL     1      43.734 -17.759   4.677  1.00  0.00     0.165 A 
HETATM    9  N   UNL     1      43.373 -18.259   3.469  1.00  0.00    -0.234 NA
HETATM   10  C   UNL     1      44.816 -21.607   3.868  1.00  0.00     0.034 A 
HETATM   11  C   UNL     1      44.503 -22.171   2.631  1.00  0.00     0.002 A 
ENDROOT
BRANCH   8  12
HETATM   12  S   UNL     1      43.244 -16.049   4.923  1.00  0.00     0.078 S 
HETATM   13  O   UNL     1      42.125 -16.085   5.931  1.00  0.00    -0.251 OA
BRANCH  12  14
HETATM   14  C   UNL     1      42.431 -15.661   3.313  1.00  0.00     0.112 C 
HETATM   15  C   UNL     1      40.909 -15.591   3.495  1.00  0.00     0.250 C 
HETATM   16  N   UNL     1      40.538 -14.392   4.323  1.00  0.00    -0.074 N 
HETATM   17  H   UNL     1      40.999 -14.503   5.254  1.00  0.00     0.277 HD
HETATM   18  H   UNL     1      39.530 -14.388   4.522  1.00  0.00     0.277 HD
HETATM   19  C   UNL     1      40.961 -13.092   3.738  1.00  0.00     0.232 C 
HETATM   20  C   UNL     1      42.470 -13.094   3.540  1.00  0.00     0.029 C 
HETATM   21  C   UNL     1      42.965 -14.323   2.771  1.00  0.00     0.021 C 
ENDBRANCH  12  14
ENDBRANCH   8  12
TORSDOF 2
ENDMDL
MODEL 3
REMARK VINA RESULT:      -7.3      2.352      2.834
REMARK  2 active torsions:
REMARK  status: ('A' for Active; 'I' for Inactive)
REMARK    1  A    between atoms: C_8  and  S_9 
REMARK    2  A    between atoms: S_9  and  C_10 
ROOT
HETATM    1  C   UNL     1      43.971 -21.882   1.761  1.00  0.00     0.002 A 
HETATM    2  C   UNL     1      43.391 -20.613   1.739  1.00  0.00     0.034 A 
HETATM    3  C   UNL     1      43.549 -19.728   2.798  1.00  0.00     0.087 A 
HETATM    4  C   UNL     1      44.325 -20.129   3.918  1.00  0.00     0.087 A 
HETATM    5  N   UNL     1      44.524 -19.304   4.963  1.00  0.00    -0.232 NA
HETATM    6  C   UNL     1      43.965 -18.078   4.887  1.00  0.00     0.164 A 
HETATM    7 CL   UNL     1      44.311 -17.081   6.238  1.00  0.00    -0.059 Cl
HETATM    8  C   UNL     1      43.197 -17.689   3.801  1.00  0.00     0.165 A 
HETATM    9  N   UNL     1      42.967 -18.509   2.745  1.00  0.00    -0.234 NA
HETATM   10  C   UNL     1      44.892 -21.396   3.930  1.00  0.00     0.034 A 
HETATM   11  C   UNL     1      44.721 -22.276   2.862  1.00  0.00     0.002 A 
ENDROOT
BRANCH   8  12
HETATM   12  S   UNL     1      42.439 -16.070   3.633  1.00  0.00     0.078 S 
HETATM   13  O   UNL     1      41.292 -16.052   4.608  1.00  0.00    -0.251 OA
BRANCH  12  14
HETATM   14  C   UNL     1      41.653 -16.199   1.968  1.00  0.00     0.112 C 
HETATM   15  C   UNL     1      40.146 -16.446   2.114  1.00  0.00     0.250 C 
HETATM   16  N   UNL     1      39.471 -15.226   2.678  1.00  0.00    -0.074 N 
HETATM   17  H   UNL     1      39.891 -15.045   3.618  1.00  0.00     0.277 HD
HETATM   18  H   UNL     1      38.478 -15.414   2.860  1.00  0.00     0.277 HD
HETATM   19  C   UNL     1      39.628 -14.003   1.847  1.00  0.00     0.232 C 
HETATM   20  C   UNL     1      41.109 -13.697   1.672  1.00  0.00     0.029 C 
HETATM   21  C   UNL     1      41.908 -14.906   1.172  1.00  0.00     0.021 C 
ENDBRANCH  12  14
ENDBRANCH   8  12
TORSDOF 2
ENDMDL
MODEL 4
REMARK VINA RESULT:      -6.9      3.044      3.855
REMARK  2 active torsions:
REMARK  status: ('A' for Active; 'I' for Inactive)
REMARK    1  A    between atoms: C_8  and  S_9 
REMARK    2  A    between atoms: S_9  and  C_10 
ROOT
HETATM    1  C   UNL     1      44.597 -20.830   2.837  1.00  0.00     0.002 A 
HETATM    2  C   UNL     1      43.686 -19.898   2.338  1.00  0.00     0.034 A 
HETATM    3  C   UNL     1      43.253 -18.826   3.110  1.00  0.00     0.087 A 
HETATM    4  C   UNL     1      43.758 -18.683   4.429  1.00  0.00     0.087 A 
HETATM    5  N   UNL     1      43.385 -17.654   5.213  1.00  0.00    -0.232 NA
HETATM    6  C   UNL     1      42.522 -16.764   4.681  1.00  0.00     0.164 A 
HETATM    7 CL   UNL     1      42.142 -15.464   5.732  1.00  0.00    -0.059 Cl
HETATM    8  C   UNL     1      42.018 -16.909   3.399  1.00  0.00     0.165 A 
HETATM    9  N   UNL     1      42.364 -17.946   2.596  1.00  0.00    -0.234 NA
HETATM   10  C   UNL     1      44.660 -19.620   4.916  1.00  0.00     0.034 A 
HETATM   11  C   UNL     1      45.083 -20.693   4.130  1.00  0.00     0.002 A 
ENDROOT
BRANCH   8  12
HETATM   12  S   UNL     1      40.879 -15.754   2.628  1.00  0.00     0.078 S 
HETATM   13  O   UNL     1      39.820 -16.600   1.970  1.00  0.00    -0.251 OA
BRANCH  12  14
HETATM   14  C   UNL     1      41.901 -15.096   1.240  1.00  0.00     0.112 C 
HETATM   15  C   UNL     1      41.330 -15.568  -0.104  1.00  0.00     0.250 C 
HETATM   16  N   UNL     1      40.002 -14.913  -0.365  1.00  0.00    -0.074 N 
HETATM   17  H   UNL     1      39.359 -15.196   0.409  1.00  0.00     0.277 HD
HETATM   18  H   UNL     1      39.575 -15.290  -1.219  1.00  0.00     0.277 HD
HETATM   19  C   UNL     1      40.054 -13.428  -0.417  1.00  0.00     0.232 C 
HETATM   20  C   UNL     1      40.605 -12.895   0.897  1.00  0.00     0.029 C 
HETATM   21  C   UNL     1      41.927 -13.558   1.298  1.00  0.00     0.021 C 
ENDBRANCH  12  14
ENDBRANCH   8  12
TORSDOF 2
ENDMDL
MODEL 5
REMARK VINA RESULT:      -6.8      1.704      2.056
REMARK  2 active torsions:
REMARK  status: ('A' for Active; 'I' for Inactive)
REMARK    1  A    between atoms: C_8  and  S_9 
REMARK    2  A    between atoms: S_9  and  C_10 
ROOT
HETATM    1  C   UNL     1      44.888 -20.224   4.735  1.00  0.00     0.002 A 
HETATM    2  C   UNL     1      44.459 -18.905   4.894  1.00  0.00     0.034 A 
HETATM    3  C   UNL     1      43.872 -18.205   3.847  1.00  0.00     0.087 A 
HETATM    4  C   UNL     1      43.702 -18.856   2.596  1.00  0.00     0.087 A 
HETATM    5  N   UNL     1      43.123 -18.230   1.554  1.00  0.00    -0.232 NA
HETATM    6  C   UNL     1      42.702 -16.965   1.761  1.00  0.00     0.164 A 
HETATM    7 CL   UNL     1      41.936 -16.266   0.396  1.00  0.00    -0.059 Cl
HETATM    8  C   UNL     1      42.878 -16.324   2.976  1.00  0.00     0.165 A 
HETATM    9  N   UNL     1      43.474 -16.927   4.035  1.00  0.00    -0.234 NA
HETATM   10  C   UNL     1      44.138 -20.167   2.450  1.00  0.00     0.034 A 
HETATM   11  C   UNL     1      44.730 -20.855   3.509  1.00  0.00     0.002 A 
ENDROOT
BRANCH   8  12
HETATM   12  S   UNL     1      42.328 -14.649   3.320  1.00  0.00     0.078 S 
HETATM   13  O   UNL     1      43.513 -13.763   3.036  1.00  0.00    -0.251 OA
BRANCH  12  14
HETATM   14  C   UNL     1      42.177 -14.677   5.158  1.00  0.00     0.112 C 
HETATM   15  C   UNL     1      42.698 -13.361   5.750  1.00  0.00     0.250 C 
HETATM   16  N   UNL     1      41.782 -12.227   5.385  1.00  0.00    -0.074 N 
HETATM   17  H   UNL     1      41.768 -12.162   4.342  1.00  0.00     0.277 HD
HETATM   18  H   UNL     1      42.170 -11.331   5.704  1.00  0.00     0.277 HD
HETATM   19  C   UNL     1      40.385 -12.392   5.867  1.00  0.00     0.232 C 
HETATM   20  C   UNL     1      39.805 -13.681   5.304  1.00  0.00     0.029 C 
HETATM   21  C   UNL     1      40.705 -14.895   5.555  1.00  0.00     0.021 C 
ENDBRANCH  12  14
ENDBRANCH   8  12
TORSDOF 2
ENDMDL
MODEL 6
REMARK VINA RESULT:      -6.7      2.948      3.564
REMARK  2 active torsions:
REMARK  status: ('A' for Active; 'I' for Inactive)
REMARK    1  A    between atoms: C_8  and  S_9 
REMARK    2  A    between atoms: S_9  and  C_10 
ROOT
HETATM    1  C   UNL     1      44.167 -20.435   2.429  1.00  0.00     0.002 A 
HETATM    2  C   UNL     1      43.486 -19.270   2.783  1.00  0.00     0.034 A 
HETATM    3  C   UNL     1      43.446 -18.828   4.101  1.00  0.00     0.087 A 
HETATM    4  C   UNL     1      44.121 -19.581   5.097  1.00  0.00     0.087 A 
HETATM    5  N   UNL     1      44.128 -19.189   6.385  1.00  0.00    -0.232 NA
HETATM    6  C   UNL     1      43.478 -18.044   6.677  1.00  0.00     0.164 A 
HETATM    7 CL   UNL     1      43.582 -17.597   8.329  1.00  0.00    -0.059 Cl
HETATM    8  C   UNL     1      42.808 -17.314   5.708  1.00  0.00     0.165 A 
HETATM    9  N   UNL     1      42.771 -17.698   4.408  1.00  0.00    -0.234 NA
HETATM   10  C   UNL     1      44.790 -20.742   4.733  1.00  0.00     0.034 A 
HETATM   11  C   UNL     1      44.818 -21.176   3.408  1.00  0.00     0.002 A 
ENDROOT
BRANCH   8  12
HETATM   12  S   UNL     1      41.938 -15.776   6.028  1.00  0.00     0.078 S 
HETATM   13  O   UNL     1      40.733 -15.792   5.124  1.00  0.00    -0.251 OA
BRANCH  12  14
HETATM   14  C   UNL     1      43.084 -14.538   5.281  1.00  0.00     0.112 C 
HETATM   15  C   UNL     1      42.497 -13.127   5.419  1.00  0.00     0.250 C 
HETATM   16  N   UNL     1      42.489 -12.705   6.862  1.00  0.00    -0.074 N 
HETATM   17  H   UNL     1      41.891 -13.387   7.381  1.00  0.00     0.277 HD
HETATM   18  H   UNL     1      42.018 -11.798   6.971  1.00  0.00     0.277 HD
HETATM   19  C   UNL     1      43.833 -12.676   7.496  1.00  0.00     0.232 C 
HETATM   20  C   UNL     1      44.468 -14.056   7.401  1.00  0.00     0.029 C 
HETATM   21  C   UNL     1      44.456 -14.616   5.975  1.00  0.00     0.021 C 
ENDBRANCH  12  14
ENDBRANCH   8  12
TORSDOF 2
ENDMDL
MODEL 7
REMARK VINA RESULT:      -6.5      2.087      2.763
REMARK  2 active torsions:
REMARK  status: ('A' for Active; 'I' for Inactive)
REMARK    1  A    between atoms: C_8  and  S_9 
REMARK    2  A    between atoms: S_9  and  C_10 
ROOT
HETATM    1  C   UNL     1      43.638 -19.184   7.374  1.00  0.00     0.002 A 
HETATM    2  C   UNL     1      43.323 -17.946   6.812  1.00  0.00     0.034 A 
HETATM    3  C   UNL     1      43.462 -17.715   5.448  1.00  0.00     0.087 A 
HETATM    4  C   UNL     1      43.927 -18.769   4.618  1.00  0.00     0.087 A 
HETATM    5  N   UNL     1      44.063 -18.603   3.289  1.00  0.00    -0.232 NA
HETATM    6  C   UNL     1      43.724 -17.398   2.786  1.00  0.00     0.164 A 
HETATM    7 CL   UNL     1      43.882 -17.295   1.083  1.00  0.00    -0.059 Cl
HETATM    8  C   UNL     1      43.281 -16.365   3.597  1.00  0.00     0.165 A 
HETATM    9  N   UNL     1      43.153 -16.501   4.940  1.00  0.00    -0.234 NA
HETATM   10  C   UNL     1      44.243 -19.994   5.190  1.00  0.00     0.034 A 
HETATM   11  C   UNL     1      44.103 -20.210   6.561  1.00  0.00     0.002 A 
ENDROOT
BRANCH   8  12
HETATM   12  S   UNL     1      42.800 -14.745   2.990  1.00  0.00     0.078 S 
HETATM   13  O   UNL     1      43.991 -13.851   3.220  1.00  0.00    -0.251 OA
BRANCH  12  14
HETATM   14  C   UNL     1      41.559 -14.228   4.254  1.00  0.00     0.112 C 
HETATM   15  C   UNL     1      41.989 -12.906   4.905  1.00  0.00     0.250 C 
HETATM   16  N   UNL     1      41.900 -11.783   3.910  1.00  0.00    -0.074 N 
HETATM   17  H   UNL     1      42.546 -12.013   3.122  1.00  0.00     0.277 HD
HETATM   18  H   UNL     1      42.268 -10.912   4.313  1.00  0.00     0.277 HD
HETATM   19  C   UNL     1      40.537 -11.566   3.356  1.00  0.00     0.232 C 
HETATM   20  C   UNL     1      40.055 -12.844   2.685  1.00  0.00     0.029 C 
HETATM   21  C   UNL     1      40.178 -14.072   3.592  1.00  0.00     0.021 C 
ENDBRANCH  12  14
ENDBRANCH   8  12
TORSDOF 2
ENDMDL
MODEL 8
REMARK VINA RESULT:      -6.5      2.854      3.884
REMARK  2 active torsions:
REMARK  status: ('A' for Active; 'I' for Inactive)
REMARK    1  A    between atoms: C_8  and  S_9 
REMARK    2  A    between atoms: S_9  and  C_10 
ROOT
HETATM    1  C   UNL     1      43.565 -17.689   8.117  1.00  0.00     0.002 A 
HETATM    2  C   UNL     1      43.236 -16.788   7.104  1.00  0.00     0.034 A 
HETATM    3  C   UNL     1      43.387 -17.121   5.763  1.00  0.00     0.087 A 
HETATM    4  C   UNL     1      43.879 -18.410   5.428  1.00  0.00     0.087 A 
HETATM    5  N   UNL     1      44.027 -18.790   4.145  1.00  0.00    -0.232 NA
HETATM    6  C   UNL     1      43.674 -17.895   3.199  1.00  0.00     0.164 A 
HETATM    7 CL   UNL     1      43.851 -18.482   1.598  1.00  0.00    -0.059 Cl
HETATM    8  C   UNL     1      43.205 -16.632   3.524  1.00  0.00     0.165 A 
HETATM    9  N   UNL     1      43.064 -16.219   4.809  1.00  0.00    -0.234 NA
HETATM   10  C   UNL     1      44.208 -19.296   6.445  1.00  0.00     0.034 A 
HETATM   11  C   UNL     1      44.055 -18.946   7.786  1.00  0.00     0.002 A 
ENDROOT
BRANCH   8  12
HETATM   12  S   UNL     1      42.705 -15.402   2.315  1.00  0.00     0.078 S 
HETATM   13  O   UNL     1      42.133 -14.257   3.109  1.00  0.00    -0.251 OA
BRANCH  12  14
HETATM   14  C   UNL     1      41.248 -16.221   1.533  1.00  0.00     0.112 C 
HETATM   15  C   UNL     1      39.954 -15.517   1.964  1.00  0.00     0.250 C 
HETATM   16  N   UNL     1      39.888 -14.139   1.367  1.00  0.00    -0.074 N 
HETATM   17  H   UNL     1      40.713 -13.606   1.724  1.00  0.00     0.277 HD
HETATM   18  H   UNL     1      39.067 -13.631   1.721  1.00  0.00     0.277 HD
HETATM   19  C   UNL     1      39.916 -14.116  -0.119  1.00  0.00     0.232 C 
HETATM   20  C   UNL     1      41.186 -14.794  -0.612  1.00  0.00     0.029 C 
HETATM   21  C   UNL     1      41.391 -16.183   0.001  1.00  0.00     0.021 C 
ENDBRANCH  12  14
ENDBRANCH   8  12
TORSDOF 2
ENDMDL
MODEL 9
REMARK VINA RESULT:      -6.4      2.995      5.594
REMARK  2 active torsions:
REMARK  status: ('A' for Active; 'I' for Inactive)
REMARK    1  A    between atoms: C_8  and  S_9 
REMARK    2  A    between atoms: S_9  and  C_10 
ROOT
HETATM    1  C   UNL     1      40.041 -13.987   0.282  1.00  0.00     0.002 A 
HETATM    2  C   UNL     1      40.146 -14.486   1.581  1.00  0.00     0.034 A 
HETATM    3  C   UNL     1      40.847 -15.655   1.852  1.00  0.00     0.087 A 
HETATM    4  C   UNL     1      41.471 -16.345   0.779  1.00  0.00     0.087 A 
HETATM    5  N   UNL     1      42.176 -17.472   0.989  1.00  0.00    -0.232 NA
HETATM    6  C   UNL     1      42.272 -17.904   2.263  1.00  0.00     0.164 A 
HETATM    7 CL   UNL     1      43.227 -19.316   2.441  1.00  0.00    -0.059 Cl
HETATM    8  C   UNL     1      41.652 -17.239   3.310  1.00  0.00     0.165 A 
HETATM    9  N   UNL     1      40.922 -16.112   3.122  1.00  0.00    -0.234 NA
HETATM   10  C   UNL     1      41.355 -15.842  -0.510  1.00  0.00     0.034 A 
HETATM   11  C   UNL     1      40.644 -14.669  -0.767  1.00  0.00     0.002 A 
ENDROOT
BRANCH   8  12
HETATM   12  S   UNL     1      41.753 -17.752   5.028  1.00  0.00     0.078 S 
HETATM   13  O   UNL     1      40.793 -16.864   5.777  1.00  0.00    -0.251 OA
BRANCH  12  14
HETATM   14  C   UNL     1      43.432 -17.151   5.498  1.00  0.00     0.112 C 
HETATM   15  C   UNL     1      43.363 -16.371   6.818  1.00  0.00     0.250 C 
HETATM   16  N   UNL     1      43.041 -17.301   7.955  1.00  0.00    -0.074 N 
HETATM   17  H   UNL     1      42.111 -17.731   7.751  1.00  0.00     0.277 HD
HETATM   18  H   UNL     1      42.908 -16.774   8.827  1.00  0.00     0.277 HD
HETATM   19  C   UNL     1      44.034 -18.392   8.151  1.00  0.00     0.232 C 
HETATM   20  C   UNL     1      44.143 -19.211   6.873  1.00  0.00     0.029 C 
HETATM   21  C   UNL     1      44.393 -18.346   5.634  1.00  0.00     0.021 C 
ENDBRANCH  12  14
ENDBRANCH   8  12
TORSDOF 2
ENDMDL
MODEL 10
REMARK VINA RESULT:      -6.4      2.413      3.196
REMARK  2 active torsions:
REMARK  status: ('A' for Active; 'I' for Inactive)
REMARK    1  A    between atoms: C_8  and  S_9 
REMARK    2  A    between atoms: S_9  and  C_10 
ROOT
HETATM    1  C   UNL     1      44.600 -20.759   2.947  1.00  0.00     0.002 A 
HETATM    2  C   UNL     1      43.965 -19.674   2.341  1.00  0.00     0.034 A 
HETATM    3  C   UNL     1      43.654 -18.525   3.060  1.00  0.00     0.087 A 
HETATM    4  C   UNL     1      44.000 -18.462   4.435  1.00  0.00     0.087 A 
HETATM    5  N   UNL     1      43.737 -17.367   5.173  1.00  0.00    -0.232 NA
HETATM    6  C   UNL     1      43.144 -16.334   4.540  1.00  0.00     0.164 A 
HETATM    7 CL   UNL     1      42.892 -14.967   5.544  1.00  0.00    -0.059 Cl
HETATM    8  C   UNL     1      42.794 -16.398   3.201  1.00  0.00     0.165 A 
HETATM    9  N   UNL     1      43.032 -17.496   2.441  1.00  0.00    -0.234 NA
HETATM   10  C   UNL     1      44.627 -19.550   5.027  1.00  0.00     0.034 A 
HETATM   11  C   UNL     1      44.929 -20.698   4.295  1.00  0.00     0.002 A 
ENDROOT
BRANCH   8  12
HETATM   12  S   UNL     1      42.017 -15.054   2.297  1.00  0.00     0.078 S 
HETATM   13  O   UNL     1      42.725 -13.801   2.739  1.00  0.00    -0.251 OA
BRANCH  12  14
HETATM   14  C   UNL     1      40.357 -14.978   3.100  1.00  0.00     0.112 C 
HETATM   15  C   UNL     1      40.092 -13.562   3.628  1.00  0.00     0.250 C 
HETATM   16  N   UNL     1      39.923 -12.602   2.483  1.00  0.00    -0.074 N 
HETATM   17  H   UNL     1      40.813 -12.612   1.935  1.00  0.00     0.277 HD
HETATM   18  H   UNL     1      39.832 -11.639   2.829  1.00  0.00     0.277 HD
HETATM   19  C   UNL     1      38.801 -12.937   1.567  1.00  0.00     0.232 C 
HETATM   20  C   UNL     1      39.010 -14.333   0.999  1.00  0.00     0.029 C 
HETATM   21  C   UNL     1      39.271 -15.381   2.086  1.00  0.00     0.021 C 
ENDBRANCH  12  14
ENDBRANCH   8  12
TORSDOF 2
ENDMDL
