MODEL 1
REMARK VINA RESULT:      -9.0      0.000      0.000
REMARK  7 active torsions:
REMARK  status: ('A' for Active; 'I' for Inactive)
REMARK    1  A    between atoms: C_2  and  C_3 
REMARK    2  A    between atoms: C_3  and  C_4 
REMARK       I    between atoms: C_4  and  N_5 
REMARK    3  A    between atoms: N_5  and  C_6 
REMARK    4  A    between atoms: C_6  and  C_7 
REMARK    5  A    between atoms: C_9  and  N_10 
REMARK    6  A    between atoms: N_10  and  C_11 
REMARK    7  A    between atoms: C_27  and  N_28 
ROOT
HETATM    1  C   UNL     1      41.231 -13.170   3.958  1.00  0.00     0.203 C 
ENDROOT
BRANCH   1   2
HETATM    2  N   UNL     1      41.800 -14.045   2.945  1.00  0.00    -0.354 N 
HETATM    3  C   UNL     1      41.082 -15.096   2.430  1.00  0.00     0.222 C 
HETATM    4  O   UNL     1      39.918 -15.320   2.753  1.00  0.00    -0.273 OA
HETATM    5  H   UNL     1      42.805 -13.994   2.826  1.00  0.00     0.162 HD
BRANCH   3   6
HETATM    6  C   UNL     1      41.826 -15.917   1.389  1.00  0.00     0.141 C 
BRANCH   6   7
HETATM    7  C   UNL     1      42.512 -17.149   1.932  1.00  0.00    -0.049 A 
HETATM    8  C   UNL     1      42.351 -17.537   3.264  1.00  0.00     0.010 A 
HETATM    9  C   UNL     1      42.933 -18.719   3.743  1.00  0.00     0.030 A 
HETATM   10  C   UNL     1      43.682 -19.557   2.903  1.00  0.00     0.039 A 
HETATM   11  C   UNL     1      43.847 -19.153   1.573  1.00  0.00     0.030 A 
HETATM   12  C   UNL     1      43.271 -17.969   1.092  1.00  0.00     0.010 A 
BRANCH  10  13
HETATM   13  N   UNL     1      44.228 -20.771   3.393  1.00  0.00    -0.298 N 
HETATM   14  C   UNL     1      44.377 -21.981   2.689  1.00  0.00     0.323 C 
HETATM   15  O   UNL     1      44.066 -22.272   1.547  1.00  0.00    -0.247 OA
HETATM   16  N   UNL     1      44.970 -22.902   3.549  1.00  0.00    -0.341 N 
HETATM   17  C   UNL     1      44.999 -22.404   4.890  1.00  0.00     0.144 C 
HETATM   18  H   UNL     1      44.999 -23.875   3.273  1.00  0.00     0.164 HD
HETATM   19  C   UNL     1      44.790 -20.908   4.722  1.00  0.00     0.153 C 
ENDBRANCH  10  13
ENDBRANCH   6   7
ENDBRANCH   3   6
ENDBRANCH   1   2
BRANCH   1  20
HETATM   20  C   UNL     1      42.087 -13.091   5.204  1.00  0.00     0.146 A 
HETATM   21  N   UNL     1      42.969 -14.089   5.416  1.00  0.00    -0.219 NA
HETATM   22  C   UNL     1      43.708 -14.040   6.536  1.00  0.00     0.118 A 
HETATM   23  C   UNL     1      43.605 -12.974   7.448  1.00  0.00     0.035 A 
HETATM   24  C   UNL     1      42.656 -11.993   7.129  1.00  0.00     0.072 A 
HETATM   25  C   UNL     1      44.386 -12.835   8.624  1.00  0.00     0.041 A 
HETATM   26  N   UNL     1      41.897 -12.052   6.033  1.00  0.00    -0.231 NA
HETATM   27  C   UNL     1      42.500 -10.911   7.988  1.00  0.00     0.034 A 
HETATM   28  C   UNL     1      43.263 -10.774   9.151  1.00  0.00     0.026 A 
HETATM   29  C   UNL     1      44.209 -11.740   9.464  1.00  0.00     0.035 A 
HETATM   30 CL   UNL     1      45.161 -11.584  10.886  1.00  0.00    -0.084 Cl
BRANCH  22  31
HETATM   31  N   UNL     1      44.620 -15.086   6.803  1.00  0.00    -0.272 NA
HETATM   32  H   UNL     1      44.971 -14.952   7.749  1.00  0.00     0.129 HD
BRANCH  31  33
HETATM   33  C   UNL     1      44.126 -16.448   6.600  1.00  0.00     0.061 C 
HETATM   34  C   UNL     1      45.272 -17.467   6.653  1.00  0.00     0.020 C 
HETATM   35  C   UNL     1      44.661 -18.690   7.316  1.00  0.00     0.002 C 
HETATM   36  C   UNL     1      43.793 -18.083   8.403  1.00  0.00     0.002 C 
HETATM   37  C   UNL     1      43.180 -16.848   7.750  1.00  0.00     0.020 C 
ENDBRANCH  31  33
ENDBRANCH  22  31
ENDBRANCH   1  20
TORSDOF 7
ENDMDL
MODEL 2
REMARK VINA RESULT:      -9.0      3.644      8.324
REMARK  7 active torsions:
REMARK  status: ('A' for Active; 'I' for Inactive)
REMARK    1  A    between atoms: C_2  and  C_3 
REMARK    2  A    between atoms: C_3  and  C_4 
REMARK       I    between atoms: C_4  and  N_5 
REMARK    3  A    between atoms: N_5  and  C_6 
REMARK    4  A    between atoms: C_6  and  C_7 
REMARK    5  A    between atoms: C_9  and  N_10 
REMARK    6  A    between atoms: N_10  and  C_11 
REMARK    7  A    between atoms: C_27  and  N_28 
ROOT
HETATM    1  C   UNL     1      43.940 -16.744   7.317  1.00  0.00     0.203 C 
ENDROOT
BRANCH   1   2
HETATM    2  N   UNL     1      43.273 -15.467   7.125  1.00  0.00    -0.354 N 
HETATM    3  C   UNL     1      43.985 -14.330   6.832  1.00  0.00     0.222 C 
HETATM    4  O   UNL     1      45.202 -14.340   6.665  1.00  0.00    -0.273 OA
HETATM    5  H   UNL     1      42.316 -15.410   7.455  1.00  0.00     0.162 HD
BRANCH   3   6
HETATM    6  C   UNL     1      43.136 -13.078   6.673  1.00  0.00     0.141 C 
BRANCH   6   7
HETATM    7  C   UNL     1      42.533 -12.897   5.301  1.00  0.00    -0.049 A 
HETATM    8  C   UNL     1      41.408 -12.092   5.105  1.00  0.00     0.010 A 
HETATM    9  C   UNL     1      40.896 -11.872   3.820  1.00  0.00     0.030 A 
HETATM   10  C   UNL     1      41.498 -12.439   2.687  1.00  0.00     0.039 A 
HETATM   11  C   UNL     1      42.617 -13.255   2.893  1.00  0.00     0.030 A 
HETATM   12  C   UNL     1      43.129 -13.480   4.179  1.00  0.00     0.010 A 
BRANCH  10  13
HETATM   13  N   UNL     1      40.992 -12.173   1.389  1.00  0.00    -0.298 N 
HETATM   14  C   UNL     1      41.726 -11.772   0.256  1.00  0.00     0.323 C 
HETATM   15  O   UNL     1      42.917 -11.544   0.128  1.00  0.00    -0.247 OA
HETATM   16  N   UNL     1      40.833 -11.638  -0.803  1.00  0.00    -0.341 N 
HETATM   17  C   UNL     1      39.480 -11.707  -0.343  1.00  0.00     0.144 C 
HETATM   18  H   UNL     1      41.152 -11.193  -1.654  1.00  0.00     0.164 HD
HETATM   19  C   UNL     1      39.600 -12.352   1.028  1.00  0.00     0.153 C 
ENDBRANCH  10  13
ENDBRANCH   6   7
ENDBRANCH   3   6
ENDBRANCH   1   2
BRANCH   1  20
HETATM   20  C   UNL     1      43.969 -17.580   6.055  1.00  0.00     0.146 A 
HETATM   21  N   UNL     1      43.645 -16.969   4.898  1.00  0.00    -0.219 NA
HETATM   22  C   UNL     1      43.638 -17.713   3.780  1.00  0.00     0.118 A 
HETATM   23  C   UNL     1      43.991 -19.074   3.793  1.00  0.00     0.035 A 
HETATM   24  C   UNL     1      44.309 -19.607   5.049  1.00  0.00     0.072 A 
HETATM   25  C   UNL     1      44.051 -19.907   2.645  1.00  0.00     0.041 A 
HETATM   26  N   UNL     1      44.287 -18.880   6.168  1.00  0.00    -0.231 NA
HETATM   27  C   UNL     1      44.665 -20.948   5.136  1.00  0.00     0.034 A 
HETATM   28  C   UNL     1      44.719 -21.773   4.009  1.00  0.00     0.026 A 
HETATM   29  C   UNL     1      44.412 -21.246   2.762  1.00  0.00     0.035 A 
HETATM   30 CL   UNL     1      44.481 -22.243   1.365  1.00  0.00    -0.084 Cl
BRANCH  22  31
HETATM   31  N   UNL     1      43.273 -17.110   2.555  1.00  0.00    -0.272 NA
HETATM   32  H   UNL     1      43.921 -17.444   1.845  1.00  0.00     0.129 HD
BRANCH  31  33
HETATM   33  C   UNL     1      41.882 -17.276   2.137  1.00  0.00     0.061 C 
HETATM   34  C   UNL     1      40.950 -16.350   2.931  1.00  0.00     0.020 C 
HETATM   35  C   UNL     1      39.885 -15.935   1.930  1.00  0.00     0.002 C 
HETATM   36  C   UNL     1      40.686 -15.719   0.659  1.00  0.00     0.002 C 
HETATM   37  C   UNL     1      41.713 -16.846   0.666  1.00  0.00     0.020 C 
ENDBRANCH  31  33
ENDBRANCH  22  31
ENDBRANCH   1  20
TORSDOF 7
ENDMDL
MODEL 3
REMARK VINA RESULT:      -8.9      3.838      7.832
REMARK  7 active torsions:
REMARK  status: ('A' for Active; 'I' for Inactive)
REMARK    1  A    between atoms: C_2  and  C_3 
REMARK    2  A    between atoms: C_3  and  C_4 
REMARK       I    between atoms: C_4  and  N_5 
REMARK    3  A    between atoms: N_5  and  C_6 
REMARK    4  A    between atoms: C_6  and  C_7 
REMARK    5  A    between atoms: C_9  and  N_10 
REMARK    6  A    between atoms: N_10  and  C_11 
REMARK    7  A    between atoms: C_27  and  N_28 
ROOT
HETATM    1  C   UNL     1      43.175 -16.228   7.238  1.00  0.00     0.203 C 
ENDROOT
BRANCH   1   2
HETATM    2  N   UNL     1      42.407 -15.162   6.617  1.00  0.00    -0.354 N 
HETATM    3  C   UNL     1      41.131 -15.379   6.159  1.00  0.00     0.222 C 
HETATM    4  O   UNL     1      40.557 -16.457   6.295  1.00  0.00    -0.273 OA
HETATM    5  H   UNL     1      42.933 -14.346   6.322  1.00  0.00     0.162 HD
BRANCH   3   6
HETATM    6  C   UNL     1      40.472 -14.163   5.527  1.00  0.00     0.141 C 
BRANCH   6   7
HETATM    7  C   UNL     1      40.848 -13.923   4.084  1.00  0.00    -0.049 A 
HETATM    8  C   UNL     1      39.899 -14.022   3.063  1.00  0.00     0.010 A 
HETATM    9  C   UNL     1      40.239 -13.730   1.735  1.00  0.00     0.030 A 
HETATM   10  C   UNL     1      41.533 -13.315   1.386  1.00  0.00     0.039 A 
HETATM   11  C   UNL     1      42.480 -13.230   2.413  1.00  0.00     0.030 A 
HETATM   12  C   UNL     1      42.145 -13.527   3.742  1.00  0.00     0.010 A 
BRANCH  10  13
HETATM   13  N   UNL     1      41.848 -12.982   0.044  1.00  0.00    -0.298 N 
HETATM   14  C   UNL     1      42.441 -11.793  -0.419  1.00  0.00     0.323 C 
HETATM   15  O   UNL     1      42.791 -10.796   0.191  1.00  0.00    -0.247 OA
HETATM   16  N   UNL     1      42.581 -11.897  -1.800  1.00  0.00    -0.341 N 
HETATM   17  C   UNL     1      41.872 -13.034  -2.301  1.00  0.00     0.144 C 
HETATM   18  H   UNL     1      42.831 -11.071  -2.327  1.00  0.00     0.164 HD
HETATM   19  C   UNL     1      41.653 -13.893  -1.066  1.00  0.00     0.153 C 
ENDBRANCH  10  13
ENDBRANCH   6   7
ENDBRANCH   3   6
ENDBRANCH   1   2
BRANCH   1  20
HETATM   20  C   UNL     1      43.523 -17.336   6.266  1.00  0.00     0.146 A 
HETATM   21  N   UNL     1      43.656 -17.003   4.967  1.00  0.00    -0.219 NA
HETATM   22  C   UNL     1      43.933 -17.988   4.096  1.00  0.00     0.118 A 
HETATM   23  C   UNL     1      44.117 -19.318   4.515  1.00  0.00     0.035 A 
HETATM   24  C   UNL     1      43.954 -19.551   5.887  1.00  0.00     0.072 A 
HETATM   25  C   UNL     1      44.457 -20.396   3.658  1.00  0.00     0.041 A 
HETATM   26  N   UNL     1      43.649 -18.582   6.752  1.00  0.00    -0.231 NA
HETATM   27  C   UNL     1      44.120 -20.844   6.369  1.00  0.00     0.034 A 
HETATM   28  C   UNL     1      44.448 -21.910   5.528  1.00  0.00     0.026 A 
HETATM   29  C   UNL     1      44.618 -21.681   4.170  1.00  0.00     0.035 A 
HETATM   30 CL   UNL     1      45.029 -22.979   3.122  1.00  0.00    -0.084 Cl
BRANCH  22  31
HETATM   31  N   UNL     1      44.049 -17.677   2.723  1.00  0.00    -0.272 NA
HETATM   32  H   UNL     1      44.143 -18.556   2.218  1.00  0.00     0.129 HD
BRANCH  31  33
HETATM   33  C   UNL     1      42.994 -16.839   2.154  1.00  0.00     0.061 C 
HETATM   34  C   UNL     1      42.928 -16.990   0.628  1.00  0.00     0.020 C 
HETATM   35  C   UNL     1      41.448 -16.889   0.301  1.00  0.00     0.002 C 
HETATM   36  C   UNL     1      40.802 -17.676   1.426  1.00  0.00     0.002 C 
HETATM   37  C   UNL     1      41.614 -17.302   2.662  1.00  0.00     0.020 C 
ENDBRANCH  31  33
ENDBRANCH  22  31
ENDBRANCH   1  20
TORSDOF 7
ENDMDL
MODEL 4
REMARK VINA RESULT:      -8.9      3.765      6.595
REMARK  7 active torsions:
REMARK  status: ('A' for Active; 'I' for Inactive)
REMARK    1  A    between atoms: C_2  and  C_3 
REMARK    2  A    between atoms: C_3  and  C_4 
REMARK       I    between atoms: C_4  and  N_5 
REMARK    3  A    between atoms: N_5  and  C_6 
REMARK    4  A    between atoms: C_6  and  C_7 
REMARK    5  A    between atoms: C_9  and  N_10 
REMARK    6  A    between atoms: N_10  and  C_11 
REMARK    7  A    between atoms: C_27  and  N_28 
ROOT
HETATM    1  C   UNL     1      40.922 -12.469   3.595  1.00  0.00     0.203 C 
ENDROOT
BRANCH   1   2
HETATM    2  N   UNL     1      42.033 -12.983   4.380  1.00  0.00    -0.354 N 
HETATM    3  C   UNL     1      41.818 -13.701   5.530  1.00  0.00     0.222 C 
HETATM    4  O   UNL     1      40.692 -13.990   5.925  1.00  0.00    -0.273 OA
HETATM    5  H   UNL     1      42.944 -12.584   4.178  1.00  0.00     0.162 HD
BRANCH   3   6
HETATM    6  C   UNL     1      43.087 -14.155   6.236  1.00  0.00     0.141 C 
BRANCH   6   7
HETATM    7  C   UNL     1      43.427 -15.614   6.041  1.00  0.00    -0.049 A 
HETATM    8  C   UNL     1      44.550 -16.182   6.647  1.00  0.00     0.010 A 
HETATM    9  C   UNL     1      44.820 -17.551   6.519  1.00  0.00     0.030 A 
HETATM   10  C   UNL     1      43.969 -18.399   5.795  1.00  0.00     0.039 A 
HETATM   11  C   UNL     1      42.853 -17.819   5.182  1.00  0.00     0.030 A 
HETATM   12  C   UNL     1      42.583 -16.449   5.303  1.00  0.00     0.010 A 
BRANCH  10  13
HETATM   13  N   UNL     1      44.234 -19.790   5.712  1.00  0.00    -0.298 N 
HETATM   14  C   UNL     1      43.935 -20.771   6.676  1.00  0.00     0.323 C 
HETATM   15  O   UNL     1      43.420 -20.665   7.776  1.00  0.00    -0.247 OA
HETATM   16  N   UNL     1      44.355 -22.001   6.176  1.00  0.00    -0.341 N 
HETATM   17  C   UNL     1      45.149 -21.828   4.998  1.00  0.00     0.144 C 
HETATM   18  H   UNL     1      44.378 -22.797   6.799  1.00  0.00     0.164 HD
HETATM   19  C   UNL     1      44.813 -20.418   4.541  1.00  0.00     0.153 C 
ENDBRANCH  10  13
ENDBRANCH   6   7
ENDBRANCH   3   6
ENDBRANCH   1   2
BRANCH   1  20
HETATM   20  C   UNL     1      40.813 -13.133   2.239  1.00  0.00     0.146 A 
HETATM   21  N   UNL     1      41.622 -14.183   1.995  1.00  0.00    -0.219 NA
HETATM   22  C   UNL     1      41.551 -14.756   0.782  1.00  0.00     0.118 A 
HETATM   23  C   UNL     1      40.643 -14.312  -0.197  1.00  0.00     0.035 A 
HETATM   24  C   UNL     1      39.852 -13.214   0.164  1.00  0.00     0.072 A 
HETATM   25  C   UNL     1      40.482 -14.899  -1.478  1.00  0.00     0.041 A 
HETATM   26  N   UNL     1      39.939 -12.621   1.356  1.00  0.00    -0.231 NA
HETATM   27  C   UNL     1      38.933 -12.721  -0.756  1.00  0.00     0.034 A 
HETATM   28  C   UNL     1      38.776 -13.293  -2.022  1.00  0.00     0.026 A 
HETATM   29  C   UNL     1      39.554 -14.385  -2.378  1.00  0.00     0.035 A 
HETATM   30 CL   UNL     1      39.368 -15.105  -3.928  1.00  0.00    -0.084 Cl
BRANCH  22  31
HETATM   31  N   UNL     1      42.408 -15.840   0.483  1.00  0.00    -0.272 NA
HETATM   32  H   UNL     1      43.262 -15.453   0.088  1.00  0.00     0.129 HD
BRANCH  31  33
HETATM   33  C   UNL     1      42.690 -16.767   1.578  1.00  0.00     0.061 C 
HETATM   34  C   UNL     1      41.756 -17.984   1.528  1.00  0.00     0.020 C 
HETATM   35  C   UNL     1      42.618 -19.144   1.996  1.00  0.00     0.002 C 
HETATM   36  C   UNL     1      43.951 -18.861   1.327  1.00  0.00     0.002 C 
HETATM   37  C   UNL     1      44.111 -17.348   1.430  1.00  0.00     0.020 C 
ENDBRANCH  31  33
ENDBRANCH  22  31
ENDBRANCH   1  20
TORSDOF 7
ENDMDL
MODEL 5
REMARK VINA RESULT:      -8.8      3.326      5.753
REMARK  7 active torsions:
REMARK  status: ('A' for Active; 'I' for Inactive)
REMARK    1  A    between atoms: C_2  and  C_3 
REMARK    2  A    between atoms: C_3  and  C_4 
REMARK       I    between atoms: C_4  and  N_5 
REMARK    3  A    between atoms: N_5  and  C_6 
REMARK    4  A    between atoms: C_6  and  C_7 
REMARK    5  A    between atoms: C_9  and  N_10 
REMARK    6  A    between atoms: N_10  and  C_11 
REMARK    7  A    between atoms: C_27  and  N_28 
ROOT
HETATM    1  C   UNL     1      42.165 -12.318   5.713  1.00  0.00     0.203 C 
ENDROOT
BRANCH   1   2
HETATM    2  N   UNL     1      42.456 -13.583   6.369  1.00  0.00    -0.354 N 
HETATM    3  C   UNL     1      43.680 -14.189   6.232  1.00  0.00     0.222 C 
HETATM    4  O   UNL     1      44.601 -13.678   5.600  1.00  0.00    -0.273 OA
HETATM    5  H   UNL     1      41.655 -14.101   6.714  1.00  0.00     0.162 HD
BRANCH   3   6
HETATM    6  C   UNL     1      43.816 -15.510   6.973  1.00  0.00     0.141 C 
BRANCH   6   7
HETATM    7  C   UNL     1      43.984 -16.718   6.082  1.00  0.00    -0.049 A 
HETATM    8  C   UNL     1      44.808 -17.783   6.455  1.00  0.00     0.010 A 
HETATM    9  C   UNL     1      44.904 -18.930   5.656  1.00  0.00     0.030 A 
HETATM   10  C   UNL     1      44.172 -19.056   4.466  1.00  0.00     0.039 A 
HETATM   11  C   UNL     1      43.359 -17.979   4.094  1.00  0.00     0.030 A 
HETATM   12  C   UNL     1      43.264 -16.827   4.889  1.00  0.00     0.010 A 
BRANCH  10  13
HETATM   13  N   UNL     1      44.248 -20.241   3.691  1.00  0.00    -0.298 N 
HETATM   14  C   UNL     1      44.682 -21.510   4.119  1.00  0.00     0.323 C 
HETATM   15  O   UNL     1      45.100 -21.876   5.205  1.00  0.00    -0.247 OA
HETATM   16  N   UNL     1      44.580 -22.381   3.038  1.00  0.00    -0.341 N 
HETATM   17  C   UNL     1      44.315 -21.666   1.829  1.00  0.00     0.144 C 
HETATM   18  H   UNL     1      45.007 -23.295   3.109  1.00  0.00     0.164 HD
HETATM   19  C   UNL     1      43.806 -20.317   2.313  1.00  0.00     0.153 C 
ENDBRANCH  10  13
ENDBRANCH   6   7
ENDBRANCH   3   6
ENDBRANCH   1   2
BRANCH   1  20
HETATM   20  C   UNL     1      41.076 -12.443   4.668  1.00  0.00     0.146 A 
HETATM   21  N   UNL     1      40.815 -13.675   4.188  1.00  0.00    -0.219 NA
HETATM   22  C   UNL     1      39.872 -13.786   3.238  1.00  0.00     0.118 A 
HETATM   23  C   UNL     1      39.148 -12.672   2.776  1.00  0.00     0.035 A 
HETATM   24  C   UNL     1      39.503 -11.441   3.343  1.00  0.00     0.072 A 
HETATM   25  C   UNL     1      38.109 -12.724   1.812  1.00  0.00     0.041 A 
HETATM   26  N   UNL     1      40.460 -11.319   4.265  1.00  0.00    -0.231 NA
HETATM   27  C   UNL     1      38.828 -10.297   2.932  1.00  0.00     0.034 A 
HETATM   28  C   UNL     1      37.808 -10.343   1.977  1.00  0.00     0.026 A 
HETATM   29  C   UNL     1      37.450 -11.562   1.420  1.00  0.00     0.035 A 
HETATM   30 CL   UNL     1      36.193 -11.638   0.251  1.00  0.00    -0.084 Cl
BRANCH  22  31
HETATM   31  N   UNL     1      39.595 -15.060   2.691  1.00  0.00    -0.272 NA
HETATM   32  H   UNL     1      39.008 -14.919   1.871  1.00  0.00     0.129 HD
BRANCH  31  33
HETATM   33  C   UNL     1      40.750 -15.904   2.390  1.00  0.00     0.061 C 
HETATM   34  C   UNL     1      40.313 -17.313   1.969  1.00  0.00     0.020 C 
HETATM   35  C   UNL     1      41.322 -17.723   0.909  1.00  0.00     0.002 C 
HETATM   36  C   UNL     1      41.514 -16.443   0.117  1.00  0.00     0.002 C 
HETATM   37  C   UNL     1      41.516 -15.343   1.174  1.00  0.00     0.020 C 
ENDBRANCH  31  33
ENDBRANCH  22  31
ENDBRANCH   1  20
TORSDOF 7
ENDMDL
MODEL 6
REMARK VINA RESULT:      -8.8      4.178      9.547
REMARK  7 active torsions:
REMARK  status: ('A' for Active; 'I' for Inactive)
REMARK    1  A    between atoms: C_2  and  C_3 
REMARK    2  A    between atoms: C_3  and  C_4 
REMARK       I    between atoms: C_4  and  N_5 
REMARK    3  A    between atoms: N_5  and  C_6 
REMARK    4  A    between atoms: C_6  and  C_7 
REMARK    5  A    between atoms: C_9  and  N_10 
REMARK    6  A    between atoms: N_10  and  C_11 
REMARK    7  A    between atoms: C_27  and  N_28 
ROOT
HETATM    1  C   UNL     1      42.220 -15.490   6.300  1.00  0.00     0.203 C 
ENDROOT
BRANCH   1   2
HETATM    2  N   UNL     1      42.931 -14.266   6.634  1.00  0.00    -0.354 N 
HETATM    3  C   UNL     1      44.146 -14.302   7.273  1.00  0.00     0.222 C 
HETATM    4  O   UNL     1      44.716 -15.356   7.545  1.00  0.00    -0.273 OA
HETATM    5  H   UNL     1      42.387 -13.411   6.600  1.00  0.00     0.162 HD
BRANCH   3   6
HETATM    6  C   UNL     1      44.748 -12.935   7.559  1.00  0.00     0.141 C 
BRANCH   6   7
HETATM    7  C   UNL     1      44.266 -12.290   8.837  1.00  0.00    -0.049 A 
HETATM    8  C   UNL     1      43.282 -11.299   8.820  1.00  0.00     0.010 A 
HETATM    9  C   UNL     1      42.789 -10.756  10.015  1.00  0.00     0.030 A 
HETATM   10  C   UNL     1      43.254 -11.194  11.263  1.00  0.00     0.039 A 
HETATM   11  C   UNL     1      44.249 -12.179  11.270  1.00  0.00     0.030 A 
HETATM   12  C   UNL     1      44.747 -12.721  10.077  1.00  0.00     0.010 A 
BRANCH  10  13
HETATM   13  N   UNL     1      42.714 -10.664  12.463  1.00  0.00    -0.298 N 
HETATM   14  C   UNL     1      41.482 -10.993  13.059  1.00  0.00     0.323 C 
HETATM   15  O   UNL     1      40.609 -11.762  12.692  1.00  0.00    -0.247 OA
HETATM   16  N   UNL     1      41.362 -10.247  14.228  1.00  0.00    -0.341 N 
HETATM   17  C   UNL     1      42.382  -9.245  14.301  1.00  0.00     0.144 C 
HETATM   18  H   UNL     1      40.469 -10.223  14.700  1.00  0.00     0.164 HD
HETATM   19  C   UNL     1      43.425  -9.721  13.303  1.00  0.00     0.153 C 
ENDBRANCH  10  13
ENDBRANCH   6   7
ENDBRANCH   3   6
ENDBRANCH   1   2
BRANCH   1  20
HETATM   20  C   UNL     1      42.192 -15.756   4.810  1.00  0.00     0.146 A 
HETATM   21  N   UNL     1      42.974 -16.749   4.342  1.00  0.00    -0.219 NA
HETATM   22  C   UNL     1      42.976 -16.969   3.017  1.00  0.00     0.118 A 
HETATM   23  C   UNL     1      42.169 -16.223   2.139  1.00  0.00     0.035 A 
HETATM   24  C   UNL     1      41.397 -15.216   2.733  1.00  0.00     0.072 A 
HETATM   25  C   UNL     1      42.087 -16.433   0.739  1.00  0.00     0.041 A 
HETATM   26  N   UNL     1      41.414 -14.973   4.045  1.00  0.00    -0.231 NA
HETATM   27  C   UNL     1      40.576 -14.439   1.924  1.00  0.00     0.034 A 
HETATM   28  C   UNL     1      40.498 -14.637   0.543  1.00  0.00     0.026 A 
HETATM   29  C   UNL     1      41.255 -15.639  -0.046  1.00  0.00     0.035 A 
HETATM   30 CL   UNL     1      41.165 -15.903  -1.742  1.00  0.00    -0.084 Cl
BRANCH  22  31
HETATM   31  N   UNL     1      43.809 -17.983   2.490  1.00  0.00    -0.272 NA
HETATM   32  H   UNL     1      44.770 -17.738   2.719  1.00  0.00     0.129 HD
BRANCH  31  33
HETATM   33  C   UNL     1      43.492 -19.355   2.886  1.00  0.00     0.061 C 
HETATM   34  C   UNL     1      42.877 -20.140   1.720  1.00  0.00     0.020 C 
HETATM   35  C   UNL     1      43.415 -21.551   1.887  1.00  0.00     0.002 C 
HETATM   36  C   UNL     1      44.856 -21.313   2.299  1.00  0.00     0.002 C 
HETATM   37  C   UNL     1      44.785 -20.117   3.243  1.00  0.00     0.020 C 
ENDBRANCH  31  33
ENDBRANCH  22  31
ENDBRANCH   1  20
TORSDOF 7
ENDMDL
MODEL 7
REMARK VINA RESULT:      -8.7      2.263      2.929
REMARK  7 active torsions:
REMARK  status: ('A' for Active; 'I' for Inactive)
REMARK    1  A    between atoms: C_2  and  C_3 
REMARK    2  A    between atoms: C_3  and  C_4 
REMARK       I    between atoms: C_4  and  N_5 
REMARK    3  A    between atoms: N_5  and  C_6 
REMARK    4  A    between atoms: C_6  and  C_7 
REMARK    5  A    between atoms: C_9  and  N_10 
REMARK    6  A    between atoms: N_10  and  C_11 
REMARK    7  A    between atoms: C_27  and  N_28 
ROOT
HETATM    1  C   UNL     1      39.795 -13.903   1.635  1.00  0.00     0.203 C 
ENDROOT
BRANCH   1   2
HETATM    2  N   UNL     1      41.035 -14.540   1.223  1.00  0.00    -0.354 N 
HETATM    3  C   UNL     1      41.202 -15.899   1.319  1.00  0.00     0.222 C 
HETATM    4  O   UNL     1      40.307 -16.647   1.703  1.00  0.00    -0.273 OA
HETATM    5  H   UNL     1      41.833 -13.925   1.102  1.00  0.00     0.162 HD
BRANCH   3   6
HETATM    6  C   UNL     1      42.561 -16.402   0.857  1.00  0.00     0.141 C 
BRANCH   6   7
HETATM    7  C   UNL     1      43.105 -17.566   1.650  1.00  0.00    -0.049 A 
HETATM    8  C   UNL     1      43.515 -17.409   2.977  1.00  0.00     0.010 A 
HETATM    9  C   UNL     1      43.952 -18.508   3.729  1.00  0.00     0.030 A 
HETATM   10  C   UNL     1      43.979 -19.801   3.185  1.00  0.00     0.039 A 
HETATM   11  C   UNL     1      43.578 -19.947   1.852  1.00  0.00     0.030 A 
HETATM   12  C   UNL     1      43.146 -18.848   1.095  1.00  0.00     0.010 A 
BRANCH  10  13
HETATM   13  N   UNL     1      44.384 -20.908   3.973  1.00  0.00    -0.298 N 
HETATM   14  C   UNL     1      44.660 -22.214   3.526  1.00  0.00     0.323 C 
HETATM   15  O   UNL     1      44.598 -22.694   2.406  1.00  0.00    -0.247 OA
HETATM   16  N   UNL     1      45.034 -22.972   4.632  1.00  0.00    -0.341 N 
HETATM   17  C   UNL     1      44.781 -22.262   5.847  1.00  0.00     0.144 C 
HETATM   18  H   UNL     1      45.105 -23.976   4.532  1.00  0.00     0.164 HD
HETATM   19  C   UNL     1      44.641 -20.816   5.397  1.00  0.00     0.153 C 
ENDBRANCH  10  13
ENDBRANCH   6   7
ENDBRANCH   3   6
ENDBRANCH   1   2
BRANCH   1  20
HETATM   20  C   UNL     1      39.861 -13.360   3.047  1.00  0.00     0.146 A 
HETATM   21  N   UNL     1      40.328 -14.182   4.007  1.00  0.00    -0.219 NA
HETATM   22  C   UNL     1      40.359 -13.716   5.266  1.00  0.00     0.118 A 
HETATM   23  C   UNL     1      39.958 -12.406   5.582  1.00  0.00     0.035 A 
HETATM   24  C   UNL     1      39.488 -11.639   4.508  1.00  0.00     0.072 A 
HETATM   25  C   UNL     1      40.008 -11.834   6.880  1.00  0.00     0.041 A 
HETATM   26  N   UNL     1      39.426 -12.107   3.260  1.00  0.00    -0.231 NA
HETATM   27  C   UNL     1      39.073 -10.334   4.749  1.00  0.00     0.034 A 
HETATM   28  C   UNL     1      39.115  -9.769   6.027  1.00  0.00     0.026 A 
HETATM   29  C   UNL     1      39.587 -10.524   7.091  1.00  0.00     0.035 A 
HETATM   30 CL   UNL     1      39.653  -9.843   8.667  1.00  0.00    -0.084 Cl
BRANCH  22  31
HETATM   31  N   UNL     1      40.815 -14.564   6.301  1.00  0.00    -0.272 NA
HETATM   32  H   UNL     1      39.999 -15.021   6.703  1.00  0.00     0.129 HD
BRANCH  31  33
HETATM   33  C   UNL     1      41.852 -15.530   5.942  1.00  0.00     0.061 C 
HETATM   34  C   UNL     1      43.239 -15.043   6.382  1.00  0.00     0.020 C 
HETATM   35  C   UNL     1      43.971 -16.309   6.798  1.00  0.00     0.002 C 
HETATM   36  C   UNL     1      42.894 -17.094   7.524  1.00  0.00     0.002 C 
HETATM   37  C   UNL     1      41.633 -16.854   6.701  1.00  0.00     0.020 C 
ENDBRANCH  31  33
ENDBRANCH  22  31
ENDBRANCH   1  20
TORSDOF 7
ENDMDL
MODEL 8
REMARK VINA RESULT:      -8.6      4.048      9.683
REMARK  7 active torsions:
REMARK  status: ('A' for Active; 'I' for Inactive)
REMARK    1  A    between atoms: C_2  and  C_3 
REMARK    2  A    between atoms: C_3  and  C_4 
REMARK       I    between atoms: C_4  and  N_5 
REMARK    3  A    between atoms: N_5  and  C_6 
REMARK    4  A    between atoms: C_6  and  C_7 
REMARK    5  A    between atoms: C_9  and  N_10 
REMARK    6  A    between atoms: N_10  and  C_11 
REMARK    7  A    between atoms: C_27  and  N_28 
ROOT
HETATM    1  C   UNL     1      43.228 -15.569   6.418  1.00  0.00     0.203 C 
ENDROOT
BRANCH   1   2
HETATM    2  N   UNL     1      42.280 -14.505   6.134  1.00  0.00    -0.354 N 
HETATM    3  C   UNL     1      42.655 -13.388   5.428  1.00  0.00     0.222 C 
HETATM    4  O   UNL     1      43.782 -13.253   4.960  1.00  0.00    -0.273 OA
HETATM    5  H   UNL     1      41.424 -14.512   6.679  1.00  0.00     0.162 HD
BRANCH   3   6
HETATM    6  C   UNL     1      41.545 -12.367   5.227  1.00  0.00     0.141 C 
BRANCH   6   7
HETATM    7  C   UNL     1      41.024 -11.745   6.502  1.00  0.00    -0.049 A 
HETATM    8  C   UNL     1      39.736 -12.020   6.967  1.00  0.00     0.010 A 
HETATM    9  C   UNL     1      39.285 -11.496   8.186  1.00  0.00     0.030 A 
HETATM   10  C   UNL     1      40.111 -10.692   8.985  1.00  0.00     0.039 A 
HETATM   11  C   UNL     1      41.396 -10.412   8.506  1.00  0.00     0.030 A 
HETATM   12  C   UNL     1      41.848 -10.931   7.284  1.00  0.00     0.010 A 
BRANCH  10  13
HETATM   13  N   UNL     1      39.654 -10.204  10.236  1.00  0.00    -0.298 N 
HETATM   14  C   UNL     1      40.117 -10.574  11.513  1.00  0.00     0.323 C 
HETATM   15  O   UNL     1      40.969 -11.383  11.839  1.00  0.00    -0.247 OA
HETATM   16  N   UNL     1      39.401  -9.839  12.454  1.00  0.00    -0.341 N 
HETATM   17  C   UNL     1      38.299  -9.162  11.843  1.00  0.00     0.144 C 
HETATM   18  H   UNL     1      39.477 -10.094  13.430  1.00  0.00     0.164 HD
HETATM   19  C   UNL     1      38.651  -9.166  10.364  1.00  0.00     0.153 C 
ENDBRANCH  10  13
ENDBRANCH   6   7
ENDBRANCH   3   6
ENDBRANCH   1   2
BRANCH   1  20
HETATM   20  C   UNL     1      43.253 -16.629   5.338  1.00  0.00     0.146 A 
HETATM   21  N   UNL     1      42.498 -16.416   4.242  1.00  0.00    -0.219 NA
HETATM   22  C   UNL     1      42.492 -17.369   3.294  1.00  0.00     0.118 A 
HETATM   23  C   UNL     1      43.269 -18.535   3.410  1.00  0.00     0.035 A 
HETATM   24  C   UNL     1      44.015 -18.653   4.590  1.00  0.00     0.072 A 
HETATM   25  C   UNL     1      43.347 -19.557   2.429  1.00  0.00     0.041 A 
HETATM   26  N   UNL     1      44.001 -17.725   5.548  1.00  0.00    -0.231 NA
HETATM   27  C   UNL     1      44.805 -19.782   4.771  1.00  0.00     0.034 A 
HETATM   28  C   UNL     1      44.879 -20.795   3.810  1.00  0.00     0.026 A 
HETATM   29  C   UNL     1      44.148 -20.676   2.637  1.00  0.00     0.035 A 
HETATM   30 CL   UNL     1      44.233 -21.907   1.441  1.00  0.00    -0.084 Cl
BRANCH  22  31
HETATM   31  N   UNL     1      41.687 -17.191   2.147  1.00  0.00    -0.272 NA
HETATM   32  H   UNL     1      40.754 -16.937   2.465  1.00  0.00     0.129 HD
BRANCH  31  33
HETATM   33  C   UNL     1      42.187 -16.255   1.140  1.00  0.00     0.061 C 
HETATM   34  C   UNL     1      41.377 -16.354  -0.159  1.00  0.00     0.020 C 
HETATM   35  C   UNL     1      41.322 -14.928  -0.681  1.00  0.00     0.002 C 
HETATM   36  C   UNL     1      41.113 -14.116   0.584  1.00  0.00     0.002 C 
HETATM   37  C   UNL     1      41.995 -14.803   1.622  1.00  0.00     0.020 C 
ENDBRANCH  31  33
ENDBRANCH  22  31
ENDBRANCH   1  20
TORSDOF 7
ENDMDL
MODEL 9
REMARK VINA RESULT:      -8.6      4.268      9.559
REMARK  7 active torsions:
REMARK  status: ('A' for Active; 'I' for Inactive)
REMARK    1  A    between atoms: C_2  and  C_3 
REMARK    2  A    between atoms: C_3  and  C_4 
REMARK       I    between atoms: C_4  and  N_5 
REMARK    3  A    between atoms: N_5  and  C_6 
REMARK    4  A    between atoms: C_6  and  C_7 
REMARK    5  A    between atoms: C_9  and  N_10 
REMARK    6  A    between atoms: N_10  and  C_11 
REMARK    7  A    between atoms: C_27  and  N_28 
ROOT
HETATM    1  C   UNL     1      40.236 -14.639   5.733  1.00  0.00     0.203 C 
ENDROOT
BRANCH   1   2
HETATM    2  N   UNL     1      40.674 -13.305   6.110  1.00  0.00    -0.354 N 
HETATM    3  C   UNL     1      39.797 -12.249   6.134  1.00  0.00     0.222 C 
HETATM    4  O   UNL     1      38.600 -12.382   5.892  1.00  0.00    -0.273 OA
HETATM    5  H   UNL     1      41.676 -13.149   6.112  1.00  0.00     0.162 HD
BRANCH   3   6
HETATM    6  C   UNL     1      40.419 -10.922   6.540  1.00  0.00     0.141 C 
BRANCH   6   7
HETATM    7  C   UNL     1      40.860 -10.849   7.982  1.00  0.00    -0.049 A 
HETATM    8  C   UNL     1      42.191 -10.592   8.320  1.00  0.00     0.010 A 
HETATM    9  C   UNL     1      42.579 -10.456   9.660  1.00  0.00     0.030 A 
HETATM   10  C   UNL     1      41.648 -10.559  10.704  1.00  0.00     0.039 A 
HETATM   11  C   UNL     1      40.319 -10.829  10.357  1.00  0.00     0.030 A 
HETATM   12  C   UNL     1      39.929 -10.971   9.018  1.00  0.00     0.010 A 
BRANCH  10  13
HETATM   13  N   UNL     1      42.050 -10.377  12.052  1.00  0.00    -0.298 N 
HETATM   14  C   UNL     1      41.474 -10.958  13.197  1.00  0.00     0.323 C 
HETATM   15  O   UNL     1      40.518 -11.708  13.304  1.00  0.00    -0.247 OA
HETATM   16  N   UNL     1      42.191 -10.516  14.305  1.00  0.00    -0.341 N 
HETATM   17  C   UNL     1      43.086  -9.460  13.946  1.00  0.00     0.144 C 
HETATM   18  H   UNL     1      41.818 -10.694  15.228  1.00  0.00     0.164 HD
HETATM   19  C   UNL     1      43.202  -9.584  12.436  1.00  0.00     0.153 C 
ENDBRANCH  10  13
ENDBRANCH   6   7
ENDBRANCH   3   6
ENDBRANCH   1   2
BRANCH   1  20
HETATM   20  C   UNL     1      40.603 -14.990   4.307  1.00  0.00     0.146 A 
HETATM   21  N   UNL     1      41.629 -15.844   4.122  1.00  0.00    -0.219 NA
HETATM   22  C   UNL     1      41.979 -16.134   2.858  1.00  0.00     0.118 A 
HETATM   23  C   UNL     1      41.285 -15.603   1.756  1.00  0.00     0.035 A 
HETATM   24  C   UNL     1      40.237 -14.726   2.064  1.00  0.00     0.072 A 
HETATM   25  C   UNL     1      41.570 -15.902   0.399  1.00  0.00     0.041 A 
HETATM   26  N   UNL     1      39.904 -14.410   3.316  1.00  0.00    -0.231 NA
HETATM   27  C   UNL     1      39.509 -14.162   1.022  1.00  0.00     0.034 A 
HETATM   28  C   UNL     1      39.791 -14.450  -0.317  1.00  0.00     0.026 A 
HETATM   29  C   UNL     1      40.824 -15.324  -0.624  1.00  0.00     0.035 A 
HETATM   30 CL   UNL     1      41.179 -15.695  -2.264  1.00  0.00    -0.084 Cl
BRANCH  22  31
HETATM   31  N   UNL     1      43.070 -17.002   2.630  1.00  0.00    -0.272 NA
HETATM   32  H   UNL     1      43.867 -16.632   3.143  1.00  0.00     0.129 HD
BRANCH  31  33
HETATM   33  C   UNL     1      42.848 -18.417   2.923  1.00  0.00     0.061 C 
HETATM   34  C   UNL     1      42.933 -19.268   1.649  1.00  0.00     0.020 C 
HETATM   35  C   UNL     1      43.575 -20.568   2.103  1.00  0.00     0.002 C 
HETATM   36  C   UNL     1      44.637 -20.095   3.078  1.00  0.00     0.002 C 
HETATM   37  C   UNL     1      43.969 -18.953   3.837  1.00  0.00     0.020 C 
ENDBRANCH  31  33
ENDBRANCH  22  31
ENDBRANCH   1  20
TORSDOF 7
ENDMDL
MODEL 10
REMARK VINA RESULT:      -8.6      3.582      5.563
REMARK  7 active torsions:
REMARK  status: ('A' for Active; 'I' for Inactive)
REMARK    1  A    between atoms: C_2  and  C_3 
REMARK    2  A    between atoms: C_3  and  C_4 
REMARK       I    between atoms: C_4  and  N_5 
REMARK    3  A    between atoms: N_5  and  C_6 
REMARK    4  A    between atoms: C_6  and  C_7 
REMARK    5  A    between atoms: C_9  and  N_10 
REMARK    6  A    between atoms: N_10  and  C_11 
REMARK    7  A    between atoms: C_27  and  N_28 
ROOT
HETATM    1  C   UNL     1      39.466 -10.568   7.987  1.00  0.00     0.203 C 
ENDROOT
BRANCH   1   2
HETATM    2  N   UNL     1      40.265 -11.180   6.938  1.00  0.00    -0.354 N 
HETATM    3  C   UNL     1      39.679 -11.912   5.935  1.00  0.00     0.222 C 
HETATM    4  O   UNL     1      38.462 -12.044   5.841  1.00  0.00    -0.273 OA
HETATM    5  H   UNL     1      41.261 -11.247   7.117  1.00  0.00     0.162 HD
BRANCH   3   6
HETATM    6  C   UNL     1      40.657 -12.491   4.924  1.00  0.00     0.141 C 
BRANCH   6   7
HETATM    7  C   UNL     1      41.253 -13.822   5.317  1.00  0.00    -0.049 A 
HETATM    8  C   UNL     1      42.631 -13.974   5.493  1.00  0.00     0.010 A 
HETATM    9  C   UNL     1      43.170 -15.193   5.926  1.00  0.00     0.030 A 
HETATM   10  C   UNL     1      42.350 -16.294   6.211  1.00  0.00     0.039 A 
HETATM   11  C   UNL     1      40.972 -16.137   6.021  1.00  0.00     0.030 A 
HETATM   12  C   UNL     1      40.430 -14.920   5.583  1.00  0.00     0.010 A 
BRANCH  10  13
HETATM   13  N   UNL     1      42.908 -17.507   6.690  1.00  0.00    -0.298 N 
HETATM   14  C   UNL     1      43.395 -17.766   7.985  1.00  0.00     0.323 C 
HETATM   15  O   UNL     1      43.473 -17.036   8.959  1.00  0.00    -0.247 OA
HETATM   16  N   UNL     1      43.836 -19.086   8.017  1.00  0.00    -0.341 N 
HETATM   17  C   UNL     1      43.876 -19.644   6.700  1.00  0.00     0.144 C 
HETATM   18  H   UNL     1      44.374 -19.399   8.814  1.00  0.00     0.164 HD
HETATM   19  C   UNL     1      42.990 -18.712   5.888  1.00  0.00     0.153 C 
ENDBRANCH  10  13
ENDBRANCH   6   7
ENDBRANCH   3   6
ENDBRANCH   1   2
BRANCH   1  20
HETATM   20  C   UNL     1      40.227 -10.428   9.289  1.00  0.00     0.146 A 
HETATM   21  N   UNL     1      41.490 -10.896   9.323  1.00  0.00    -0.219 NA
HETATM   22  C   UNL     1      42.159 -10.803  10.485  1.00  0.00     0.118 A 
HETATM   23  C   UNL     1      41.588 -10.207  11.623  1.00  0.00     0.035 A 
HETATM   24  C   UNL     1      40.269  -9.756  11.476  1.00  0.00     0.072 A 
HETATM   25  C   UNL     1      42.251 -10.033  12.865  1.00  0.00     0.041 A 
HETATM   26  N   UNL     1      39.590  -9.873  10.334  1.00  0.00    -0.231 NA
HETATM   27  C   UNL     1      39.642  -9.157  12.563  1.00  0.00     0.034 A 
HETATM   28  C   UNL     1      40.289  -8.990  13.790  1.00  0.00     0.026 A 
HETATM   29  C   UNL     1      41.598  -9.429  13.936  1.00  0.00     0.035 A 
HETATM   30 CL   UNL     1      42.412  -9.224  15.435  1.00  0.00    -0.084 Cl
BRANCH  22  31
HETATM   31  N   UNL     1      43.475 -11.311  10.563  1.00  0.00    -0.272 NA
HETATM   32  H   UNL     1      43.406 -12.301  10.790  1.00  0.00     0.129 HD
BRANCH  31  33
HETATM   33  C   UNL     1      44.331 -11.083   9.399  1.00  0.00     0.061 C 
HETATM   34  C   UNL     1      45.808 -10.998   9.806  1.00  0.00     0.020 C 
HETATM   35  C   UNL     1      46.556 -11.648   8.654  1.00  0.00     0.002 C 
HETATM   36  C   UNL     1      45.669 -12.827   8.302  1.00  0.00     0.002 C 
HETATM   37  C   UNL     1      44.250 -12.284   8.435  1.00  0.00     0.020 C 
ENDBRANCH  31  33
ENDBRANCH  22  31
ENDBRANCH   1  20
TORSDOF 7
ENDMDL
