MODEL 1
REMARK VINA RESULT:      -7.8      0.000      0.000
REMARK  6 active torsions:
REMARK  status: ('A' for Active; 'I' for Inactive)
REMARK    1  A    between atoms: N_1  and  C_2 
REMARK    2  A    between atoms: C_2  and  C_3 
REMARK    3  A    between atoms: C_2  and  C_11 
REMARK    4  A    between atoms: C_3  and  C_4 
REMARK       I    between atoms: C_11  and  N_13 
REMARK    5  A    between atoms: N_13  and  C_14 
REMARK    6  A    between atoms: C_17  and  C_20 
ROOT
HETATM    1  C   UNL     1      41.479 -15.078   1.603  1.00  0.00     0.255 C 
HETATM    2  O   UNL     1      40.461 -15.761   1.671  1.00  0.00    -0.271 OA
HETATM    3  N   UNL     1      42.757 -15.473   1.955  1.00  0.00    -0.325 N 
HETATM    4  H   UNL     1      43.454 -14.743   1.807  1.00  0.00     0.169 HD
ENDROOT
BRANCH   1   5
HETATM    5  C   UNL     1      41.437 -13.608   1.116  1.00  0.00     0.313 C 
BRANCH   5   6
HETATM    6  N   UNL     1      42.351 -12.766   1.943  1.00  0.00     0.092 N 
HETATM    7  H   UNL     1      41.811 -11.956   2.261  1.00  0.00     0.313 HD
HETATM    8  H   UNL     1      43.064 -12.370   1.324  1.00  0.00     0.313 HD
ENDBRANCH   5   6
BRANCH   5   9
HETATM    9  C   UNL     1      41.784 -13.569  -0.385  1.00  0.00     0.083 C 
BRANCH   9  10
HETATM   10  C   UNL     1      40.633 -13.935  -1.295  1.00  0.00    -0.056 A 
HETATM   11  C   UNL     1      39.342 -13.448  -1.044  1.00  0.00     0.009 A 
HETATM   12  C   UNL     1      38.286 -13.779  -1.897  1.00  0.00     0.024 A 
HETATM   13  C   UNL     1      38.516 -14.595  -3.002  1.00  0.00     0.034 A 
HETATM   14 CL   UNL     1      37.217 -14.992  -4.057  1.00  0.00    -0.084 Cl
HETATM   15  C   UNL     1      39.794 -15.087  -3.261  1.00  0.00     0.024 A 
HETATM   16  C   UNL     1      40.850 -14.761  -2.407  1.00  0.00     0.009 A 
ENDBRANCH   9  10
ENDBRANCH   5   9
ENDBRANCH   1   5
BRANCH   3  17
HETATM   17  C   UNL     1      43.197 -16.746   2.350  1.00  0.00     0.034 A 
HETATM   18  C   UNL     1      43.503 -17.665   1.342  1.00  0.00     0.030 A 
HETATM   19  C   UNL     1      43.893 -18.974   1.659  1.00  0.00     0.014 A 
HETATM   20  C   UNL     1      43.992 -19.387   2.993  1.00  0.00    -0.023 A 
HETATM   21  C   UNL     1      43.715 -18.451   3.998  1.00  0.00     0.014 A 
HETATM   22  C   UNL     1      43.320 -17.146   3.679  1.00  0.00     0.030 A 
BRANCH  20  23
HETATM   23  C   UNL     1      44.367 -20.755   3.316  1.00  0.00     0.010 A 
HETATM   24  C   UNL     1      44.326 -21.937   2.538  1.00  0.00     0.152 A 
HETATM   25  N   UNL     1      44.735 -23.018   3.210  1.00  0.00    -0.187 NA
HETATM   26  N   UNL     1      45.037 -22.535   4.424  1.00  0.00    -0.289 N 
HETATM   27  H   UNL     1      45.374 -23.181   5.130  1.00  0.00     0.188 HD
HETATM   28  C   UNL     1      44.830 -21.190   4.541  1.00  0.00     0.123 A 
ENDBRANCH  20  23
ENDBRANCH   3  17
TORSDOF 6
ENDMDL
MODEL 2
REMARK VINA RESULT:      -7.6      1.257      1.618
REMARK  6 active torsions:
REMARK  status: ('A' for Active; 'I' for Inactive)
REMARK    1  A    between atoms: N_1  and  C_2 
REMARK    2  A    between atoms: C_2  and  C_3 
REMARK    3  A    between atoms: C_2  and  C_11 
REMARK    4  A    between atoms: C_3  and  C_4 
REMARK       I    between atoms: C_11  and  N_13 
REMARK    5  A    between atoms: N_13  and  C_14 
REMARK    6  A    between atoms: C_17  and  C_20 
ROOT
HETATM    1  C   UNL     1      42.492 -13.871   2.107  1.00  0.00     0.255 C 
HETATM    2  O   UNL     1      43.419 -13.621   2.873  1.00  0.00    -0.271 OA
HETATM    3  N   UNL     1      42.122 -15.123   1.650  1.00  0.00    -0.325 N 
HETATM    4  H   UNL     1      41.316 -15.096   1.026  1.00  0.00     0.169 HD
ENDROOT
BRANCH   1   5
HETATM    5  C   UNL     1      41.605 -12.749   1.515  1.00  0.00     0.313 C 
BRANCH   5   6
HETATM    6  N   UNL     1      41.635 -11.547   2.402  1.00  0.00     0.092 N 
HETATM    7  H   UNL     1      41.873 -10.743   1.815  1.00  0.00     0.313 HD
HETATM    8  H   UNL     1      42.430 -11.643   3.038  1.00  0.00     0.313 HD
ENDBRANCH   5   6
BRANCH   5   9
HETATM    9  C   UNL     1      42.077 -12.443   0.080  1.00  0.00     0.083 C 
BRANCH   9  10
HETATM   10  C   UNL     1      41.339 -13.213  -0.990  1.00  0.00    -0.056 A 
HETATM   11  C   UNL     1      42.005 -13.651  -2.144  1.00  0.00     0.009 A 
HETATM   12  C   UNL     1      41.320 -14.374  -3.123  1.00  0.00     0.024 A 
HETATM   13  C   UNL     1      39.968 -14.664  -2.952  1.00  0.00     0.034 A 
HETATM   14 CL   UNL     1      39.128 -15.565  -4.153  1.00  0.00    -0.084 Cl
HETATM   15  C   UNL     1      39.293 -14.233  -1.812  1.00  0.00     0.024 A 
HETATM   16  C   UNL     1      39.976 -13.506  -0.834  1.00  0.00     0.009 A 
ENDBRANCH   9  10
ENDBRANCH   5   9
ENDBRANCH   1   5
BRANCH   3  17
HETATM   17  C   UNL     1      42.629 -16.375   2.032  1.00  0.00     0.034 A 
HETATM   18  C   UNL     1      43.210 -17.168   1.038  1.00  0.00     0.030 A 
HETATM   19  C   UNL     1      43.687 -18.452   1.333  1.00  0.00     0.014 A 
HETATM   20  C   UNL     1      43.598 -18.967   2.632  1.00  0.00    -0.023 A 
HETATM   21  C   UNL     1      43.045 -18.155   3.629  1.00  0.00     0.014 A 
HETATM   22  C   UNL     1      42.564 -16.874   3.332  1.00  0.00     0.030 A 
BRANCH  20  23
HETATM   23  C   UNL     1      44.066 -20.313   2.925  1.00  0.00     0.010 A 
HETATM   24  C   UNL     1      44.065 -21.489   2.136  1.00  0.00     0.152 A 
HETATM   25  N   UNL     1      44.563 -22.549   2.781  1.00  0.00    -0.187 NA
HETATM   26  N   UNL     1      44.882 -22.059   3.988  1.00  0.00    -0.289 N 
HETATM   27  H   UNL     1      45.284 -22.690   4.673  1.00  0.00     0.188 HD
HETATM   28  C   UNL     1      44.601 -20.730   4.127  1.00  0.00     0.123 A 
ENDBRANCH  20  23
ENDBRANCH   3  17
TORSDOF 6
ENDMDL
MODEL 3
REMARK VINA RESULT:      -7.5      3.547      8.524
REMARK  6 active torsions:
REMARK  status: ('A' for Active; 'I' for Inactive)
REMARK    1  A    between atoms: N_1  and  C_2 
REMARK    2  A    between atoms: C_2  and  C_3 
REMARK    3  A    between atoms: C_2  and  C_11 
REMARK    4  A    between atoms: C_3  and  C_4 
REMARK       I    between atoms: C_11  and  N_13 
REMARK    5  A    between atoms: N_13  and  C_14 
REMARK    6  A    between atoms: C_17  and  C_20 
ROOT
HETATM    1  C   UNL     1      41.443 -15.544   3.976  1.00  0.00     0.255 C 
HETATM    2  O   UNL     1      41.864 -14.391   4.029  1.00  0.00    -0.271 OA
HETATM    3  N   UNL     1      40.602 -16.066   3.011  1.00  0.00    -0.325 N 
HETATM    4  H   UNL     1      40.387 -17.052   3.161  1.00  0.00     0.169 HD
ENDROOT
BRANCH   1   5
HETATM    5  C   UNL     1      41.806 -16.589   5.060  1.00  0.00     0.313 C 
BRANCH   5   6
HETATM    6  N   UNL     1      40.947 -17.802   4.914  1.00  0.00     0.092 N 
HETATM    7  H   UNL     1      40.255 -17.776   5.668  1.00  0.00     0.313 HD
HETATM    8  H   UNL     1      41.521 -18.623   5.122  1.00  0.00     0.313 HD
ENDBRANCH   5   6
BRANCH   5   9
HETATM    9  C   UNL     1      43.311 -16.908   4.963  1.00  0.00     0.083 C 
BRANCH   9  10
HETATM   10  C   UNL     1      43.626 -18.165   4.184  1.00  0.00    -0.056 A 
HETATM   11  C   UNL     1      43.397 -18.225   2.802  1.00  0.00     0.009 A 
HETATM   12  C   UNL     1      43.703 -19.384   2.086  1.00  0.00     0.024 A 
HETATM   13  C   UNL     1      44.240 -20.487   2.747  1.00  0.00     0.034 A 
HETATM   14 CL   UNL     1      44.628 -21.909   1.861  1.00  0.00    -0.084 Cl
HETATM   15  C   UNL     1      44.471 -20.440   4.121  1.00  0.00     0.024 A 
HETATM   16  C   UNL     1      44.161 -19.284   4.838  1.00  0.00     0.009 A 
ENDBRANCH   9  10
ENDBRANCH   5   9
ENDBRANCH   1   5
BRANCH   3  17
HETATM   17  C   UNL     1      40.138 -15.453   1.837  1.00  0.00     0.034 A 
HETATM   18  C   UNL     1      40.961 -15.513   0.708  1.00  0.00     0.030 A 
HETATM   19  C   UNL     1      40.592 -14.875  -0.484  1.00  0.00     0.014 A 
HETATM   20  C   UNL     1      39.386 -14.169  -0.573  1.00  0.00    -0.023 A 
HETATM   21  C   UNL     1      38.551 -14.141   0.551  1.00  0.00     0.014 A 
HETATM   22  C   UNL     1      38.924 -14.775   1.743  1.00  0.00     0.030 A 
BRANCH  20  23
HETATM   23  C   UNL     1      39.021 -13.483  -1.803  1.00  0.00     0.010 A 
HETATM   24  C   UNL     1      37.790 -12.925  -2.225  1.00  0.00     0.152 A 
HETATM   25  N   UNL     1      37.851 -12.397  -3.451  1.00  0.00    -0.187 NA
HETATM   26  N   UNL     1      39.122 -12.615  -3.823  1.00  0.00    -0.289 N 
HETATM   27  H   UNL     1      39.416 -12.300  -4.741  1.00  0.00     0.188 HD
HETATM   28  C   UNL     1      39.861 -13.264  -2.876  1.00  0.00     0.123 A 
ENDBRANCH  20  23
ENDBRANCH   3  17
TORSDOF 6
ENDMDL
MODEL 4
REMARK VINA RESULT:      -7.4      2.127      2.465
REMARK  6 active torsions:
REMARK  status: ('A' for Active; 'I' for Inactive)
REMARK    1  A    between atoms: N_1  and  C_2 
REMARK    2  A    between atoms: C_2  and  C_3 
REMARK    3  A    between atoms: C_2  and  C_11 
REMARK    4  A    between atoms: C_3  and  C_4 
REMARK       I    between atoms: C_11  and  N_13 
REMARK    5  A    between atoms: N_13  and  C_14 
REMARK    6  A    between atoms: C_17  and  C_20 
ROOT
HETATM    1  C   UNL     1      40.866 -14.842   1.731  1.00  0.00     0.255 C 
HETATM    2  O   UNL     1      39.889 -15.515   2.048  1.00  0.00    -0.271 OA
HETATM    3  N   UNL     1      42.190 -15.235   1.798  1.00  0.00    -0.325 N 
HETATM    4  H   UNL     1      42.837 -14.516   1.475  1.00  0.00     0.169 HD
ENDROOT
BRANCH   1   5
HETATM    5  C   UNL     1      40.716 -13.388   1.219  1.00  0.00     0.313 C 
BRANCH   5   6
HETATM    6  N   UNL     1      40.046 -12.545   2.253  1.00  0.00     0.092 N 
HETATM    7  H   UNL     1      40.705 -11.807   2.517  1.00  0.00     0.313 HD
HETATM    8  H   UNL     1      39.941 -13.107   3.101  1.00  0.00     0.313 HD
ENDBRANCH   5   6
BRANCH   5   9
HETATM    9  C   UNL     1      42.105 -12.852   0.820  1.00  0.00     0.083 C 
BRANCH   9  10
HETATM   10  C   UNL     1      42.204 -12.407  -0.621  1.00  0.00    -0.056 A 
HETATM   11  C   UNL     1      42.586 -11.096  -0.939  1.00  0.00     0.009 A 
HETATM   12  C   UNL     1      42.690 -10.696  -2.274  1.00  0.00     0.024 A 
HETATM   13  C   UNL     1      42.414 -11.604  -3.294  1.00  0.00     0.034 A 
HETATM   14 CL   UNL     1      42.553 -11.112  -4.936  1.00  0.00    -0.084 Cl
HETATM   15  C   UNL     1      42.031 -12.909  -2.991  1.00  0.00     0.024 A 
HETATM   16  C   UNL     1      41.923 -13.309  -1.657  1.00  0.00     0.009 A 
ENDBRANCH   9  10
ENDBRANCH   5   9
ENDBRANCH   1   5
BRANCH   3  17
HETATM   17  C   UNL     1      42.707 -16.499   2.125  1.00  0.00     0.034 A 
HETATM   18  C   UNL     1      43.075 -17.339   1.070  1.00  0.00     0.030 A 
HETATM   19  C   UNL     1      43.544 -18.637   1.316  1.00  0.00     0.014 A 
HETATM   20  C   UNL     1      43.663 -19.117   2.626  1.00  0.00    -0.023 A 
HETATM   21  C   UNL     1      43.324 -18.259   3.679  1.00  0.00     0.014 A 
HETATM   22  C   UNL     1      42.850 -16.965   3.431  1.00  0.00     0.030 A 
BRANCH  20  23
HETATM   23  C   UNL     1      44.122 -20.476   2.875  1.00  0.00     0.010 A 
HETATM   24  C   UNL     1      44.115 -21.624   2.047  1.00  0.00     0.152 A 
HETATM   25  N   UNL     1      44.605 -22.708   2.656  1.00  0.00    -0.187 NA
HETATM   26  N   UNL     1      44.925 -22.261   3.879  1.00  0.00    -0.289 N 
HETATM   27  H   UNL     1      45.322 -22.917   4.544  1.00  0.00     0.188 HD
HETATM   28  C   UNL     1      44.652 -20.936   4.063  1.00  0.00     0.123 A 
ENDBRANCH  20  23
ENDBRANCH   3  17
TORSDOF 6
ENDMDL
MODEL 5
REMARK VINA RESULT:      -7.3      2.765      3.254
REMARK  6 active torsions:
REMARK  status: ('A' for Active; 'I' for Inactive)
REMARK    1  A    between atoms: N_1  and  C_2 
REMARK    2  A    between atoms: C_2  and  C_3 
REMARK    3  A    between atoms: C_2  and  C_11 
REMARK    4  A    between atoms: C_3  and  C_4 
REMARK       I    between atoms: C_11  and  N_13 
REMARK    5  A    between atoms: N_13  and  C_14 
REMARK    6  A    between atoms: C_17  and  C_20 
ROOT
HETATM    1  C   UNL     1      42.962 -13.773   3.193  1.00  0.00     0.255 C 
HETATM    2  O   UNL     1      44.150 -13.687   3.492  1.00  0.00    -0.271 OA
HETATM    3  N   UNL     1      42.282 -14.930   2.859  1.00  0.00    -0.325 N 
HETATM    4  H   UNL     1      41.297 -14.767   2.654  1.00  0.00     0.169 HD
ENDROOT
BRANCH   1   5
HETATM    5  C   UNL     1      42.051 -12.522   3.127  1.00  0.00     0.313 C 
BRANCH   5   6
HETATM    6  N   UNL     1      41.955 -12.029   1.720  1.00  0.00     0.092 N 
HETATM    7  H   UNL     1      41.609 -12.806   1.150  1.00  0.00     0.313 HD
HETATM    8  H   UNL     1      42.905 -11.865   1.376  1.00  0.00     0.313 HD
ENDBRANCH   5   6
BRANCH   5   9
HETATM    9  C   UNL     1      40.678 -12.871   3.731  1.00  0.00     0.083 C 
BRANCH   9  10
HETATM   10  C   UNL     1      39.506 -12.540   2.834  1.00  0.00    -0.056 A 
HETATM   11  C   UNL     1      39.017 -13.484   1.920  1.00  0.00     0.009 A 
HETATM   12  C   UNL     1      37.925 -13.176   1.105  1.00  0.00     0.024 A 
HETATM   13  C   UNL     1      37.319 -11.925   1.200  1.00  0.00     0.034 A 
HETATM   14 CL   UNL     1      35.968 -11.552   0.203  1.00  0.00    -0.084 Cl
HETATM   15  C   UNL     1      37.797 -10.978   2.103  1.00  0.00     0.024 A 
HETATM   16  C   UNL     1      38.891 -11.283   2.916  1.00  0.00     0.009 A 
ENDBRANCH   9  10
ENDBRANCH   5   9
ENDBRANCH   1   5
BRANCH   3  17
HETATM   17  C   UNL     1      42.748 -16.254   2.894  1.00  0.00     0.034 A 
HETATM   18  C   UNL     1      43.283 -16.782   1.715  1.00  0.00     0.030 A 
HETATM   19  C   UNL     1      43.715 -18.114   1.658  1.00  0.00     0.014 A 
HETATM   20  C   UNL     1      43.627 -18.944   2.782  1.00  0.00    -0.023 A 
HETATM   21  C   UNL     1      43.119 -18.398   3.968  1.00  0.00     0.014 A 
HETATM   22  C   UNL     1      42.683 -17.069   4.023  1.00  0.00     0.030 A 
BRANCH  20  23
HETATM   23  C   UNL     1      44.047 -20.334   2.708  1.00  0.00     0.010 A 
HETATM   24  C   UNL     1      43.896 -21.297   1.681  1.00  0.00     0.152 A 
HETATM   25  N   UNL     1      44.400 -22.491   2.007  1.00  0.00    -0.187 NA
HETATM   26  N   UNL     1      44.876 -22.301   3.246  1.00  0.00    -0.289 N 
HETATM   27  H   UNL     1      45.314 -23.084   3.720  1.00  0.00     0.188 HD
HETATM   28  C   UNL     1      44.687 -21.032   3.713  1.00  0.00     0.123 A 
ENDBRANCH  20  23
ENDBRANCH   3  17
TORSDOF 6
ENDMDL
MODEL 6
REMARK VINA RESULT:      -7.3      3.746      8.703
REMARK  6 active torsions:
REMARK  status: ('A' for Active; 'I' for Inactive)
REMARK    1  A    between atoms: N_1  and  C_2 
REMARK    2  A    between atoms: C_2  and  C_3 
REMARK    3  A    between atoms: C_2  and  C_11 
REMARK    4  A    between atoms: C_3  and  C_4 
REMARK       I    between atoms: C_11  and  N_13 
REMARK    5  A    between atoms: N_13  and  C_14 
REMARK    6  A    between atoms: C_17  and  C_20 
ROOT
HETATM    1  C   UNL     1      41.911 -15.575   1.994  1.00  0.00     0.255 C 
HETATM    2  O   UNL     1      40.900 -15.988   2.554  1.00  0.00    -0.271 OA
HETATM    3  N   UNL     1      41.994 -15.090   0.701  1.00  0.00    -0.325 N 
HETATM    4  H   UNL     1      42.935 -14.793   0.446  1.00  0.00     0.169 HD
ENDROOT
BRANCH   1   5
HETATM    5  C   UNL     1      43.288 -15.577   2.704  1.00  0.00     0.313 C 
BRANCH   5   6
HETATM    6  N   UNL     1      43.642 -14.194   3.144  1.00  0.00     0.092 N 
HETATM    7  H   UNL     1      43.033 -13.548   2.633  1.00  0.00     0.313 HD
HETATM    8  H   UNL     1      44.582 -13.982   2.800  1.00  0.00     0.313 HD
ENDBRANCH   5   6
BRANCH   5   9
HETATM    9  C   UNL     1      43.248 -16.582   3.871  1.00  0.00     0.083 C 
BRANCH   9  10
HETATM   10  C   UNL     1      43.613 -17.996   3.480  1.00  0.00    -0.056 A 
HETATM   11  C   UNL     1      44.252 -18.847   4.393  1.00  0.00     0.009 A 
HETATM   12  C   UNL     1      44.574 -20.157   4.031  1.00  0.00     0.024 A 
HETATM   13  C   UNL     1      44.259 -20.621   2.756  1.00  0.00     0.034 A 
HETATM   14 CL   UNL     1      44.646 -22.238   2.315  1.00  0.00    -0.084 Cl
HETATM   15  C   UNL     1      43.626 -19.785   1.838  1.00  0.00     0.024 A 
HETATM   16  C   UNL     1      43.307 -18.474   2.198  1.00  0.00     0.009 A 
ENDBRANCH   9  10
ENDBRANCH   5   9
ENDBRANCH   1   5
BRANCH   3  17
HETATM   17  C   UNL     1      40.950 -14.856  -0.208  1.00  0.00     0.034 A 
HETATM   18  C   UNL     1      41.047 -15.450  -1.470  1.00  0.00     0.030 A 
HETATM   19  C   UNL     1      40.073 -15.216  -2.450  1.00  0.00     0.014 A 
HETATM   20  C   UNL     1      38.977 -14.387  -2.184  1.00  0.00    -0.023 A 
HETATM   21  C   UNL     1      38.869 -13.821  -0.908  1.00  0.00     0.014 A 
HETATM   22  C   UNL     1      39.846 -14.052   0.069  1.00  0.00     0.030 A 
BRANCH  20  23
HETATM   23  C   UNL     1      37.985 -14.121  -3.215  1.00  0.00     0.010 A 
HETATM   24  C   UNL     1      37.210 -15.003  -4.008  1.00  0.00     0.152 A 
HETATM   25  N   UNL     1      36.420 -14.365  -4.876  1.00  0.00    -0.187 NA
HETATM   26  N   UNL     1      36.685 -13.071  -4.647  1.00  0.00    -0.289 N 
HETATM   27  H   UNL     1      36.198 -12.374  -5.201  1.00  0.00     0.188 HD
HETATM   28  C   UNL     1      37.616 -12.871  -3.669  1.00  0.00     0.123 A 
ENDBRANCH  20  23
ENDBRANCH   3  17
TORSDOF 6
ENDMDL
MODEL 7
REMARK VINA RESULT:      -7.2      2.484      3.525
REMARK  6 active torsions:
REMARK  status: ('A' for Active; 'I' for Inactive)
REMARK    1  A    between atoms: N_1  and  C_2 
REMARK    2  A    between atoms: C_2  and  C_3 
REMARK    3  A    between atoms: C_2  and  C_11 
REMARK    4  A    between atoms: C_3  and  C_4 
REMARK       I    between atoms: C_11  and  N_13 
REMARK    5  A    between atoms: N_13  and  C_14 
REMARK    6  A    between atoms: C_17  and  C_20 
ROOT
HETATM    1  C   UNL     1      41.774 -15.009   5.413  1.00  0.00     0.255 C 
HETATM    2  O   UNL     1      40.804 -15.647   5.812  1.00  0.00    -0.271 OA
HETATM    3  N   UNL     1      42.940 -15.533   4.885  1.00  0.00    -0.325 N 
HETATM    4  H   UNL     1      43.610 -14.815   4.610  1.00  0.00     0.169 HD
ENDROOT
BRANCH   1   5
HETATM    5  C   UNL     1      41.812 -13.462   5.486  1.00  0.00     0.313 C 
BRANCH   5   6
HETATM    6  N   UNL     1      42.771 -13.021   6.543  1.00  0.00     0.092 N 
HETATM    7  H   UNL     1      43.563 -12.579   6.067  1.00  0.00     0.313 HD
HETATM    8  H   UNL     1      43.169 -13.856   6.979  1.00  0.00     0.313 HD
ENDBRANCH   5   6
BRANCH   5   9
HETATM    9  C   UNL     1      42.159 -12.904   4.093  1.00  0.00     0.083 C 
BRANCH   9  10
HETATM   10  C   UNL     1      41.094 -13.143   3.048  1.00  0.00    -0.056 A 
HETATM   11  C   UNL     1      41.340 -13.988   1.957  1.00  0.00     0.009 A 
HETATM   12  C   UNL     1      40.346 -14.215   1.002  1.00  0.00     0.024 A 
HETATM   13  C   UNL     1      39.103 -13.601   1.135  1.00  0.00     0.034 A 
HETATM   14 CL   UNL     1      37.877 -13.892  -0.035  1.00  0.00    -0.084 Cl
HETATM   15  C   UNL     1      38.846 -12.758   2.214  1.00  0.00     0.024 A 
HETATM   16  C   UNL     1      39.840 -12.526   3.167  1.00  0.00     0.009 A 
ENDBRANCH   9  10
ENDBRANCH   5   9
ENDBRANCH   1   5
BRANCH   3  17
HETATM   17  C   UNL     1      43.234 -16.872   4.583  1.00  0.00     0.034 A 
HETATM   18  C   UNL     1      43.734 -17.672   5.614  1.00  0.00     0.030 A 
HETATM   19  C   UNL     1      44.104 -19.003   5.375  1.00  0.00     0.014 A 
HETATM   20  C   UNL     1      43.974 -19.562   4.098  1.00  0.00    -0.023 A 
HETATM   21  C   UNL     1      43.442 -18.764   3.077  1.00  0.00     0.014 A 
HETATM   22  C   UNL     1      43.078 -17.434   3.317  1.00  0.00     0.030 A 
BRANCH  20  23
HETATM   23  C   UNL     1      44.389 -20.934   3.848  1.00  0.00     0.010 A 
HETATM   24  C   UNL     1      44.408 -21.695   2.654  1.00  0.00     0.152 A 
HETATM   25  N   UNL     1      44.839 -22.947   2.841  1.00  0.00    -0.187 NA
HETATM   26  N   UNL     1      45.095 -22.996   4.157  1.00  0.00    -0.289 N 
HETATM   27  H   UNL     1      45.438 -23.866   4.549  1.00  0.00     0.188 HD
HETATM   28  C   UNL     1      44.839 -21.821   4.804  1.00  0.00     0.123 A 
ENDBRANCH  20  23
ENDBRANCH   3  17
TORSDOF 6
ENDMDL
MODEL 8
REMARK VINA RESULT:      -7.2      3.637      4.719
REMARK  6 active torsions:
REMARK  status: ('A' for Active; 'I' for Inactive)
REMARK    1  A    between atoms: N_1  and  C_2 
REMARK    2  A    between atoms: C_2  and  C_3 
REMARK    3  A    between atoms: C_2  and  C_11 
REMARK    4  A    between atoms: C_3  and  C_4 
REMARK       I    between atoms: C_11  and  N_13 
REMARK    5  A    between atoms: N_13  and  C_14 
REMARK    6  A    between atoms: C_17  and  C_20 
ROOT
HETATM    1  C   UNL     1      42.730 -14.284   2.439  1.00  0.00     0.255 C 
HETATM    2  O   UNL     1      43.579 -14.048   3.294  1.00  0.00    -0.271 OA
HETATM    3  N   UNL     1      42.418 -15.524   1.913  1.00  0.00    -0.325 N 
HETATM    4  H   UNL     1      41.671 -15.486   1.219  1.00  0.00     0.169 HD
ENDROOT
BRANCH   1   5
HETATM    5  C   UNL     1      41.886 -13.152   1.803  1.00  0.00     0.313 C 
BRANCH   5   6
HETATM    6  N   UNL     1      42.079 -13.137   0.322  1.00  0.00     0.092 N 
HETATM    7  H   UNL     1      41.646 -12.279  -0.032  1.00  0.00     0.313 HD
HETATM    8  H   UNL     1      41.516 -13.891  -0.079  1.00  0.00     0.313 HD
ENDBRANCH   5   6
BRANCH   5   9
HETATM    9  C   UNL     1      40.412 -13.338   2.210  1.00  0.00     0.083 C 
BRANCH   9  10
HETATM   10  C   UNL     1      40.125 -13.013   3.658  1.00  0.00    -0.056 A 
HETATM   11  C   UNL     1      39.835 -11.700   4.052  1.00  0.00     0.009 A 
HETATM   12  C   UNL     1      39.558 -11.409   5.390  1.00  0.00     0.024 A 
HETATM   13  C   UNL     1      39.569 -12.430   6.338  1.00  0.00     0.034 A 
HETATM   14 CL   UNL     1      39.216 -12.073   7.984  1.00  0.00    -0.084 Cl
HETATM   15  C   UNL     1      39.858 -13.740   5.960  1.00  0.00     0.024 A 
HETATM   16  C   UNL     1      40.139 -14.030   4.623  1.00  0.00     0.009 A 
ENDBRANCH   9  10
ENDBRANCH   5   9
ENDBRANCH   1   5
BRANCH   3  17
HETATM   17  C   UNL     1      42.904 -16.782   2.303  1.00  0.00     0.034 A 
HETATM   18  C   UNL     1      43.492 -17.581   1.317  1.00  0.00     0.030 A 
HETATM   19  C   UNL     1      43.948 -18.872   1.618  1.00  0.00     0.014 A 
HETATM   20  C   UNL     1      43.832 -19.387   2.915  1.00  0.00    -0.023 A 
HETATM   21  C   UNL     1      43.272 -18.569   3.904  1.00  0.00     0.014 A 
HETATM   22  C   UNL     1      42.811 -17.282   3.601  1.00  0.00     0.030 A 
BRANCH  20  23
HETATM   23  C   UNL     1      44.278 -20.739   3.215  1.00  0.00     0.010 A 
HETATM   24  C   UNL     1      44.310 -21.905   2.413  1.00  0.00     0.152 A 
HETATM   25  N   UNL     1      44.771 -22.975   3.068  1.00  0.00    -0.187 NA
HETATM   26  N   UNL     1      45.036 -22.501   4.294  1.00  0.00    -0.289 N 
HETATM   27  H   UNL     1      45.401 -23.141   4.991  1.00  0.00     0.188 HD
HETATM   28  C   UNL     1      44.754 -21.172   4.435  1.00  0.00     0.123 A 
ENDBRANCH  20  23
ENDBRANCH   3  17
TORSDOF 6
ENDMDL
MODEL 9
REMARK VINA RESULT:      -7.1      3.982      8.514
REMARK  6 active torsions:
REMARK  status: ('A' for Active; 'I' for Inactive)
REMARK    1  A    between atoms: N_1  and  C_2 
REMARK    2  A    between atoms: C_2  and  C_3 
REMARK    3  A    between atoms: C_2  and  C_11 
REMARK    4  A    between atoms: C_3  and  C_4 
REMARK       I    between atoms: C_11  and  N_13 
REMARK    5  A    between atoms: N_13  and  C_14 
REMARK    6  A    between atoms: C_17  and  C_20 
ROOT
HETATM    1  C   UNL     1      42.281 -15.936   4.689  1.00  0.00     0.255 C 
HETATM    2  O   UNL     1      41.065 -15.839   4.833  1.00  0.00    -0.271 OA
HETATM    3  N   UNL     1      42.965 -15.969   3.488  1.00  0.00    -0.325 N 
HETATM    4  H   UNL     1      43.975 -16.046   3.607  1.00  0.00     0.169 HD
ENDROOT
BRANCH   1   5
HETATM    5  C   UNL     1      43.232 -16.067   5.905  1.00  0.00     0.313 C 
BRANCH   5   6
HETATM    6  N   UNL     1      43.260 -14.788   6.676  1.00  0.00     0.092 N 
HETATM    7  H   UNL     1      43.709 -14.086   6.081  1.00  0.00     0.313 HD
HETATM    8  H   UNL     1      43.905 -14.906   7.461  1.00  0.00     0.313 HD
ENDBRANCH   5   6
BRANCH   5   9
HETATM    9  C   UNL     1      42.787 -17.269   6.760  1.00  0.00     0.083 C 
BRANCH   9  10
HETATM   10  C   UNL     1      43.409 -18.584   6.348  1.00  0.00    -0.056 A 
HETATM   11  C   UNL     1      43.325 -19.707   7.184  1.00  0.00     0.009 A 
HETATM   12  C   UNL     1      43.891 -20.922   6.792  1.00  0.00     0.024 A 
HETATM   13  C   UNL     1      44.541 -21.020   5.563  1.00  0.00     0.034 A 
HETATM   14 CL   UNL     1      45.227 -22.521   5.077  1.00  0.00    -0.084 Cl
HETATM   15  C   UNL     1      44.634 -19.911   4.725  1.00  0.00     0.024 A 
HETATM   16  C   UNL     1      44.072 -18.695   5.118  1.00  0.00     0.009 A 
ENDBRANCH   9  10
ENDBRANCH   5   9
ENDBRANCH   1   5
BRANCH   3  17
HETATM   17  C   UNL     1      42.457 -15.789   2.191  1.00  0.00     0.034 A 
HETATM   18  C   UNL     1      42.189 -14.480   1.780  1.00  0.00     0.030 A 
HETATM   19  C   UNL     1      41.627 -14.225   0.521  1.00  0.00     0.014 A 
HETATM   20  C   UNL     1      41.328 -15.275  -0.355  1.00  0.00    -0.023 A 
HETATM   21  C   UNL     1      41.630 -16.582   0.052  1.00  0.00     0.014 A 
HETATM   22  C   UNL     1      42.186 -16.835   1.312  1.00  0.00     0.030 A 
BRANCH  20  23
HETATM   23  C   UNL     1      40.716 -15.008  -1.647  1.00  0.00     0.010 A 
HETATM   24  C   UNL     1      40.899 -15.627  -2.907  1.00  0.00     0.152 A 
HETATM   25  N   UNL     1      40.164 -15.068  -3.874  1.00  0.00    -0.187 NA
HETATM   26  N   UNL     1      39.507 -14.086  -3.239  1.00  0.00    -0.289 N 
HETATM   27  H   UNL     1      38.874 -13.504  -3.776  1.00  0.00     0.188 HD
HETATM   28  C   UNL     1      39.805 -14.004  -1.909  1.00  0.00     0.123 A 
ENDBRANCH  20  23
ENDBRANCH   3  17
TORSDOF 6
ENDMDL
MODEL 10
REMARK VINA RESULT:      -7.1      4.993      8.893
REMARK  6 active torsions:
REMARK  status: ('A' for Active; 'I' for Inactive)
REMARK    1  A    between atoms: N_1  and  C_2 
REMARK    2  A    between atoms: C_2  and  C_3 
REMARK    3  A    between atoms: C_2  and  C_11 
REMARK    4  A    between atoms: C_3  and  C_4 
REMARK       I    between atoms: C_11  and  N_13 
REMARK    5  A    between atoms: N_13  and  C_14 
REMARK    6  A    between atoms: C_17  and  C_20 
ROOT
HETATM    1  C   UNL     1      41.247 -16.931   3.295  1.00  0.00     0.255 C 
HETATM    2  O   UNL     1      41.034 -17.501   4.362  1.00  0.00    -0.271 OA
HETATM    3  N   UNL     1      41.198 -15.567   3.069  1.00  0.00    -0.325 N 
HETATM    4  H   UNL     1      41.419 -15.315   2.106  1.00  0.00     0.169 HD
ENDROOT
BRANCH   1   5
HETATM    5  C   UNL     1      41.586 -17.723   2.008  1.00  0.00     0.313 C 
BRANCH   5   6
HETATM    6  N   UNL     1      40.995 -17.044   0.816  1.00  0.00     0.092 N 
HETATM    7  H   UNL     1      41.682 -17.107   0.060  1.00  0.00     0.313 HD
HETATM    8  H   UNL     1      40.930 -16.044   1.020  1.00  0.00     0.313 HD
ENDBRANCH   5   6
BRANCH   5   9
HETATM    9  C   UNL     1      43.115 -17.882   1.906  1.00  0.00     0.083 C 
BRANCH   9  10
HETATM   10  C   UNL     1      43.665 -19.063   2.674  1.00  0.00    -0.056 A 
HETATM   11  C   UNL     1      43.765 -20.324   2.069  1.00  0.00     0.009 A 
HETATM   12  C   UNL     1      44.287 -21.407   2.779  1.00  0.00     0.024 A 
HETATM   13  C   UNL     1      44.712 -21.234   4.095  1.00  0.00     0.034 A 
HETATM   14 CL   UNL     1      45.366 -22.567   4.964  1.00  0.00    -0.084 Cl
HETATM   15  C   UNL     1      44.617 -19.986   4.707  1.00  0.00     0.024 A 
HETATM   16  C   UNL     1      44.092 -18.904   4.000  1.00  0.00     0.009 A 
ENDBRANCH   9  10
ENDBRANCH   5   9
ENDBRANCH   1   5
BRANCH   3  17
HETATM   17  C   UNL     1      41.013 -14.536   4.003  1.00  0.00     0.034 A 
HETATM   18  C   UNL     1      42.053 -13.616   4.165  1.00  0.00     0.030 A 
HETATM   19  C   UNL     1      41.964 -12.593   5.119  1.00  0.00     0.014 A 
HETATM   20  C   UNL     1      40.828 -12.467   5.928  1.00  0.00    -0.023 A 
HETATM   21  C   UNL     1      39.777 -13.373   5.738  1.00  0.00     0.014 A 
HETATM   22  C   UNL     1      39.869 -14.397   4.788  1.00  0.00     0.030 A 
BRANCH  20  23
HETATM   23  C   UNL     1      40.754 -11.423   6.939  1.00  0.00     0.010 A 
HETATM   24  C   UNL     1      39.660 -10.939   7.696  1.00  0.00     0.152 A 
HETATM   25  N   UNL     1      39.995  -9.938   8.515  1.00  0.00    -0.187 NA
HETATM   26  N   UNL     1      41.306  -9.771   8.285  1.00  0.00    -0.289 N 
HETATM   27  H   UNL     1      41.797  -9.047   8.798  1.00  0.00     0.188 HD
HETATM   28  C   UNL     1      41.807 -10.630   7.349  1.00  0.00     0.123 A 
ENDBRANCH  20  23
ENDBRANCH   3  17
TORSDOF 6
ENDMDL
