MODEL 1
REMARK VINA RESULT:      -9.1      0.000      0.000
REMARK  6 active torsions:
REMARK  status: ('A' for Active; 'I' for Inactive)
REMARK    1  A    between atoms: C_2  and  O_3 
REMARK    2  A    between atoms: C_2  and  C_4 
REMARK    3  A    between atoms: C_6  and  N_7 
REMARK       I    between atoms: N_7  and  C_8 
REMARK    4  A    between atoms: C_8  and  C_9 
REMARK    5  A    between atoms: C_12  and  C_13 
REMARK    6  A    between atoms: C_18  and  C_19 
ROOT
HETATM    1  C   UNL     1      42.372 -14.888   2.492  1.00  0.00     0.096 A 
HETATM    2  C   UNL     1      42.063 -15.642   3.609  1.00  0.00     0.138 A 
HETATM    3  N   UNL     1      42.566 -14.944   4.680  1.00  0.00    -0.240 N 
HETATM    4  C   UNL     1      42.422 -15.337   6.069  1.00  0.00     0.221 C 
HETATM    5  C   UNL     1      41.400 -16.483   6.202  1.00  0.00     0.066 C 
HETATM    6  C   UNL     1      41.476 -17.523   5.070  1.00  0.00     0.118 C 
HETATM    7  N   UNL     1      41.422 -16.829   3.776  1.00  0.00    -0.365 N 
HETATM    8  N   UNL     1      43.173 -13.796   4.342  1.00  0.00    -0.181 NA
HETATM    9  C   UNL     1      43.101 -13.790   3.008  1.00  0.00     0.160 A 
HETATM   10  H   UNL     1      41.352 -17.474   2.986  1.00  0.00     0.161 HD
ENDROOT
BRANCH   1  11
HETATM   11  C   UNL     1      42.035 -15.127   1.100  1.00  0.00     0.261 C 
HETATM   12  N   UNL     1      41.710 -13.966   0.421  1.00  0.00    -0.323 N 
HETATM   13  H   UNL     1      41.839 -13.109   0.947  1.00  0.00     0.169 HD
HETATM   14  O   UNL     1      42.115 -16.251   0.618  1.00  0.00    -0.267 OA
BRANCH  12  15
HETATM   15  C   UNL     1      41.382 -13.826  -0.940  1.00  0.00     0.035 A 
HETATM   16  C   UNL     1      40.253 -14.399  -1.531  1.00  0.00     0.039 A 
HETATM   17  C   UNL     1      39.984 -14.225  -2.902  1.00  0.00    -0.028 A 
HETATM   18  C   UNL     1      40.872 -13.463  -3.673  1.00  0.00     0.010 A 
HETATM   19  C   UNL     1      41.998 -12.887  -3.092  1.00  0.00     0.003 A 
HETATM   20  C   UNL     1      42.246 -13.059  -1.730  1.00  0.00     0.029 A 
BRANCH  17  21
HETATM   21  C   UNL     1      38.726 -14.819  -3.499  1.00  0.00     0.147 C 
HETATM   22  C   UNL     1      39.019 -16.145  -4.192  1.00  0.00     0.044 C 
BRANCH  21  23
HETATM   23  O   UNL     1      37.750 -15.033  -2.481  1.00  0.00    -0.391 OA
HETATM   24  H   UNL     1      37.520 -14.160  -2.123  1.00  0.00     0.210 HD
ENDBRANCH  21  23
ENDBRANCH  17  21
ENDBRANCH  12  15
ENDBRANCH   1  11
BRANCH   4  25
HETATM   25  C   UNL     1      43.772 -15.643   6.683  1.00  0.00     0.409 C 
HETATM   26  F   UNL     1      44.604 -16.320   5.872  1.00  0.00    -0.169 F 
HETATM   27  F   UNL     1      44.416 -14.521   7.081  1.00  0.00    -0.169 F 
HETATM   28  F   UNL     1      43.609 -16.395   7.805  1.00  0.00    -0.169 F 
ENDBRANCH   4  25
BRANCH   6  29
HETATM   29  C   UNL     1      42.623 -18.515   5.187  1.00  0.00    -0.035 A 
HETATM   30  C   UNL     1      43.396 -18.804   4.046  1.00  0.00     0.009 A 
HETATM   31  C   UNL     1      44.451 -19.719   4.099  1.00  0.00     0.001 A 
HETATM   32  C   UNL     1      44.763 -20.354   5.295  1.00  0.00     0.000 A 
HETATM   33  C   UNL     1      44.026 -20.070   6.441  1.00  0.00     0.001 A 
HETATM   34  C   UNL     1      42.970 -19.157   6.389  1.00  0.00     0.009 A 
ENDBRANCH   6  29
TORSDOF 6
ENDMDL
MODEL 2
REMARK VINA RESULT:      -8.8      1.472      1.826
REMARK  6 active torsions:
REMARK  status: ('A' for Active; 'I' for Inactive)
REMARK    1  A    between atoms: C_2  and  O_3 
REMARK    2  A    between atoms: C_2  and  C_4 
REMARK    3  A    between atoms: C_6  and  N_7 
REMARK       I    between atoms: N_7  and  C_8 
REMARK    4  A    between atoms: C_8  and  C_9 
REMARK    5  A    between atoms: C_12  and  C_13 
REMARK    6  A    between atoms: C_18  and  C_19 
ROOT
HETATM    1  C   UNL     1      40.757 -14.723   2.899  1.00  0.00     0.096 A 
HETATM    2  C   UNL     1      40.969 -15.598   3.949  1.00  0.00     0.138 A 
HETATM    3  N   UNL     1      41.696 -14.895   4.879  1.00  0.00    -0.240 N 
HETATM    4  C   UNL     1      42.098 -15.404   6.176  1.00  0.00     0.221 C 
HETATM    5  C   UNL     1      41.371 -16.726   6.486  1.00  0.00     0.066 C 
HETATM    6  C   UNL     1      41.212 -17.653   5.268  1.00  0.00     0.118 C 
HETATM    7  N   UNL     1      40.613 -16.893   4.162  1.00  0.00    -0.365 N 
HETATM    8  N   UNL     1      41.968 -13.633   4.512  1.00  0.00    -0.181 NA
HETATM    9  C   UNL     1      41.443 -13.548   3.287  1.00  0.00     0.160 A 
HETATM   10  H   UNL     1      40.375 -17.482   3.362  1.00  0.00     0.161 HD
ENDROOT
BRANCH   1  11
HETATM   11  C   UNL     1      40.004 -14.924   1.674  1.00  0.00     0.261 C 
HETATM   12  N   UNL     1      40.712 -14.557   0.544  1.00  0.00    -0.323 N 
HETATM   13  H   UNL     1      41.677 -14.293   0.707  1.00  0.00     0.169 HD
HETATM   14  O   UNL     1      38.889 -15.431   1.699  1.00  0.00    -0.267 OA
BRANCH  12  15
HETATM   15  C   UNL     1      40.307 -14.663  -0.800  1.00  0.00     0.035 A 
HETATM   16  C   UNL     1      39.242 -13.944  -1.349  1.00  0.00     0.039 A 
HETATM   17  C   UNL     1      38.883 -14.099  -2.702  1.00  0.00    -0.028 A 
HETATM   18  C   UNL     1      39.616 -14.990  -3.497  1.00  0.00     0.010 A 
HETATM   19  C   UNL     1      40.681 -15.708  -2.958  1.00  0.00     0.003 A 
HETATM   20  C   UNL     1      41.030 -15.537  -1.619  1.00  0.00     0.029 A 
BRANCH  17  21
HETATM   21  C   UNL     1      37.754 -13.269  -3.276  1.00  0.00     0.147 C 
HETATM   22  C   UNL     1      38.199 -11.833  -3.526  1.00  0.00     0.044 C 
BRANCH  21  23
HETATM   23  O   UNL     1      37.302 -13.835  -4.505  1.00  0.00    -0.391 OA
HETATM   24  H   UNL     1      36.452 -13.413  -4.713  1.00  0.00     0.210 HD
ENDBRANCH  21  23
ENDBRANCH  17  21
ENDBRANCH  12  15
ENDBRANCH   1  11
BRANCH   4  25
HETATM   25  C   UNL     1      43.607 -15.494   6.273  1.00  0.00     0.409 C 
HETATM   26  F   UNL     1      44.047 -16.367   7.196  1.00  0.00    -0.169 F 
HETATM   27  F   UNL     1      44.174 -15.831   5.092  1.00  0.00    -0.169 F 
HETATM   28  F   UNL     1      44.122 -14.277   6.598  1.00  0.00    -0.169 F 
ENDBRANCH   4  25
BRANCH   6  29
HETATM   29  C   UNL     1      42.466 -18.419   4.877  1.00  0.00    -0.035 A 
HETATM   30  C   UNL     1      42.843 -18.467   3.520  1.00  0.00     0.009 A 
HETATM   31  C   UNL     1      43.978 -19.170   3.109  1.00  0.00     0.001 A 
HETATM   32  C   UNL     1      44.768 -19.828   4.045  1.00  0.00     0.000 A 
HETATM   33  C   UNL     1      44.427 -19.779   5.393  1.00  0.00     0.001 A 
HETATM   34  C   UNL     1      43.290 -19.078   5.806  1.00  0.00     0.009 A 
ENDBRANCH   6  29
TORSDOF 6
ENDMDL
MODEL 3
REMARK VINA RESULT:      -8.6      1.573      2.162
REMARK  6 active torsions:
REMARK  status: ('A' for Active; 'I' for Inactive)
REMARK    1  A    between atoms: C_2  and  O_3 
REMARK    2  A    between atoms: C_2  and  C_4 
REMARK    3  A    between atoms: C_6  and  N_7 
REMARK       I    between atoms: N_7  and  C_8 
REMARK    4  A    between atoms: C_8  and  C_9 
REMARK    5  A    between atoms: C_12  and  C_13 
REMARK    6  A    between atoms: C_18  and  C_19 
ROOT
HETATM    1  C   UNL     1      41.513 -14.292   3.289  1.00  0.00     0.096 A 
HETATM    2  C   UNL     1      41.490 -15.341   4.189  1.00  0.00     0.138 A 
HETATM    3  N   UNL     1      42.170 -14.897   5.297  1.00  0.00    -0.240 N 
HETATM    4  C   UNL     1      42.347 -15.653   6.521  1.00  0.00     0.221 C 
HETATM    5  C   UNL     1      41.440 -16.899   6.522  1.00  0.00     0.066 C 
HETATM    6  C   UNL     1      41.329 -17.592   5.153  1.00  0.00     0.118 C 
HETATM    7  N   UNL     1      40.963 -16.594   4.138  1.00  0.00    -0.365 N 
HETATM    8  N   UNL     1      42.630 -13.641   5.183  1.00  0.00    -0.181 NA
HETATM    9  C   UNL     1      42.275 -13.295   3.942  1.00  0.00     0.160 A 
HETATM   10  H   UNL     1      40.761 -17.013   3.227  1.00  0.00     0.161 HD
ENDROOT
BRANCH   1  11
HETATM   11  C   UNL     1      40.900 -14.194   1.976  1.00  0.00     0.261 C 
HETATM   12  N   UNL     1      41.816 -14.323   0.947  1.00  0.00    -0.323 N 
HETATM   13  H   UNL     1      42.759 -14.560   1.237  1.00  0.00     0.169 HD
HETATM   14  O   UNL     1      39.687 -14.077   1.857  1.00  0.00    -0.267 OA
BRANCH  12  15
HETATM   15  C   UNL     1      41.563 -14.326  -0.437  1.00  0.00     0.035 A 
HETATM   16  C   UNL     1      41.646 -13.189  -1.245  1.00  0.00     0.039 A 
HETATM   17  C   UNL     1      41.376 -13.258  -2.625  1.00  0.00    -0.028 A 
HETATM   18  C   UNL     1      41.019 -14.493  -3.183  1.00  0.00     0.010 A 
HETATM   19  C   UNL     1      40.937 -15.632  -2.385  1.00  0.00     0.003 A 
HETATM   20  C   UNL     1      41.218 -15.550  -1.022  1.00  0.00     0.029 A 
BRANCH  17  21
HETATM   21  C   UNL     1      41.521 -12.016  -3.479  1.00  0.00     0.147 C 
HETATM   22  C   UNL     1      41.716 -10.775  -2.615  1.00  0.00     0.044 C 
BRANCH  21  23
HETATM   23  O   UNL     1      42.636 -12.149  -4.358  1.00  0.00    -0.391 OA
HETATM   24  H   UNL     1      43.239 -12.794  -3.952  1.00  0.00     0.210 HD
ENDBRANCH  21  23
ENDBRANCH  17  21
ENDBRANCH  12  15
ENDBRANCH   1  11
BRANCH   4  25
HETATM   25  C   UNL     1      43.811 -15.959   6.758  1.00  0.00     0.409 C 
HETATM   26  F   UNL     1      44.491 -16.286   5.645  1.00  0.00    -0.169 F 
HETATM   27  F   UNL     1      44.459 -14.925   7.342  1.00  0.00    -0.169 F 
HETATM   28  F   UNL     1      43.930 -17.006   7.619  1.00  0.00    -0.169 F 
ENDBRANCH   4  25
BRANCH   6  29
HETATM   29  C   UNL     1      42.525 -18.449   4.769  1.00  0.00    -0.035 A 
HETATM   30  C   UNL     1      42.985 -18.423   3.437  1.00  0.00     0.009 A 
HETATM   31  C   UNL     1      44.071 -19.202   3.031  1.00  0.00     0.001 A 
HETATM   32  C   UNL     1      44.729 -20.013   3.950  1.00  0.00     0.000 A 
HETATM   33  C   UNL     1      44.305 -20.040   5.275  1.00  0.00     0.001 A 
HETATM   34  C   UNL     1      43.217 -19.263   5.682  1.00  0.00     0.009 A 
ENDBRANCH   6  29
TORSDOF 6
ENDMDL
MODEL 4
REMARK VINA RESULT:      -8.6      4.950      8.769
REMARK  6 active torsions:
REMARK  status: ('A' for Active; 'I' for Inactive)
REMARK    1  A    between atoms: C_2  and  O_3 
REMARK    2  A    between atoms: C_2  and  C_4 
REMARK    3  A    between atoms: C_6  and  N_7 
REMARK       I    between atoms: N_7  and  C_8 
REMARK    4  A    between atoms: C_8  and  C_9 
REMARK    5  A    between atoms: C_12  and  C_13 
REMARK    6  A    between atoms: C_18  and  C_19 
ROOT
HETATM    1  C   UNL     1      42.254 -13.434   5.690  1.00  0.00     0.096 A 
HETATM    2  C   UNL     1      42.503 -13.912   4.417  1.00  0.00     0.138 A 
HETATM    3  N   UNL     1      41.279 -13.973   3.796  1.00  0.00    -0.240 N 
HETATM    4  C   UNL     1      41.067 -14.368   2.417  1.00  0.00     0.221 C 
HETATM    5  C   UNL     1      42.409 -14.442   1.663  1.00  0.00     0.066 C 
HETATM    6  C   UNL     1      43.565 -15.016   2.501  1.00  0.00     0.118 C 
HETATM    7  N   UNL     1      43.641 -14.291   3.776  1.00  0.00    -0.365 N 
HETATM    8  N   UNL     1      40.259 -13.568   4.568  1.00  0.00    -0.181 NA
HETATM    9  C   UNL     1      40.847 -13.292   5.736  1.00  0.00     0.160 A 
HETATM   10  H   UNL     1      44.462 -14.548   4.329  1.00  0.00     0.161 HD
ENDROOT
BRANCH   1  11
HETATM   11  C   UNL     1      43.191 -13.125   6.756  1.00  0.00     0.261 C 
HETATM   12  N   UNL     1      42.764 -12.084   7.560  1.00  0.00    -0.323 N 
HETATM   13  H   UNL     1      41.829 -11.743   7.363  1.00  0.00     0.169 HD
HETATM   14  O   UNL     1      44.204 -13.796   6.915  1.00  0.00    -0.267 OA
BRANCH  12  15
HETATM   15  C   UNL     1      43.397 -11.560   8.702  1.00  0.00     0.035 A 
HETATM   16  C   UNL     1      42.729 -10.855   9.707  1.00  0.00     0.039 A 
HETATM   17  C   UNL     1      43.422 -10.352  10.824  1.00  0.00    -0.028 A 
HETATM   18  C   UNL     1      44.803 -10.571  10.917  1.00  0.00     0.010 A 
HETATM   19  C   UNL     1      45.476 -11.275   9.922  1.00  0.00     0.003 A 
HETATM   20  C   UNL     1      44.774 -11.776   8.826  1.00  0.00     0.029 A 
BRANCH  17  21
HETATM   21  C   UNL     1      42.659  -9.634  11.917  1.00  0.00     0.147 C 
HETATM   22  C   UNL     1      43.106 -10.101  13.298  1.00  0.00     0.044 C 
BRANCH  21  23
HETATM   23  O   UNL     1      42.861  -8.226  11.816  1.00  0.00    -0.391 OA
HETATM   24  H   UNL     1      42.311  -7.813  12.502  1.00  0.00     0.210 HD
ENDBRANCH  21  23
ENDBRANCH  17  21
ENDBRANCH  12  15
ENDBRANCH   1  11
BRANCH   4  25
HETATM   25  C   UNL     1      40.250 -15.642   2.343  1.00  0.00     0.409 C 
HETATM   26  F   UNL     1      40.528 -16.411   1.276  1.00  0.00    -0.169 F 
HETATM   27  F   UNL     1      40.401 -16.408   3.448  1.00  0.00    -0.169 F 
HETATM   28  F   UNL     1      38.925 -15.337   2.280  1.00  0.00    -0.169 F 
ENDBRANCH   4  25
BRANCH   6  29
HETATM   29  C   UNL     1      43.555 -16.529   2.655  1.00  0.00    -0.035 A 
HETATM   30  C   UNL     1      43.659 -17.334   1.503  1.00  0.00     0.009 A 
HETATM   31  C   UNL     1      43.640 -18.728   1.591  1.00  0.00     0.001 A 
HETATM   32  C   UNL     1      43.531 -19.347   2.831  1.00  0.00     0.000 A 
HETATM   33  C   UNL     1      43.447 -18.573   3.985  1.00  0.00     0.001 A 
HETATM   34  C   UNL     1      43.464 -17.179   3.898  1.00  0.00     0.009 A 
ENDBRANCH   6  29
TORSDOF 6
ENDMDL
MODEL 5
REMARK VINA RESULT:      -8.5      1.313      1.579
REMARK  6 active torsions:
REMARK  status: ('A' for Active; 'I' for Inactive)
REMARK    1  A    between atoms: C_2  and  O_3 
REMARK    2  A    between atoms: C_2  and  C_4 
REMARK    3  A    between atoms: C_6  and  N_7 
REMARK       I    between atoms: N_7  and  C_8 
REMARK    4  A    between atoms: C_8  and  C_9 
REMARK    5  A    between atoms: C_12  and  C_13 
REMARK    6  A    between atoms: C_18  and  C_19 
ROOT
HETATM    1  C   UNL     1      41.330 -13.582   2.941  1.00  0.00     0.096 A 
HETATM    2  C   UNL     1      41.243 -14.765   3.653  1.00  0.00     0.138 A 
HETATM    3  N   UNL     1      41.835 -14.514   4.867  1.00  0.00    -0.240 N 
HETATM    4  C   UNL     1      41.921 -15.462   5.961  1.00  0.00     0.221 C 
HETATM    5  C   UNL     1      41.023 -16.684   5.688  1.00  0.00     0.066 C 
HETATM    6  C   UNL     1      41.021 -17.142   4.218  1.00  0.00     0.118 C 
HETATM    7  N   UNL     1      40.729 -15.989   3.357  1.00  0.00    -0.365 N 
HETATM    8  N   UNL     1      42.295 -13.260   4.996  1.00  0.00    -0.181 NA
HETATM    9  C   UNL     1      42.035 -12.712   3.806  1.00  0.00     0.160 A 
HETATM   10  H   UNL     1      40.599 -16.251   2.377  1.00  0.00     0.161 HD
ENDROOT
BRANCH   1  11
HETATM   11  C   UNL     1      40.819 -13.266   1.619  1.00  0.00     0.261 C 
HETATM   12  N   UNL     1      41.551 -13.859   0.607  1.00  0.00    -0.323 N 
HETATM   13  H   UNL     1      42.274 -14.499   0.916  1.00  0.00     0.169 HD
HETATM   14  O   UNL     1      39.803 -12.595   1.483  1.00  0.00    -0.267 OA
BRANCH  12  15
HETATM   15  C   UNL     1      41.309 -13.804  -0.778  1.00  0.00     0.035 A 
HETATM   16  C   UNL     1      40.192 -14.373  -1.396  1.00  0.00     0.039 A 
HETATM   17  C   UNL     1      40.010 -14.288  -2.789  1.00  0.00    -0.028 A 
HETATM   18  C   UNL     1      40.972 -13.618  -3.556  1.00  0.00     0.010 A 
HETATM   19  C   UNL     1      42.087 -13.045  -2.949  1.00  0.00     0.003 A 
HETATM   20  C   UNL     1      42.249 -13.129  -1.566  1.00  0.00     0.029 A 
BRANCH  17  21
HETATM   21  C   UNL     1      38.764 -14.874  -3.418  1.00  0.00     0.147 C 
HETATM   22  C   UNL     1      39.061 -16.217  -4.077  1.00  0.00     0.044 C 
BRANCH  21  23
HETATM   23  O   UNL     1      37.751 -15.056  -2.431  1.00  0.00    -0.391 OA
HETATM   24  H   UNL     1      37.884 -15.940  -2.051  1.00  0.00     0.210 HD
ENDBRANCH  21  23
ENDBRANCH  17  21
ENDBRANCH  12  15
ENDBRANCH   1  11
BRANCH   4  25
HETATM   25  C   UNL     1      43.365 -15.813   6.255  1.00  0.00     0.409 C 
HETATM   26  F   UNL     1      43.526 -16.991   6.884  1.00  0.00    -0.169 F 
HETATM   27  F   UNL     1      44.120 -15.844   5.133  1.00  0.00    -0.169 F 
HETATM   28  F   UNL     1      43.919 -14.858   7.050  1.00  0.00    -0.169 F 
ENDBRANCH   4  25
BRANCH   6  29
HETATM   29  C   UNL     1      42.247 -17.933   3.792  1.00  0.00    -0.035 A 
HETATM   30  C   UNL     1      42.787 -17.717   2.508  1.00  0.00     0.009 A 
HETATM   31  C   UNL     1      43.904 -18.429   2.064  1.00  0.00     0.001 A 
HETATM   32  C   UNL     1      44.514 -19.360   2.897  1.00  0.00     0.000 A 
HETATM   33  C   UNL     1      44.011 -19.576   4.176  1.00  0.00     0.001 A 
HETATM   34  C   UNL     1      42.892 -18.867   4.621  1.00  0.00     0.009 A 
ENDBRANCH   6  29
TORSDOF 6
ENDMDL
MODEL 6
REMARK VINA RESULT:      -8.3      5.406      9.114
REMARK  6 active torsions:
REMARK  status: ('A' for Active; 'I' for Inactive)
REMARK    1  A    between atoms: C_2  and  O_3 
REMARK    2  A    between atoms: C_2  and  C_4 
REMARK    3  A    between atoms: C_6  and  N_7 
REMARK       I    between atoms: N_7  and  C_8 
REMARK    4  A    between atoms: C_8  and  C_9 
REMARK    5  A    between atoms: C_12  and  C_13 
REMARK    6  A    between atoms: C_18  and  C_19 
ROOT
HETATM    1  C   UNL     1      41.220 -11.417   5.842  1.00  0.00     0.096 A 
HETATM    2  C   UNL     1      41.790 -12.359   5.005  1.00  0.00     0.138 A 
HETATM    3  N   UNL     1      40.810 -12.698   4.103  1.00  0.00    -0.240 N 
HETATM    4  C   UNL     1      40.983 -13.619   2.997  1.00  0.00     0.221 C 
HETATM    5  C   UNL     1      42.474 -13.952   2.799  1.00  0.00     0.066 C 
HETATM    6  C   UNL     1      43.259 -14.110   4.113  1.00  0.00     0.118 C 
HETATM    7  N   UNL     1      43.023 -12.932   4.958  1.00  0.00    -0.365 N 
HETATM    8  N   UNL     1      39.652 -12.046   4.291  1.00  0.00    -0.181 NA
HETATM    9  C   UNL     1      39.887 -11.308   5.380  1.00  0.00     0.160 A 
HETATM   10  H   UNL     1      43.608 -12.924   5.797  1.00  0.00     0.161 HD
ENDROOT
BRANCH   1  11
HETATM   11  C   UNL     1      41.820 -10.682   6.941  1.00  0.00     0.261 C 
HETATM   12  N   UNL     1      42.294 -11.508   7.943  1.00  0.00    -0.323 N 
HETATM   13  H   UNL     1      42.248 -12.501   7.741  1.00  0.00     0.169 HD
HETATM   14  O   UNL     1      41.928  -9.462   6.895  1.00  0.00    -0.267 OA
BRANCH  12  15
HETATM   15  C   UNL     1      42.970 -11.137   9.120  1.00  0.00     0.035 A 
HETATM   16  C   UNL     1      42.359 -10.486  10.195  1.00  0.00     0.039 A 
HETATM   17  C   UNL     1      43.093 -10.137  11.344  1.00  0.00    -0.028 A 
HETATM   18  C   UNL     1      44.457 -10.454  11.397  1.00  0.00     0.010 A 
HETATM   19  C   UNL     1      45.073 -11.106  10.332  1.00  0.00     0.003 A 
HETATM   20  C   UNL     1      44.331 -11.455   9.204  1.00  0.00     0.029 A 
BRANCH  17  21
HETATM   21  C   UNL     1      42.389  -9.474  12.510  1.00  0.00     0.147 C 
HETATM   22  C   UNL     1      43.300  -9.395  13.730  1.00  0.00     0.044 C 
BRANCH  21  23
HETATM   23  O   UNL     1      41.977  -8.157  12.152  1.00  0.00    -0.391 OA
HETATM   24  H   UNL     1      41.724  -8.185  11.215  1.00  0.00     0.210 HD
ENDBRANCH  21  23
ENDBRANCH  17  21
ENDBRANCH  12  15
ENDBRANCH   1  11
BRANCH   4  25
HETATM   25  C   UNL     1      40.099 -14.837   3.169  1.00  0.00     0.409 C 
HETATM   26  F   UNL     1      40.609 -15.964   2.642  1.00  0.00    -0.169 F 
HETATM   27  F   UNL     1      39.822 -15.085   4.469  1.00  0.00    -0.169 F 
HETATM   28  F   UNL     1      38.898 -14.624   2.566  1.00  0.00    -0.169 F 
ENDBRANCH   4  25
BRANCH   6  29
HETATM   29  C   UNL     1      43.047 -15.434   4.831  1.00  0.00    -0.035 A 
HETATM   30  C   UNL     1      43.299 -16.635   4.139  1.00  0.00     0.009 A 
HETATM   31  C   UNL     1      43.105 -17.876   4.750  1.00  0.00     0.001 A 
HETATM   32  C   UNL     1      42.670 -17.944   6.068  1.00  0.00     0.000 A 
HETATM   33  C   UNL     1      42.433 -16.771   6.779  1.00  0.00     0.001 A 
HETATM   34  C   UNL     1      42.624 -15.528   6.168  1.00  0.00     0.009 A 
ENDBRANCH   6  29
TORSDOF 6
ENDMDL
MODEL 7
REMARK VINA RESULT:      -8.2      3.946      9.143
REMARK  6 active torsions:
REMARK  status: ('A' for Active; 'I' for Inactive)
REMARK    1  A    between atoms: C_2  and  O_3 
REMARK    2  A    between atoms: C_2  and  C_4 
REMARK    3  A    between atoms: C_6  and  N_7 
REMARK       I    between atoms: N_7  and  C_8 
REMARK    4  A    between atoms: C_8  and  C_9 
REMARK    5  A    between atoms: C_12  and  C_13 
REMARK    6  A    between atoms: C_18  and  C_19 
ROOT
HETATM    1  C   UNL     1      41.308 -15.023   1.442  1.00  0.00     0.096 A 
HETATM    2  C   UNL     1      40.754 -14.175   0.501  1.00  0.00     0.138 A 
HETATM    3  N   UNL     1      40.793 -14.863  -0.688  1.00  0.00    -0.240 N 
HETATM    4  C   UNL     1      40.262 -14.375  -1.947  1.00  0.00     0.221 C 
HETATM    5  C   UNL     1      39.405 -13.115  -1.719  1.00  0.00     0.066 C 
HETATM    6  C   UNL     1      39.972 -12.158  -0.656  1.00  0.00     0.118 C 
HETATM    7  N   UNL     1      40.249 -12.915   0.573  1.00  0.00    -0.365 N 
HETATM    8  N   UNL     1      41.327 -16.090  -0.587  1.00  0.00    -0.181 NA
HETATM    9  C   UNL     1      41.687 -16.164   0.697  1.00  0.00     0.160 A 
HETATM   10  H   UNL     1      40.518 -12.314   1.354  1.00  0.00     0.161 HD
ENDROOT
BRANCH   1  11
HETATM   11  C   UNL     1      41.469 -14.828   2.873  1.00  0.00     0.261 C 
HETATM   12  N   UNL     1      42.602 -15.443   3.372  1.00  0.00    -0.323 N 
HETATM   13  H   UNL     1      43.210 -15.859   2.675  1.00  0.00     0.169 HD
HETATM   14  O   UNL     1      40.686 -14.127   3.502  1.00  0.00    -0.267 OA
BRANCH  12  15
HETATM   15  C   UNL     1      43.085 -15.418   4.694  1.00  0.00     0.035 A 
HETATM   16  C   UNL     1      42.895 -16.455   5.611  1.00  0.00     0.039 A 
HETATM   17  C   UNL     1      43.401 -16.366   6.922  1.00  0.00    -0.028 A 
HETATM   18  C   UNL     1      44.104 -15.215   7.298  1.00  0.00     0.010 A 
HETATM   19  C   UNL     1      44.302 -14.178   6.389  1.00  0.00     0.003 A 
HETATM   20  C   UNL     1      43.804 -14.284   5.091  1.00  0.00     0.029 A 
BRANCH  17  21
HETATM   21  C   UNL     1      43.217 -17.528   7.875  1.00  0.00     0.147 C 
HETATM   22  C   UNL     1      44.121 -18.697   7.498  1.00  0.00     0.044 C 
BRANCH  21  23
HETATM   23  O   UNL     1      43.514 -17.123   9.210  1.00  0.00    -0.391 OA
HETATM   24  H   UNL     1      44.423 -16.780   9.204  1.00  0.00     0.210 HD
ENDBRANCH  21  23
ENDBRANCH  17  21
ENDBRANCH  12  15
ENDBRANCH   1  11
BRANCH   4  25
HETATM   25  C   UNL     1      41.371 -14.190  -2.962  1.00  0.00     0.409 C 
HETATM   26  F   UNL     1      41.057 -13.359  -3.972  1.00  0.00    -0.169 F 
HETATM   27  F   UNL     1      42.509 -13.729  -2.394  1.00  0.00    -0.169 F 
HETATM   28  F   UNL     1      41.692 -15.390  -3.518  1.00  0.00    -0.169 F 
ENDBRANCH   4  25
BRANCH   6  29
HETATM   29  C   UNL     1      41.135 -11.297  -1.122  1.00  0.00    -0.035 A 
HETATM   30  C   UNL     1      41.018 -10.588  -2.334  1.00  0.00     0.009 A 
HETATM   31  C   UNL     1      42.065  -9.796  -2.813  1.00  0.00     0.001 A 
HETATM   32  C   UNL     1      43.244  -9.684  -2.084  1.00  0.00     0.000 A 
HETATM   33  C   UNL     1      43.375 -10.359  -0.875  1.00  0.00     0.001 A 
HETATM   34  C   UNL     1      42.330 -11.154  -0.396  1.00  0.00     0.009 A 
ENDBRANCH   6  29
TORSDOF 6
ENDMDL
MODEL 8
REMARK VINA RESULT:      -8.2      4.048      8.675
REMARK  6 active torsions:
REMARK  status: ('A' for Active; 'I' for Inactive)
REMARK    1  A    between atoms: C_2  and  O_3 
REMARK    2  A    between atoms: C_2  and  C_4 
REMARK    3  A    between atoms: C_6  and  N_7 
REMARK       I    between atoms: N_7  and  C_8 
REMARK    4  A    between atoms: C_8  and  C_9 
REMARK    5  A    between atoms: C_12  and  C_13 
REMARK    6  A    between atoms: C_18  and  C_19 
ROOT
HETATM    1  C   UNL     1      41.058 -15.070   1.972  1.00  0.00     0.096 A 
HETATM    2  C   UNL     1      41.039 -13.762   1.524  1.00  0.00     0.138 A 
HETATM    3  N   UNL     1      39.719 -13.472   1.276  1.00  0.00    -0.240 N 
HETATM    4  C   UNL     1      39.220 -12.183   0.840  1.00  0.00     0.221 C 
HETATM    5  C   UNL     1      40.319 -11.109   0.960  1.00  0.00     0.066 C 
HETATM    6  C   UNL     1      41.723 -11.606   0.572  1.00  0.00     0.118 C 
HETATM    7  N   UNL     1      42.017 -12.840   1.313  1.00  0.00    -0.365 N 
HETATM    8  N   UNL     1      38.884 -14.491   1.531  1.00  0.00    -0.181 NA
HETATM    9  C   UNL     1      39.705 -15.477   1.903  1.00  0.00     0.160 A 
HETATM   10  H   UNL     1      42.981 -13.157   1.186  1.00  0.00     0.161 HD
ENDROOT
BRANCH   1  11
HETATM   11  C   UNL     1      42.183 -15.869   2.428  1.00  0.00     0.261 C 
HETATM   12  N   UNL     1      41.874 -17.212   2.538  1.00  0.00    -0.323 N 
HETATM   13  H   UNL     1      40.953 -17.472   2.204  1.00  0.00     0.169 HD
HETATM   14  O   UNL     1      43.281 -15.359   2.612  1.00  0.00    -0.267 OA
BRANCH  12  15
HETATM   15  C   UNL     1      42.732 -18.267   2.903  1.00  0.00     0.035 A 
HETATM   16  C   UNL     1      43.306 -18.400   4.169  1.00  0.00     0.039 A 
HETATM   17  C   UNL     1      44.161 -19.478   4.469  1.00  0.00    -0.028 A 
HETATM   18  C   UNL     1      44.430 -20.424   3.472  1.00  0.00     0.010 A 
HETATM   19  C   UNL     1      43.859 -20.301   2.208  1.00  0.00     0.003 A 
HETATM   20  C   UNL     1      43.006 -19.233   1.928  1.00  0.00     0.029 A 
BRANCH  17  21
HETATM   21  C   UNL     1      44.728 -19.616   5.866  1.00  0.00     0.147 C 
HETATM   22  C   UNL     1      45.071 -18.254   6.458  1.00  0.00     0.044 C 
BRANCH  21  23
HETATM   23  O   UNL     1      43.788 -20.268   6.718  1.00  0.00    -0.391 OA
HETATM   24  H   UNL     1      43.827 -19.817   7.577  1.00  0.00     0.210 HD
ENDBRANCH  21  23
ENDBRANCH  17  21
ENDBRANCH  12  15
ENDBRANCH   1  11
BRANCH   4  25
HETATM   25  C   UNL     1      38.607 -12.283  -0.542  1.00  0.00     0.409 C 
HETATM   26  F   UNL     1      39.168 -13.221  -1.325  1.00  0.00    -0.169 F 
HETATM   27  F   UNL     1      37.279 -12.535  -0.492  1.00  0.00    -0.169 F 
HETATM   28  F   UNL     1      38.735 -11.093  -1.190  1.00  0.00    -0.169 F 
ENDBRANCH   4  25
BRANCH   6  29
HETATM   29  C   UNL     1      41.975 -11.713  -0.924  1.00  0.00    -0.035 A 
HETATM   30  C   UNL     1      41.870 -10.555  -1.719  1.00  0.00     0.009 A 
HETATM   31  C   UNL     1      42.078 -10.605  -3.100  1.00  0.00     0.001 A 
HETATM   32  C   UNL     1      42.407 -11.809  -3.712  1.00  0.00     0.000 A 
HETATM   33  C   UNL     1      42.535 -12.962  -2.945  1.00  0.00     0.001 A 
HETATM   34  C   UNL     1      42.326 -12.915  -1.564  1.00  0.00     0.009 A 
ENDBRANCH   6  29
TORSDOF 6
ENDMDL
MODEL 9
REMARK VINA RESULT:      -8.1      4.831      8.556
REMARK  6 active torsions:
REMARK  status: ('A' for Active; 'I' for Inactive)
REMARK    1  A    between atoms: C_2  and  O_3 
REMARK    2  A    between atoms: C_2  and  C_4 
REMARK    3  A    between atoms: C_6  and  N_7 
REMARK       I    between atoms: N_7  and  C_8 
REMARK    4  A    between atoms: C_8  and  C_9 
REMARK    5  A    between atoms: C_12  and  C_13 
REMARK    6  A    between atoms: C_18  and  C_19 
ROOT
HETATM    1  C   UNL     1      40.800 -11.587   4.878  1.00  0.00     0.096 A 
HETATM    2  C   UNL     1      41.448 -12.485   4.051  1.00  0.00     0.138 A 
HETATM    3  N   UNL     1      40.490 -12.952   3.184  1.00  0.00    -0.240 N 
HETATM    4  C   UNL     1      40.735 -13.880   2.097  1.00  0.00     0.221 C 
HETATM    5  C   UNL     1      42.249 -14.057   1.869  1.00  0.00     0.066 C 
HETATM    6  C   UNL     1      43.076 -14.094   3.166  1.00  0.00     0.118 C 
HETATM    7  N   UNL     1      42.734 -12.924   3.987  1.00  0.00    -0.365 N 
HETATM    8  N   UNL     1      39.273 -12.422   3.385  1.00  0.00    -0.181 NA
HETATM    9  C   UNL     1      39.453 -11.633   4.449  1.00  0.00     0.160 A 
HETATM   10  H   UNL     1      43.334 -12.830   4.809  1.00  0.00     0.161 HD
ENDROOT
BRANCH   1  11
HETATM   11  C   UNL     1      41.343 -10.760   5.942  1.00  0.00     0.261 C 
HETATM   12  N   UNL     1      41.449 -11.437   7.144  1.00  0.00    -0.323 N 
HETATM   13  H   UNL     1      41.229 -12.426   7.103  1.00  0.00     0.169 HD
HETATM   14  O   UNL     1      41.713  -9.614   5.719  1.00  0.00    -0.267 OA
BRANCH  12  15
HETATM   15  C   UNL     1      41.974 -10.959   8.359  1.00  0.00     0.035 A 
HETATM   16  C   UNL     1      43.298 -11.149   8.762  1.00  0.00     0.039 A 
HETATM   17  C   UNL     1      43.760 -10.649   9.995  1.00  0.00    -0.028 A 
HETATM   18  C   UNL     1      42.867  -9.952  10.818  1.00  0.00     0.010 A 
HETATM   19  C   UNL     1      41.547  -9.754  10.422  1.00  0.00     0.003 A 
HETATM   20  C   UNL     1      41.106 -10.247   9.194  1.00  0.00     0.029 A 
BRANCH  17  21
HETATM   21  C   UNL     1      45.213 -10.833  10.379  1.00  0.00     0.147 C 
HETATM   22  C   UNL     1      45.458 -12.222  10.958  1.00  0.00     0.044 C 
BRANCH  21  23
HETATM   23  O   UNL     1      46.052 -10.652   9.239  1.00  0.00    -0.391 OA
HETATM   24  H   UNL     1      46.552 -11.477   9.124  1.00  0.00     0.210 HD
ENDBRANCH  21  23
ENDBRANCH  17  21
ENDBRANCH  12  15
ENDBRANCH   1  11
BRANCH   4  25
HETATM   25  C   UNL     1      39.991 -15.180   2.323  1.00  0.00     0.409 C 
HETATM   26  F   UNL     1      40.563 -16.248   1.738  1.00  0.00    -0.169 F 
HETATM   27  F   UNL     1      39.850 -15.464   3.638  1.00  0.00    -0.169 F 
HETATM   28  F   UNL     1      38.729 -15.081   1.826  1.00  0.00    -0.169 F 
ENDBRANCH   4  25
BRANCH   6  29
HETATM   29  C   UNL     1      43.024 -15.412   3.922  1.00  0.00    -0.035 A 
HETATM   30  C   UNL     1      43.294 -16.608   3.230  1.00  0.00     0.009 A 
HETATM   31  C   UNL     1      43.245 -17.846   3.877  1.00  0.00     0.001 A 
HETATM   32  C   UNL     1      42.939 -17.912   5.231  1.00  0.00     0.000 A 
HETATM   33  C   UNL     1      42.688 -16.742   5.941  1.00  0.00     0.001 A 
HETATM   34  C   UNL     1      42.734 -15.504   5.295  1.00  0.00     0.009 A 
ENDBRANCH   6  29
TORSDOF 6
ENDMDL
MODEL 10
REMARK VINA RESULT:      -8.1      3.199      3.539
REMARK  6 active torsions:
REMARK  status: ('A' for Active; 'I' for Inactive)
REMARK    1  A    between atoms: C_2  and  O_3 
REMARK    2  A    between atoms: C_2  and  C_4 
REMARK    3  A    between atoms: C_6  and  N_7 
REMARK       I    between atoms: N_7  and  C_8 
REMARK    4  A    between atoms: C_8  and  C_9 
REMARK    5  A    between atoms: C_12  and  C_13 
REMARK    6  A    between atoms: C_18  and  C_19 
ROOT
HETATM    1  C   UNL     1      40.310 -14.048   3.391  1.00  0.00     0.096 A 
HETATM    2  C   UNL     1      40.717 -15.123   4.160  1.00  0.00     0.138 A 
HETATM    3  N   UNL     1      41.656 -14.625   5.030  1.00  0.00    -0.240 N 
HETATM    4  C   UNL     1      42.317 -15.393   6.067  1.00  0.00     0.221 C 
HETATM    5  C   UNL     1      41.629 -16.760   6.249  1.00  0.00     0.066 C 
HETATM    6  C   UNL     1      41.170 -17.409   4.930  1.00  0.00     0.118 C 
HETATM    7  N   UNL     1      40.369 -16.438   4.171  1.00  0.00    -0.365 N 
HETATM    8  N   UNL     1      41.887 -13.311   4.884  1.00  0.00    -0.181 NA
HETATM    9  C   UNL     1      41.107 -12.974   3.853  1.00  0.00     0.160 A 
HETATM   10  H   UNL     1      39.939 -16.847   3.339  1.00  0.00     0.161 HD
ENDROOT
BRANCH   1  11
HETATM   11  C   UNL     1      39.298 -13.993   2.352  1.00  0.00     0.261 C 
HETATM   12  N   UNL     1      39.070 -12.707   1.895  1.00  0.00    -0.323 N 
HETATM   13  H   UNL     1      39.693 -12.000   2.269  1.00  0.00     0.169 HD
HETATM   14  O   UNL     1      38.785 -15.018   1.920  1.00  0.00    -0.267 OA
BRANCH  12  15
HETATM   15  C   UNL     1      38.198 -12.298   0.869  1.00  0.00     0.035 A 
HETATM   16  C   UNL     1      36.976 -11.659   1.095  1.00  0.00     0.039 A 
HETATM   17  C   UNL     1      36.146 -11.279   0.023  1.00  0.00    -0.028 A 
HETATM   18  C   UNL     1      36.565 -11.553  -1.285  1.00  0.00     0.010 A 
HETATM   19  C   UNL     1      37.783 -12.187  -1.520  1.00  0.00     0.003 A 
HETATM   20  C   UNL     1      38.599 -12.548  -0.448  1.00  0.00     0.029 A 
BRANCH  17  21
HETATM   21  C   UNL     1      34.851 -10.546   0.303  1.00  0.00     0.147 C 
HETATM   22  C   UNL     1      33.865 -10.713  -0.848  1.00  0.00     0.044 C 
BRANCH  21  23
HETATM   23  O   UNL     1      34.254 -11.039   1.501  1.00  0.00    -0.391 OA
HETATM   24  H   UNL     1      34.198 -12.005   1.411  1.00  0.00     0.210 HD
ENDBRANCH  21  23
ENDBRANCH  17  21
ENDBRANCH  12  15
ENDBRANCH   1  11
BRANCH   4  25
HETATM   25  C   UNL     1      43.806 -15.485   5.803  1.00  0.00     0.409 C 
HETATM   26  F   UNL     1      44.127 -15.582   4.501  1.00  0.00    -0.169 F 
HETATM   27  F   UNL     1      44.478 -14.427   6.311  1.00  0.00    -0.169 F 
HETATM   28  F   UNL     1      44.317 -16.583   6.422  1.00  0.00    -0.169 F 
ENDBRANCH   4  25
BRANCH   6  29
HETATM   29  C   UNL     1      42.277 -18.060   4.117  1.00  0.00    -0.035 A 
HETATM   30  C   UNL     1      42.347 -17.809   2.732  1.00  0.00     0.009 A 
HETATM   31  C   UNL     1      43.336 -18.395   1.939  1.00  0.00     0.001 A 
HETATM   32  C   UNL     1      44.285 -19.233   2.515  1.00  0.00     0.000 A 
HETATM   33  C   UNL     1      44.249 -19.481   3.883  1.00  0.00     0.001 A 
HETATM   34  C   UNL     1      43.258 -18.897   4.678  1.00  0.00     0.009 A 
ENDBRANCH   6  29
TORSDOF 6
ENDMDL
