MODEL 1
REMARK VINA RESULT:      -7.7      0.000      0.000
REMARK  10 active torsions:
REMARK  status: ('A' for Active; 'I' for Inactive)
REMARK    1  A    between atoms: C_2  and  C_3 
REMARK    2  A    between atoms: C_3  and  C_4 
REMARK    3  A    between atoms: C_4  and  N_5 
REMARK    4  A    between atoms: N_5  and  C_7 
REMARK    5  A    between atoms: C_7  and  C_8 
REMARK    6  A    between atoms: C_8  and  C_9 
REMARK    7  A    between atoms: C_9  and  N_10 
REMARK       I    between atoms: N_10  and  C_11 
REMARK    8  A    between atoms: C_11  and  C_12 
REMARK    9  A    between atoms: C_12  and  O_13 
REMARK   10  A    between atoms: N_14  and  C_15 
ROOT
HETATM    1  C   UNL     1      40.803 -14.514   4.922  1.00  0.00     0.256 C 
HETATM    2  N   UNL     1      41.775 -14.322   3.829  1.00  0.00    -0.254 N 
HETATM    3  C   UNL     1      42.887 -13.523   4.079  1.00  0.00     0.330 C 
HETATM    4  O   UNL     1      43.984 -13.643   3.528  1.00  0.00    -0.246 OA
HETATM    5  N   UNL     1      42.778 -12.574   5.051  1.00  0.00    -0.308 N 
HETATM    6  C   UNL     1      41.647 -12.342   5.818  1.00  0.00     0.048 A 
HETATM    7  C   UNL     1      40.609 -13.264   5.765  1.00  0.00     0.034 A 
HETATM    8  C   UNL     1      41.580 -11.211   6.634  1.00  0.00     0.030 A 
HETATM    9  C   UNL     1      40.444 -10.988   7.408  1.00  0.00     0.002 A 
HETATM   10  C   UNL     1      39.391 -11.897   7.371  1.00  0.00     0.001 A 
HETATM   11  C   UNL     1      39.474 -13.032   6.561  1.00  0.00     0.015 A 
HETATM   12  H   UNL     1      43.559 -11.930   5.103  1.00  0.00     0.170 HD
ENDROOT
BRANCH   1  13
HETATM   13  C   UNL     1      41.283 -15.701   5.869  1.00  0.00     0.279 C 
HETATM   14  N   UNL     1      42.562 -15.598   6.408  1.00  0.00    -0.356 N 
HETATM   15  H   UNL     1      43.199 -15.035   5.847  1.00  0.00     0.162 HD
HETATM   16  O   UNL     1      40.547 -16.655   6.129  1.00  0.00    -0.268 OA
BRANCH  14  17
HETATM   17  C   UNL     1      43.123 -16.696   7.165  1.00  0.00     0.124 C 
BRANCH  17  18
HETATM   18  C   UNL     1      44.389 -17.243   6.512  1.00  0.00     0.047 C 
BRANCH  18  19
HETATM   19  C   UNL     1      44.055 -18.160   5.339  1.00  0.00     0.236 C 
BRANCH  19  20
HETATM   20  N   UNL     1      44.576 -19.576   5.527  1.00  0.00    -0.075 N 
HETATM   21  H   UNL     1      45.526 -19.463   5.905  1.00  0.00     0.279 HD
HETATM   22  C   UNL     1      43.831 -20.332   6.600  1.00  0.00     0.269 C 
BRANCH  20  23
HETATM   23  C   UNL     1      44.723 -20.410   4.270  1.00  0.00     0.234 C 
BRANCH  23  24
HETATM   24  C   UNL     1      44.324 -19.660   3.001  1.00  0.00     0.027 C 
BRANCH  24  25
HETATM   25  C   UNL     1      43.554 -20.519   1.997  1.00  0.00    -0.003 C 
HETATM   26  C   UNL     1      44.206 -21.882   1.816  1.00  0.00     0.005 C 
ENDBRANCH  24  25
ENDBRANCH  23  24
ENDBRANCH  20  23
ENDBRANCH  19  20
ENDBRANCH  18  19
ENDBRANCH  17  18
ENDBRANCH  14  17
ENDBRANCH   1  13
BRANCH   1  27
HETATM   27  O   UNL     1      39.524 -14.826   4.371  1.00  0.00    -0.359 OA
HETATM   28  H   UNL     1      39.550 -15.775   4.155  1.00  0.00     0.213 HD
ENDBRANCH   1  27
BRANCH   2  29
HETATM   29  C   UNL     1      41.729 -15.133   2.630  1.00  0.00     0.042 A 
HETATM   30  C   UNL     1      42.036 -16.502   2.623  1.00  0.00     0.030 A 
HETATM   31  C   UNL     1      41.980 -17.256   1.444  1.00  0.00     0.002 A 
HETATM   32  C   UNL     1      41.604 -16.659   0.246  1.00  0.00     0.000 A 
HETATM   33  C   UNL     1      41.283 -15.309   0.228  1.00  0.00     0.002 A 
HETATM   34  C   UNL     1      41.345 -14.556   1.405  1.00  0.00     0.030 A 
ENDBRANCH   2  29
TORSDOF 10
ENDMDL
MODEL 2
REMARK VINA RESULT:      -7.7      2.691      6.460
REMARK  10 active torsions:
REMARK  status: ('A' for Active; 'I' for Inactive)
REMARK    1  A    between atoms: C_2  and  C_3 
REMARK    2  A    between atoms: C_3  and  C_4 
REMARK    3  A    between atoms: C_4  and  N_5 
REMARK    4  A    between atoms: N_5  and  C_7 
REMARK    5  A    between atoms: C_7  and  C_8 
REMARK    6  A    between atoms: C_8  and  C_9 
REMARK    7  A    between atoms: C_9  and  N_10 
REMARK       I    between atoms: N_10  and  C_11 
REMARK    8  A    between atoms: C_11  and  C_12 
REMARK    9  A    between atoms: C_12  and  O_13 
REMARK   10  A    between atoms: N_14  and  C_15 
ROOT
HETATM    1  C   UNL     1      42.391 -15.932   2.946  1.00  0.00     0.256 C 
HETATM    2  N   UNL     1      42.289 -17.155   3.765  1.00  0.00    -0.254 N 
HETATM    3  C   UNL     1      41.253 -17.234   4.691  1.00  0.00     0.330 C 
HETATM    4  O   UNL     1      40.723 -18.280   5.073  1.00  0.00    -0.246 OA
HETATM    5  N   UNL     1      40.742 -16.065   5.169  1.00  0.00    -0.308 N 
HETATM    6  C   UNL     1      41.168 -14.798   4.803  1.00  0.00     0.048 A 
HETATM    7  C   UNL     1      42.025 -14.674   3.716  1.00  0.00     0.034 A 
HETATM    8  C   UNL     1      40.719 -13.681   5.510  1.00  0.00     0.030 A 
HETATM    9  C   UNL     1      41.144 -12.410   5.132  1.00  0.00     0.002 A 
HETATM   10  C   UNL     1      42.003 -12.261   4.047  1.00  0.00     0.001 A 
HETATM   11  C   UNL     1      42.436 -13.384   3.339  1.00  0.00     0.015 A 
HETATM   12  H   UNL     1      40.090 -16.170   5.937  1.00  0.00     0.170 HD
ENDROOT
BRANCH   1  13
HETATM   13  C   UNL     1      41.437 -16.051   1.677  1.00  0.00     0.279 C 
HETATM   14  N   UNL     1      42.030 -15.896   0.427  1.00  0.00    -0.356 N 
HETATM   15  H   UNL     1      42.876 -15.329   0.443  1.00  0.00     0.162 HD
HETATM   16  O   UNL     1      40.233 -16.289   1.795  1.00  0.00    -0.268 OA
BRANCH  14  17
HETATM   17  C   UNL     1      41.213 -15.853  -0.766  1.00  0.00     0.124 C 
BRANCH  17  18
HETATM   18  C   UNL     1      41.189 -14.457  -1.384  1.00  0.00     0.047 C 
BRANCH  18  19
HETATM   19  C   UNL     1      40.148 -13.570  -0.707  1.00  0.00     0.236 C 
BRANCH  19  20
HETATM   20  N   UNL     1      38.722 -14.044  -0.941  1.00  0.00    -0.075 N 
HETATM   21  H   UNL     1      38.813 -15.022  -1.245  1.00  0.00     0.279 HD
HETATM   22  C   UNL     1      37.917 -14.119   0.333  1.00  0.00     0.269 C 
BRANCH  20  23
HETATM   23  C   UNL     1      37.951 -13.337  -2.037  1.00  0.00     0.234 C 
BRANCH  23  24
HETATM   24  C   UNL     1      38.232 -13.900  -3.429  1.00  0.00     0.027 C 
BRANCH  24  25
HETATM   25  C   UNL     1      37.868 -15.378  -3.578  1.00  0.00    -0.003 C 
HETATM   26  C   UNL     1      39.044 -16.191  -4.097  1.00  0.00     0.005 C 
ENDBRANCH  24  25
ENDBRANCH  23  24
ENDBRANCH  20  23
ENDBRANCH  19  20
ENDBRANCH  18  19
ENDBRANCH  17  18
ENDBRANCH  14  17
ENDBRANCH   1  13
BRANCH   1  27
HETATM   27  O   UNL     1      43.742 -15.759   2.517  1.00  0.00    -0.359 OA
HETATM   28  H   UNL     1      43.852 -16.335   1.740  1.00  0.00     0.213 HD
ENDBRANCH   1  27
BRANCH   2  29
HETATM   29  C   UNL     1      43.061 -18.338   3.449  1.00  0.00     0.042 A 
HETATM   30  C   UNL     1      44.070 -18.838   4.288  1.00  0.00     0.030 A 
HETATM   31  C   UNL     1      44.795 -19.988   3.951  1.00  0.00     0.002 A 
HETATM   32  C   UNL     1      44.522 -20.670   2.771  1.00  0.00     0.000 A 
HETATM   33  C   UNL     1      43.520 -20.204   1.929  1.00  0.00     0.002 A 
HETATM   34  C   UNL     1      42.801 -19.053   2.265  1.00  0.00     0.030 A 
ENDBRANCH   2  29
TORSDOF 10
ENDMDL
MODEL 3
REMARK VINA RESULT:      -7.6      2.360      6.492
REMARK  10 active torsions:
REMARK  status: ('A' for Active; 'I' for Inactive)
REMARK    1  A    between atoms: C_2  and  C_3 
REMARK    2  A    between atoms: C_3  and  C_4 
REMARK    3  A    between atoms: C_4  and  N_5 
REMARK    4  A    between atoms: N_5  and  C_7 
REMARK    5  A    between atoms: C_7  and  C_8 
REMARK    6  A    between atoms: C_8  and  C_9 
REMARK    7  A    between atoms: C_9  and  N_10 
REMARK       I    between atoms: N_10  and  C_11 
REMARK    8  A    between atoms: C_11  and  C_12 
REMARK    9  A    between atoms: C_12  and  O_13 
REMARK   10  A    between atoms: N_14  and  C_15 
ROOT
HETATM    1  C   UNL     1      42.398 -15.845   3.058  1.00  0.00     0.256 C 
HETATM    2  N   UNL     1      42.263 -17.103   3.817  1.00  0.00    -0.254 N 
HETATM    3  C   UNL     1      41.218 -17.203   4.731  1.00  0.00     0.330 C 
HETATM    4  O   UNL     1      40.661 -18.254   5.058  1.00  0.00    -0.246 OA
HETATM    5  N   UNL     1      40.729 -16.047   5.262  1.00  0.00    -0.308 N 
HETATM    6  C   UNL     1      41.186 -14.774   4.960  1.00  0.00     0.048 A 
HETATM    7  C   UNL     1      42.055 -14.618   3.886  1.00  0.00     0.034 A 
HETATM    8  C   UNL     1      40.757 -13.682   5.717  1.00  0.00     0.030 A 
HETATM    9  C   UNL     1      41.213 -12.405   5.404  1.00  0.00     0.002 A 
HETATM   10  C   UNL     1      42.084 -12.223   4.333  1.00  0.00     0.001 A 
HETATM   11  C   UNL     1      42.497 -13.320   3.574  1.00  0.00     0.015 A 
HETATM   12  H   UNL     1      40.069 -16.175   6.019  1.00  0.00     0.170 HD
ENDROOT
BRANCH   1  13
HETATM   13  C   UNL     1      41.451 -15.881   1.778  1.00  0.00     0.279 C 
HETATM   14  N   UNL     1      42.059 -15.689   0.541  1.00  0.00    -0.356 N 
HETATM   15  H   UNL     1      42.921 -15.149   0.587  1.00  0.00     0.162 HD
HETATM   16  O   UNL     1      40.241 -16.089   1.878  1.00  0.00    -0.268 OA
BRANCH  14  17
HETATM   17  C   UNL     1      41.253 -15.571  -0.654  1.00  0.00     0.124 C 
BRANCH  17  18
HETATM   18  C   UNL     1      40.874 -14.120  -0.938  1.00  0.00     0.047 C 
BRANCH  18  19
HETATM   19  C   UNL     1      39.370 -13.973  -1.156  1.00  0.00     0.236 C 
BRANCH  19  20
HETATM   20  N   UNL     1      38.671 -13.266  -0.005  1.00  0.00    -0.075 N 
HETATM   21  H   UNL     1      38.188 -12.467  -0.437  1.00  0.00     0.279 HD
HETATM   22  C   UNL     1      37.563 -14.093   0.599  1.00  0.00     0.269 C 
BRANCH  20  23
HETATM   23  C   UNL     1      39.568 -12.682   1.067  1.00  0.00     0.234 C 
BRANCH  23  24
HETATM   24  C   UNL     1      38.961 -12.763   2.467  1.00  0.00     0.027 C 
BRANCH  24  25
HETATM   25  C   UNL     1      38.530 -11.407   3.028  1.00  0.00    -0.003 C 
HETATM   26  C   UNL     1      39.444 -10.290   2.548  1.00  0.00     0.005 C 
ENDBRANCH  24  25
ENDBRANCH  23  24
ENDBRANCH  20  23
ENDBRANCH  19  20
ENDBRANCH  18  19
ENDBRANCH  17  18
ENDBRANCH  14  17
ENDBRANCH   1  13
BRANCH   1  27
HETATM   27  O   UNL     1      43.756 -15.682   2.647  1.00  0.00    -0.359 OA
HETATM   28  H   UNL     1      44.245 -16.426   3.039  1.00  0.00     0.213 HD
ENDBRANCH   1  27
BRANCH   2  29
HETATM   29  C   UNL     1      43.010 -18.287   3.449  1.00  0.00     0.042 A 
HETATM   30  C   UNL     1      42.812 -18.970   2.239  1.00  0.00     0.030 A 
HETATM   31  C   UNL     1      43.554 -20.112   1.916  1.00  0.00     0.002 A 
HETATM   32  C   UNL     1      44.521 -20.592   2.792  1.00  0.00     0.000 A 
HETATM   33  C   UNL     1      44.746 -19.928   3.990  1.00  0.00     0.002 A 
HETATM   34  C   UNL     1      44.000 -18.791   4.313  1.00  0.00     0.030 A 
ENDBRANCH   2  29
TORSDOF 10
ENDMDL
MODEL 4
REMARK VINA RESULT:      -7.5      2.342      3.845
REMARK  10 active torsions:
REMARK  status: ('A' for Active; 'I' for Inactive)
REMARK    1  A    between atoms: C_2  and  C_3 
REMARK    2  A    between atoms: C_3  and  C_4 
REMARK    3  A    between atoms: C_4  and  N_5 
REMARK    4  A    between atoms: N_5  and  C_7 
REMARK    5  A    between atoms: C_7  and  C_8 
REMARK    6  A    between atoms: C_8  and  C_9 
REMARK    7  A    between atoms: C_9  and  N_10 
REMARK       I    between atoms: N_10  and  C_11 
REMARK    8  A    between atoms: C_11  and  C_12 
REMARK    9  A    between atoms: C_12  and  O_13 
REMARK   10  A    between atoms: N_14  and  C_15 
ROOT
HETATM    1  C   UNL     1      41.154 -15.183   3.636  1.00  0.00     0.256 C 
HETATM    2  N   UNL     1      41.088 -13.923   2.872  1.00  0.00    -0.254 N 
HETATM    3  C   UNL     1      42.271 -13.214   2.681  1.00  0.00     0.330 C 
HETATM    4  O   UNL     1      42.508 -12.479   1.720  1.00  0.00    -0.246 OA
HETATM    5  N   UNL     1      43.269 -13.392   3.592  1.00  0.00    -0.308 N 
HETATM    6  C   UNL     1      43.203 -14.229   4.695  1.00  0.00     0.048 A 
HETATM    7  C   UNL     1      42.144 -15.124   4.787  1.00  0.00     0.034 A 
HETATM    8  C   UNL     1      44.199 -14.173   5.671  1.00  0.00     0.030 A 
HETATM    9  C   UNL     1      44.132 -15.021   6.773  1.00  0.00     0.002 A 
HETATM   10  C   UNL     1      43.081 -15.926   6.888  1.00  0.00     0.001 A 
HETATM   11  C   UNL     1      42.096 -15.982   5.899  1.00  0.00     0.015 A 
HETATM   12  H   UNL     1      44.052 -12.758   3.491  1.00  0.00     0.170 HD
ENDROOT
BRANCH   1  13
HETATM   13  C   UNL     1      41.564 -16.380   2.669  1.00  0.00     0.279 C 
HETATM   14  N   UNL     1      42.893 -16.430   2.259  1.00  0.00    -0.356 N 
HETATM   15  H   UNL     1      43.355 -15.522   2.256  1.00  0.00     0.162 HD
HETATM   16  O   UNL     1      40.748 -17.234   2.318  1.00  0.00    -0.268 OA
BRANCH  14  17
HETATM   17  C   UNL     1      43.315 -17.402   1.275  1.00  0.00     0.124 C 
BRANCH  17  18
HETATM   18  C   UNL     1      44.069 -18.564   1.916  1.00  0.00     0.047 C 
BRANCH  18  19
HETATM   19  C   UNL     1      43.152 -19.764   2.137  1.00  0.00     0.236 C 
BRANCH  19  20
HETATM   20  N   UNL     1      43.889 -20.984   2.668  1.00  0.00    -0.075 N 
HETATM   21  H   UNL     1      43.184 -21.512   3.199  1.00  0.00     0.279 HD
HETATM   22  C   UNL     1      44.319 -21.927   1.572  1.00  0.00     0.269 C 
BRANCH  20  23
HETATM   23  C   UNL     1      45.023 -20.713   3.636  1.00  0.00     0.234 C 
BRANCH  23  24
HETATM   24  C   UNL     1      44.673 -21.054   5.083  1.00  0.00     0.027 C 
BRANCH  24  25
HETATM   25  C   UNL     1      44.177 -19.855   5.893  1.00  0.00    -0.003 C 
HETATM   26  C   UNL     1      45.000 -18.609   5.602  1.00  0.00     0.005 C 
ENDBRANCH  24  25
ENDBRANCH  23  24
ENDBRANCH  20  23
ENDBRANCH  19  20
ENDBRANCH  18  19
ENDBRANCH  17  18
ENDBRANCH  14  17
ENDBRANCH   1  13
BRANCH   1  27
HETATM   27  O   UNL     1      39.878 -15.452   4.219  1.00  0.00    -0.359 OA
HETATM   28  H   UNL     1      40.008 -16.219   4.804  1.00  0.00     0.213 HD
ENDBRANCH   1  27
BRANCH   2  29
HETATM   29  C   UNL     1      39.904 -13.559   2.121  1.00  0.00     0.042 A 
HETATM   30  C   UNL     1      39.082 -12.477   2.470  1.00  0.00     0.030 A 
HETATM   31  C   UNL     1      37.945 -12.153   1.719  1.00  0.00     0.002 A 
HETATM   32  C   UNL     1      37.611 -12.899   0.594  1.00  0.00     0.000 A 
HETATM   33  C   UNL     1      38.415 -13.967   0.220  1.00  0.00     0.002 A 
HETATM   34  C   UNL     1      39.546 -14.292   0.974  1.00  0.00     0.030 A 
ENDBRANCH   2  29
TORSDOF 10
ENDMDL
MODEL 5
REMARK VINA RESULT:      -7.4      3.045      6.920
REMARK  10 active torsions:
REMARK  status: ('A' for Active; 'I' for Inactive)
REMARK    1  A    between atoms: C_2  and  C_3 
REMARK    2  A    between atoms: C_3  and  C_4 
REMARK    3  A    between atoms: C_4  and  N_5 
REMARK    4  A    between atoms: N_5  and  C_7 
REMARK    5  A    between atoms: C_7  and  C_8 
REMARK    6  A    between atoms: C_8  and  C_9 
REMARK    7  A    between atoms: C_9  and  N_10 
REMARK       I    between atoms: N_10  and  C_11 
REMARK    8  A    between atoms: C_11  and  C_12 
REMARK    9  A    between atoms: C_12  and  O_13 
REMARK   10  A    between atoms: N_14  and  C_15 
ROOT
HETATM    1  C   UNL     1      42.400 -16.020   2.849  1.00  0.00     0.256 C 
HETATM    2  N   UNL     1      42.308 -17.216   3.707  1.00  0.00    -0.254 N 
HETATM    3  C   UNL     1      41.283 -17.266   4.647  1.00  0.00     0.330 C 
HETATM    4  O   UNL     1      40.757 -18.299   5.068  1.00  0.00    -0.246 OA
HETATM    5  N   UNL     1      40.777 -16.082   5.094  1.00  0.00    -0.308 N 
HETATM    6  C   UNL     1      41.199 -14.827   4.683  1.00  0.00     0.048 A 
HETATM    7  C   UNL     1      42.043 -14.739   3.582  1.00  0.00     0.034 A 
HETATM    8  C   UNL     1      40.758 -13.689   5.360  1.00  0.00     0.030 A 
HETATM    9  C   UNL     1      41.179 -12.430   4.936  1.00  0.00     0.002 A 
HETATM   10  C   UNL     1      42.025 -12.316   3.837  1.00  0.00     0.001 A 
HETATM   11  C   UNL     1      42.450 -13.461   3.160  1.00  0.00     0.015 A 
HETATM   12  H   UNL     1      40.134 -16.163   5.873  1.00  0.00     0.170 HD
ENDROOT
BRANCH   1  13
HETATM   13  C   UNL     1      41.431 -16.179   1.595  1.00  0.00     0.279 C 
HETATM   14  N   UNL     1      42.010 -16.071   0.334  1.00  0.00    -0.356 N 
HETATM   15  H   UNL     1      42.859 -15.507   0.320  1.00  0.00     0.162 HD
HETATM   16  O   UNL     1      40.228 -16.408   1.735  1.00  0.00    -0.268 OA
BRANCH  14  17
HETATM   17  C   UNL     1      41.180 -16.065  -0.850  1.00  0.00     0.124 C 
BRANCH  17  18
HETATM   18  C   UNL     1      41.071 -14.669  -1.457  1.00  0.00     0.047 C 
BRANCH  18  19
HETATM   19  C   UNL     1      41.259 -14.707  -2.971  1.00  0.00     0.236 C 
BRANCH  19  20
HETATM   20  N   UNL     1      41.743 -13.384  -3.542  1.00  0.00    -0.075 N 
HETATM   21  H   UNL     1      42.084 -13.609  -4.485  1.00  0.00     0.279 HD
HETATM   22  C   UNL     1      40.619 -12.403  -3.772  1.00  0.00     0.269 C 
BRANCH  20  23
HETATM   23  C   UNL     1      42.905 -12.728  -2.823  1.00  0.00     0.234 C 
BRANCH  23  24
HETATM   24  C   UNL     1      42.717 -11.225  -2.625  1.00  0.00     0.027 C 
BRANCH  24  25
HETATM   25  C   UNL     1      43.237 -10.714  -1.280  1.00  0.00    -0.003 C 
HETATM   26  C   UNL     1      43.709  -9.271  -1.378  1.00  0.00     0.005 C 
ENDBRANCH  24  25
ENDBRANCH  23  24
ENDBRANCH  20  23
ENDBRANCH  19  20
ENDBRANCH  18  19
ENDBRANCH  17  18
ENDBRANCH  14  17
ENDBRANCH   1  13
BRANCH   1  27
HETATM   27  O   UNL     1      43.746 -15.862   2.398  1.00  0.00    -0.359 OA
HETATM   28  H   UNL     1      43.813 -14.946   2.075  1.00  0.00     0.213 HD
ENDBRANCH   1  27
BRANCH   2  29
HETATM   29  C   UNL     1      43.076 -18.410   3.420  1.00  0.00     0.042 A 
HETATM   30  C   UNL     1      44.069 -18.904   4.280  1.00  0.00     0.030 A 
HETATM   31  C   UNL     1      44.792 -20.063   3.970  1.00  0.00     0.002 A 
HETATM   32  C   UNL     1      44.530 -20.761   2.797  1.00  0.00     0.000 A 
HETATM   33  C   UNL     1      43.543 -20.301   1.935  1.00  0.00     0.002 A 
HETATM   34  C   UNL     1      42.827 -19.141   2.244  1.00  0.00     0.030 A 
ENDBRANCH   2  29
TORSDOF 10
ENDMDL
MODEL 6
REMARK VINA RESULT:      -7.4      1.479      4.390
REMARK  10 active torsions:
REMARK  status: ('A' for Active; 'I' for Inactive)
REMARK    1  A    between atoms: C_2  and  C_3 
REMARK    2  A    between atoms: C_3  and  C_4 
REMARK    3  A    between atoms: C_4  and  N_5 
REMARK    4  A    between atoms: N_5  and  C_7 
REMARK    5  A    between atoms: C_7  and  C_8 
REMARK    6  A    between atoms: C_8  and  C_9 
REMARK    7  A    between atoms: C_9  and  N_10 
REMARK       I    between atoms: N_10  and  C_11 
REMARK    8  A    between atoms: C_11  and  C_12 
REMARK    9  A    between atoms: C_12  and  O_13 
REMARK   10  A    between atoms: N_14  and  C_15 
ROOT
HETATM    1  C   UNL     1      42.491 -14.065   5.847  1.00  0.00     0.256 C 
HETATM    2  N   UNL     1      42.048 -15.461   6.026  1.00  0.00    -0.254 N 
HETATM    3  C   UNL     1      40.758 -15.793   5.621  1.00  0.00     0.330 C 
HETATM    4  O   UNL     1      40.402 -16.908   5.234  1.00  0.00    -0.246 OA
HETATM    5  N   UNL     1      39.830 -14.796   5.590  1.00  0.00    -0.308 N 
HETATM    6  C   UNL     1      40.067 -13.472   5.925  1.00  0.00     0.048 A 
HETATM    7  C   UNL     1      41.382 -13.058   6.101  1.00  0.00     0.034 A 
HETATM    8  C   UNL     1      38.997 -12.586   6.058  1.00  0.00     0.030 A 
HETATM    9  C   UNL     1      39.243 -11.255   6.387  1.00  0.00     0.002 A 
HETATM   10  C   UNL     1      40.551 -10.816   6.569  1.00  0.00     0.001 A 
HETATM   11  C   UNL     1      41.615 -11.709   6.421  1.00  0.00     0.015 A 
HETATM   12  H   UNL     1      38.880 -15.107   5.423  1.00  0.00     0.170 HD
ENDROOT
BRANCH   1  13
HETATM   13  C   UNL     1      43.040 -13.859   4.366  1.00  0.00     0.279 C 
HETATM   14  N   UNL     1      42.093 -13.762   3.352  1.00  0.00    -0.356 N 
HETATM   15  H   UNL     1      41.215 -14.233   3.564  1.00  0.00     0.162 HD
HETATM   16  O   UNL     1      44.247 -13.767   4.134  1.00  0.00    -0.268 OA
BRANCH  14  17
HETATM   17  C   UNL     1      42.512 -13.711   1.968  1.00  0.00     0.124 C 
BRANCH  17  18
HETATM   18  C   UNL     1      42.028 -14.930   1.187  1.00  0.00     0.047 C 
BRANCH  18  19
HETATM   19  C   UNL     1      42.791 -16.188   1.594  1.00  0.00     0.236 C 
BRANCH  19  20
HETATM   20  N   UNL     1      41.908 -17.224   2.271  1.00  0.00    -0.075 N 
HETATM   21  H   UNL     1      41.979 -17.020   3.276  1.00  0.00     0.279 HD
HETATM   22  C   UNL     1      40.445 -17.038   1.952  1.00  0.00     0.269 C 
BRANCH  20  23
HETATM   23  C   UNL     1      42.325 -18.671   2.108  1.00  0.00     0.234 C 
BRANCH  23  24
HETATM   24  C   UNL     1      43.841 -18.858   2.061  1.00  0.00     0.027 C 
BRANCH  24  25
HETATM   25  C   UNL     1      44.320 -20.153   2.717  1.00  0.00    -0.003 C 
HETATM   26  C   UNL     1      43.972 -21.368   1.870  1.00  0.00     0.005 C 
ENDBRANCH  24  25
ENDBRANCH  23  24
ENDBRANCH  20  23
ENDBRANCH  19  20
ENDBRANCH  18  19
ENDBRANCH  17  18
ENDBRANCH  14  17
ENDBRANCH   1  13
BRANCH   1  27
HETATM   27  O   UNL     1      43.523 -13.770   6.788  1.00  0.00    -0.359 OA
HETATM   28  H   UNL     1      43.739 -12.829   6.661  1.00  0.00     0.213 HD
ENDBRANCH   1  27
BRANCH   2  29
HETATM   29  C   UNL     1      42.987 -16.511   6.360  1.00  0.00     0.042 A 
HETATM   30  C   UNL     1      43.876 -17.065   5.425  1.00  0.00     0.030 A 
HETATM   31  C   UNL     1      44.773 -18.080   5.784  1.00  0.00     0.002 A 
HETATM   32  C   UNL     1      44.808 -18.556   7.090  1.00  0.00     0.000 A 
HETATM   33  C   UNL     1      43.948 -18.017   8.036  1.00  0.00     0.002 A 
HETATM   34  C   UNL     1      43.050 -17.008   7.675  1.00  0.00     0.030 A 
ENDBRANCH   2  29
TORSDOF 10
ENDMDL
MODEL 7
REMARK VINA RESULT:      -7.4      2.376      6.099
REMARK  10 active torsions:
REMARK  status: ('A' for Active; 'I' for Inactive)
REMARK    1  A    between atoms: C_2  and  C_3 
REMARK    2  A    between atoms: C_3  and  C_4 
REMARK    3  A    between atoms: C_4  and  N_5 
REMARK    4  A    between atoms: N_5  and  C_7 
REMARK    5  A    between atoms: C_7  and  C_8 
REMARK    6  A    between atoms: C_8  and  C_9 
REMARK    7  A    between atoms: C_9  and  N_10 
REMARK       I    between atoms: N_10  and  C_11 
REMARK    8  A    between atoms: C_11  and  C_12 
REMARK    9  A    between atoms: C_12  and  O_13 
REMARK   10  A    between atoms: N_14  and  C_15 
ROOT
HETATM    1  C   UNL     1      42.111 -14.976   4.158  1.00  0.00     0.256 C 
HETATM    2  N   UNL     1      42.101 -15.979   5.240  1.00  0.00    -0.254 N 
HETATM    3  C   UNL     1      40.990 -16.023   6.077  1.00  0.00     0.330 C 
HETATM    4  O   UNL     1      40.582 -17.030   6.660  1.00  0.00    -0.246 OA
HETATM    5  N   UNL     1      40.257 -14.883   6.216  1.00  0.00    -0.308 N 
HETATM    6  C   UNL     1      40.526 -13.679   5.584  1.00  0.00     0.048 A 
HETATM    7  C   UNL     1      41.474 -13.659   4.568  1.00  0.00     0.034 A 
HETATM    8  C   UNL     1      39.836 -12.525   5.962  1.00  0.00     0.030 A 
HETATM    9  C   UNL     1      40.106 -11.320   5.319  1.00  0.00     0.002 A 
HETATM   10  C   UNL     1      41.051 -11.275   4.299  1.00  0.00     0.001 A 
HETATM   11  C   UNL     1      41.727 -12.438   3.920  1.00  0.00     0.015 A 
HETATM   12  H   UNL     1      39.545 -14.922   6.935  1.00  0.00     0.170 HD
ENDROOT
BRANCH   1  13
HETATM   13  C   UNL     1      41.338 -15.545   2.888  1.00  0.00     0.279 C 
HETATM   14  N   UNL     1      42.049 -15.606   1.693  1.00  0.00    -0.356 N 
HETATM   15  H   UNL     1      42.806 -14.927   1.632  1.00  0.00     0.162 HD
HETATM   16  O   UNL     1      40.170 -15.933   2.964  1.00  0.00    -0.268 OA
BRANCH  14  17
HETATM   17  C   UNL     1      41.381 -15.980   0.466  1.00  0.00     0.124 C 
BRANCH  17  18
HETATM   18  C   UNL     1      41.266 -14.801  -0.497  1.00  0.00     0.047 C 
BRANCH  18  19
HETATM   19  C   UNL     1      40.221 -13.796  -0.020  1.00  0.00     0.236 C 
BRANCH  19  20
HETATM   20  N   UNL     1      38.798 -14.222  -0.344  1.00  0.00    -0.075 N 
HETATM   21  H   UNL     1      38.865 -15.223  -0.573  1.00  0.00     0.279 HD
HETATM   22  C   UNL     1      37.887 -14.170   0.857  1.00  0.00     0.269 C 
BRANCH  20  23
HETATM   23  C   UNL     1      38.157 -13.561  -1.548  1.00  0.00     0.234 C 
BRANCH  23  24
HETATM   24  C   UNL     1      37.854 -14.540  -2.680  1.00  0.00     0.027 C 
BRANCH  24  25
HETATM   25  C   UNL     1      39.049 -14.806  -3.597  1.00  0.00    -0.003 C 
HETATM   26  C   UNL     1      39.035 -16.231  -4.132  1.00  0.00     0.005 C 
ENDBRANCH  24  25
ENDBRANCH  23  24
ENDBRANCH  20  23
ENDBRANCH  19  20
ENDBRANCH  18  19
ENDBRANCH  17  18
ENDBRANCH  14  17
ENDBRANCH   1  13
BRANCH   1  27
HETATM   27  O   UNL     1      43.461 -14.674   3.803  1.00  0.00    -0.359 OA
HETATM   28  H   UNL     1      43.996 -14.877   4.590  1.00  0.00     0.213 HD
ENDBRANCH   1  27
BRANCH   2  29
HETATM   29  C   UNL     1      43.074 -17.051   5.282  1.00  0.00     0.042 A 
HETATM   30  C   UNL     1      44.128 -17.090   6.208  1.00  0.00     0.030 A 
HETATM   31  C   UNL     1      45.050 -18.144   6.220  1.00  0.00     0.002 A 
HETATM   32  C   UNL     1      44.931 -19.190   5.311  1.00  0.00     0.000 A 
HETATM   33  C   UNL     1      43.890 -19.182   4.393  1.00  0.00     0.002 A 
HETATM   34  C   UNL     1      42.974 -18.126   4.379  1.00  0.00     0.030 A 
ENDBRANCH   2  29
TORSDOF 10
ENDMDL
MODEL 8
REMARK VINA RESULT:      -7.2      2.289      6.309
REMARK  10 active torsions:
REMARK  status: ('A' for Active; 'I' for Inactive)
REMARK    1  A    between atoms: C_2  and  C_3 
REMARK    2  A    between atoms: C_3  and  C_4 
REMARK    3  A    between atoms: C_4  and  N_5 
REMARK    4  A    between atoms: N_5  and  C_7 
REMARK    5  A    between atoms: C_7  and  C_8 
REMARK    6  A    between atoms: C_8  and  C_9 
REMARK    7  A    between atoms: C_9  and  N_10 
REMARK       I    between atoms: N_10  and  C_11 
REMARK    8  A    between atoms: C_11  and  C_12 
REMARK    9  A    between atoms: C_12  and  O_13 
REMARK   10  A    between atoms: N_14  and  C_15 
ROOT
HETATM    1  C   UNL     1      41.952 -15.092   3.809  1.00  0.00     0.256 C 
HETATM    2  N   UNL     1      41.936 -15.931   5.022  1.00  0.00    -0.254 N 
HETATM    3  C   UNL     1      40.749 -16.013   5.743  1.00  0.00     0.330 C 
HETATM    4  O   UNL     1      40.400 -16.978   6.427  1.00  0.00    -0.246 OA
HETATM    5  N   UNL     1      39.873 -14.973   5.639  1.00  0.00    -0.308 N 
HETATM    6  C   UNL     1      40.068 -13.840   4.865  1.00  0.00     0.048 A 
HETATM    7  C   UNL     1      41.118 -13.830   3.955  1.00  0.00     0.034 A 
HETATM    8  C   UNL     1      39.205 -12.750   4.998  1.00  0.00     0.030 A 
HETATM    9  C   UNL     1      39.401 -11.617   4.213  1.00  0.00     0.002 A 
HETATM   10  C   UNL     1      40.447 -11.583   3.294  1.00  0.00     0.001 A 
HETATM   11  C   UNL     1      41.296 -12.684   3.161  1.00  0.00     0.015 A 
HETATM   12  H   UNL     1      39.092 -15.011   6.282  1.00  0.00     0.170 HD
ENDROOT
BRANCH   1  13
HETATM   13  C   UNL     1      41.404 -15.926   2.568  1.00  0.00     0.279 C 
HETATM   14  N   UNL     1      42.173 -15.904   1.408  1.00  0.00    -0.356 N 
HETATM   15  H   UNL     1      42.749 -15.070   1.313  1.00  0.00     0.162 HD
HETATM   16  O   UNL     1      40.360 -16.577   2.638  1.00  0.00    -0.268 OA
BRANCH  14  17
HETATM   17  C   UNL     1      41.679 -16.521   0.196  1.00  0.00     0.124 C 
BRANCH  17  18
HETATM   18  C   UNL     1      41.080 -15.491  -0.758  1.00  0.00     0.047 C 
BRANCH  18  19
HETATM   19  C   UNL     1      41.659 -14.102  -0.509  1.00  0.00     0.236 C 
BRANCH  19  20
HETATM   20  N   UNL     1      41.239 -13.087  -1.560  1.00  0.00    -0.075 N 
HETATM   21  H   UNL     1      41.813 -12.255  -1.372  1.00  0.00     0.279 HD
HETATM   22  C   UNL     1      41.625 -13.503  -2.958  1.00  0.00     0.269 C 
BRANCH  20  23
HETATM   23  C   UNL     1      39.798 -12.621  -1.504  1.00  0.00     0.234 C 
BRANCH  23  24
HETATM   24  C   UNL     1      39.350 -12.220  -0.100  1.00  0.00     0.027 C 
BRANCH  24  25
HETATM   25  C   UNL     1      38.047 -12.888   0.341  1.00  0.00    -0.003 C 
HETATM   26  C   UNL     1      38.312 -14.080   1.250  1.00  0.00     0.005 C 
ENDBRANCH  24  25
ENDBRANCH  23  24
ENDBRANCH  20  23
ENDBRANCH  19  20
ENDBRANCH  18  19
ENDBRANCH  17  18
ENDBRANCH  14  17
ENDBRANCH   1  13
BRANCH   1  27
HETATM   27  O   UNL     1      43.287 -14.661   3.547  1.00  0.00    -0.359 OA
HETATM   28  H   UNL     1      43.442 -14.829   2.601  1.00  0.00     0.213 HD
ENDBRANCH   1  27
BRANCH   2  29
HETATM   29  C   UNL     1      43.019 -16.847   5.317  1.00  0.00     0.042 A 
HETATM   30  C   UNL     1      43.251 -18.017   4.578  1.00  0.00     0.030 A 
HETATM   31  C   UNL     1      44.310 -18.879   4.891  1.00  0.00     0.002 A 
HETATM   32  C   UNL     1      45.166 -18.585   5.946  1.00  0.00     0.000 A 
HETATM   33  C   UNL     1      44.966 -17.428   6.685  1.00  0.00     0.002 A 
HETATM   34  C   UNL     1      43.906 -16.571   6.374  1.00  0.00     0.030 A 
ENDBRANCH   2  29
TORSDOF 10
ENDMDL
MODEL 9
REMARK VINA RESULT:      -7.2      2.467      6.303
REMARK  10 active torsions:
REMARK  status: ('A' for Active; 'I' for Inactive)
REMARK    1  A    between atoms: C_2  and  C_3 
REMARK    2  A    between atoms: C_3  and  C_4 
REMARK    3  A    between atoms: C_4  and  N_5 
REMARK    4  A    between atoms: N_5  and  C_7 
REMARK    5  A    between atoms: C_7  and  C_8 
REMARK    6  A    between atoms: C_8  and  C_9 
REMARK    7  A    between atoms: C_9  and  N_10 
REMARK       I    between atoms: N_10  and  C_11 
REMARK    8  A    between atoms: C_11  and  C_12 
REMARK    9  A    between atoms: C_12  and  O_13 
REMARK   10  A    between atoms: N_14  and  C_15 
ROOT
HETATM    1  C   UNL     1      42.115 -14.803   4.337  1.00  0.00     0.256 C 
HETATM    2  N   UNL     1      42.053 -15.861   5.364  1.00  0.00    -0.254 N 
HETATM    3  C   UNL     1      40.892 -15.965   6.123  1.00  0.00     0.330 C 
HETATM    4  O   UNL     1      40.466 -17.007   6.627  1.00  0.00    -0.246 OA
HETATM    5  N   UNL     1      40.132 -14.844   6.273  1.00  0.00    -0.308 N 
HETATM    6  C   UNL     1      40.420 -13.604   5.723  1.00  0.00     0.048 A 
HETATM    7  C   UNL     1      41.430 -13.519   4.772  1.00  0.00     0.034 A 
HETATM    8  C   UNL     1      39.687 -12.482   6.114  1.00  0.00     0.030 A 
HETATM    9  C   UNL     1      39.976 -11.241   5.552  1.00  0.00     0.002 A 
HETATM   10  C   UNL     1      40.984 -11.130   4.599  1.00  0.00     0.001 A 
HETATM   11  C   UNL     1      41.702 -12.262   4.205  1.00  0.00     0.015 A 
HETATM   12  H   UNL     1      39.376 -14.931   6.942  1.00  0.00     0.170 HD
ENDROOT
BRANCH   1  13
HETATM   13  C   UNL     1      41.433 -15.316   2.992  1.00  0.00     0.279 C 
HETATM   14  N   UNL     1      42.274 -15.535   1.905  1.00  0.00    -0.356 N 
HETATM   15  H   UNL     1      43.125 -14.976   1.926  1.00  0.00     0.162 HD
HETATM   16  O   UNL     1      40.221 -15.528   2.923  1.00  0.00    -0.268 OA
BRANCH  14  17
HETATM   17  C   UNL     1      41.719 -15.868   0.611  1.00  0.00     0.124 C 
BRANCH  17  18
HETATM   18  C   UNL     1      41.547 -14.630  -0.265  1.00  0.00     0.047 C 
BRANCH  18  19
HETATM   19  C   UNL     1      40.074 -14.267  -0.428  1.00  0.00     0.236 C 
BRANCH  19  20
HETATM   20  N   UNL     1      39.490 -14.739  -1.750  1.00  0.00    -0.075 N 
HETATM   21  H   UNL     1      39.194 -15.709  -1.580  1.00  0.00     0.279 HD
HETATM   22  C   UNL     1      38.217 -14.016  -2.115  1.00  0.00     0.269 C 
BRANCH  20  23
HETATM   23  C   UNL     1      40.446 -14.793  -2.925  1.00  0.00     0.234 C 
BRANCH  23  24
HETATM   24  C   UNL     1      40.586 -13.455  -3.647  1.00  0.00     0.027 C 
BRANCH  24  25
HETATM   25  C   UNL     1      41.954 -12.798  -3.460  1.00  0.00    -0.003 C 
HETATM   26  C   UNL     1      41.962 -11.369  -3.983  1.00  0.00     0.005 C 
ENDBRANCH  24  25
ENDBRANCH  23  24
ENDBRANCH  20  23
ENDBRANCH  19  20
ENDBRANCH  18  19
ENDBRANCH  17  18
ENDBRANCH  14  17
ENDBRANCH   1  13
BRANCH   1  27
HETATM   27  O   UNL     1      43.478 -14.464   4.085  1.00  0.00    -0.359 OA
HETATM   28  H   UNL     1      43.547 -13.504   4.232  1.00  0.00     0.213 HD
ENDBRANCH   1  27
BRANCH   2  29
HETATM   29  C   UNL     1      43.040 -16.920   5.412  1.00  0.00     0.042 A 
HETATM   30  C   UNL     1      44.068 -16.962   6.367  1.00  0.00     0.030 A 
HETATM   31  C   UNL     1      45.004 -18.004   6.385  1.00  0.00     0.002 A 
HETATM   32  C   UNL     1      44.927 -19.034   5.455  1.00  0.00     0.000 A 
HETATM   33  C   UNL     1      43.911 -19.023   4.508  1.00  0.00     0.002 A 
HETATM   34  C   UNL     1      42.981 -17.979   4.488  1.00  0.00     0.030 A 
ENDBRANCH   2  29
TORSDOF 10
ENDMDL
MODEL 10
REMARK VINA RESULT:      -7.0      2.483      4.282
REMARK  10 active torsions:
REMARK  status: ('A' for Active; 'I' for Inactive)
REMARK    1  A    between atoms: C_2  and  C_3 
REMARK    2  A    between atoms: C_3  and  C_4 
REMARK    3  A    between atoms: C_4  and  N_5 
REMARK    4  A    between atoms: N_5  and  C_7 
REMARK    5  A    between atoms: C_7  and  C_8 
REMARK    6  A    between atoms: C_8  and  C_9 
REMARK    7  A    between atoms: C_9  and  N_10 
REMARK       I    between atoms: N_10  and  C_11 
REMARK    8  A    between atoms: C_11  and  C_12 
REMARK    9  A    between atoms: C_12  and  O_13 
REMARK   10  A    between atoms: N_14  and  C_15 
ROOT
HETATM    1  C   UNL     1      40.633 -15.118   1.477  1.00  0.00     0.256 C 
HETATM    2  N   UNL     1      40.837 -14.164   0.371  1.00  0.00    -0.254 N 
HETATM    3  C   UNL     1      41.810 -13.181   0.529  1.00  0.00     0.330 C 
HETATM    4  O   UNL     1      42.445 -12.659  -0.389  1.00  0.00    -0.246 OA
HETATM    5  N   UNL     1      42.132 -12.810   1.800  1.00  0.00    -0.308 N 
HETATM    6  C   UNL     1      41.571 -13.337   2.953  1.00  0.00     0.048 A 
HETATM    7  C   UNL     1      40.780 -14.475   2.846  1.00  0.00     0.034 A 
HETATM    8  C   UNL     1      41.823 -12.735   4.187  1.00  0.00     0.030 A 
HETATM    9  C   UNL     1      41.262 -13.274   5.343  1.00  0.00     0.002 A 
HETATM   10  C   UNL     1      40.466 -14.413   5.261  1.00  0.00     0.001 A 
HETATM   11  C   UNL     1      40.231 -15.014   4.022  1.00  0.00     0.015 A 
HETATM   12  H   UNL     1      42.739 -12.001   1.864  1.00  0.00     0.170 HD
ENDROOT
BRANCH   1  13
HETATM   13  C   UNL     1      41.678 -16.314   1.359  1.00  0.00     0.279 C 
HETATM   14  N   UNL     1      42.834 -16.217   2.128  1.00  0.00    -0.356 N 
HETATM   15  H   UNL     1      43.100 -15.259   2.349  1.00  0.00     0.162 HD
HETATM   16  O   UNL     1      41.463 -17.290   0.637  1.00  0.00    -0.268 OA
BRANCH  14  17
HETATM   17  C   UNL     1      43.893 -17.191   1.975  1.00  0.00     0.124 C 
BRANCH  17  18
HETATM   18  C   UNL     1      43.594 -18.475   2.743  1.00  0.00     0.047 C 
BRANCH  18  19
HETATM   19  C   UNL     1      44.206 -18.440   4.141  1.00  0.00     0.236 C 
BRANCH  19  20
HETATM   20  N   UNL     1      43.177 -18.629   5.243  1.00  0.00    -0.075 N 
HETATM   21  H   UNL     1      42.361 -19.048   4.778  1.00  0.00     0.279 HD
HETATM   22  C   UNL     1      43.598 -19.659   6.263  1.00  0.00     0.269 C 
BRANCH  20  23
HETATM   23  C   UNL     1      42.672 -17.367   5.914  1.00  0.00     0.234 C 
BRANCH  23  24
HETATM   24  C   UNL     1      43.573 -16.158   5.675  1.00  0.00     0.027 C 
BRANCH  24  25
HETATM   25  C   UNL     1      44.343 -15.711   6.918  1.00  0.00    -0.003 C 
HETATM   26  C   UNL     1      44.460 -14.196   6.986  1.00  0.00     0.005 C 
ENDBRANCH  24  25
ENDBRANCH  23  24
ENDBRANCH  20  23
ENDBRANCH  19  20
ENDBRANCH  18  19
ENDBRANCH  17  18
ENDBRANCH  14  17
ENDBRANCH   1  13
BRANCH   1  27
HETATM   27  O   UNL     1      39.303 -15.635   1.419  1.00  0.00    -0.359 OA
HETATM   28  H   UNL     1      39.332 -16.377   0.790  1.00  0.00     0.213 HD
ENDBRANCH   1  27
BRANCH   2  29
HETATM   29  C   UNL     1      40.249 -14.387  -0.933  1.00  0.00     0.042 A 
HETATM   30  C   UNL     1      40.834 -15.216  -1.903  1.00  0.00     0.030 A 
HETATM   31  C   UNL     1      40.235 -15.410  -3.154  1.00  0.00     0.002 A 
HETATM   32  C   UNL     1      39.032 -14.786  -3.461  1.00  0.00     0.000 A 
HETATM   33  C   UNL     1      38.425 -13.970  -2.515  1.00  0.00     0.002 A 
HETATM   34  C   UNL     1      39.027 -13.774  -1.268  1.00  0.00     0.030 A 
ENDBRANCH   2  29
TORSDOF 10
ENDMDL
