MODEL 1
REMARK VINA RESULT:      -7.4      0.000      0.000
REMARK  14 active torsions:
REMARK  status: ('A' for Active; 'I' for Inactive)
REMARK    1  A    between atoms: C_2  and  N_3 
REMARK    2  A    between atoms: N_3  and  C_5 
REMARK    3  A    between atoms: N_3  and  C_37 
REMARK    4  A    between atoms: C_5  and  C_6 
REMARK    5  A    between atoms: C_6  and  N_7 
REMARK    6  A    between atoms: C_10  and  O_11 
REMARK    7  A    between atoms: C_12  and  C_13 
REMARK    8  A    between atoms: C_13  and  C_14 
REMARK    9  A    between atoms: C_18  and  O_19 
REMARK   10  A    between atoms: O_19  and  C_20 
REMARK   11  A    between atoms: C_20  and  C_21 
REMARK   12  A    between atoms: C_27  and  C_28 
REMARK   13  A    between atoms: C_30  and  O_31 
REMARK   14  A    between atoms: C_33  and  O_34 
ROOT
HETATM    1  N   UNL     1      40.097 -11.708   3.544  1.00  0.00    -0.332 N 
HETATM    2  C   UNL     1      39.597 -12.194   4.734  1.00  0.00     0.278 A 
HETATM    3  O   UNL     1      38.514 -11.962   5.237  1.00  0.00    -0.265 OA
HETATM    4  C   UNL     1      40.611 -13.095   5.315  1.00  0.00     0.146 A 
HETATM    5  C   UNL     1      41.595 -13.205   4.417  1.00  0.00     0.059 A 
HETATM    6  C   UNL     1      41.370 -12.344   3.211  1.00  0.00     0.161 A 
ENDROOT
BRANCH   5   7
HETATM    7  C   UNL     1      42.861 -13.952   4.527  1.00  0.00     0.193 C 
HETATM    8  O   UNL     1      43.871 -13.334   4.859  1.00  0.00    -0.287 OA
BRANCH   7   9
HETATM    9  C   UNL     1      42.934 -15.403   4.200  1.00  0.00     0.015 A 
HETATM   10  C   UNL     1      43.498 -15.775   2.974  1.00  0.00     0.025 A 
HETATM   11  C   UNL     1      43.582 -17.128   2.599  1.00  0.00    -0.028 A 
HETATM   12  C   UNL     1      44.196 -17.498   1.275  1.00  0.00     0.051 C 
HETATM   13  C   UNL     1      43.108 -18.123   3.474  1.00  0.00     0.074 A 
HETATM   14  C   UNL     1      42.513 -17.747   4.679  1.00  0.00     0.038 A 
HETATM   15  C   UNL     1      42.411 -16.397   5.034  1.00  0.00     0.018 A 
BRANCH  13  16
HETATM   16  O   UNL     1      43.268 -19.415   3.050  1.00  0.00    -0.350 OA
BRANCH  16  17
HETATM   17  C   UNL     1      44.328 -20.178   3.628  1.00  0.00     0.179 C 
BRANCH  17  18
HETATM   18  C   UNL     1      44.593 -21.409   2.750  1.00  0.00     0.002 C 
HETATM   19  C   UNL     1      44.658 -22.687   3.590  1.00  0.00     0.011 C 
HETATM   20  C   UNL     1      43.515 -21.538   1.675  1.00  0.00     0.011 C 
ENDBRANCH  17  18
ENDBRANCH  16  17
ENDBRANCH  13  16
ENDBRANCH   7   9
ENDBRANCH   5   7
BRANCH   4  21
HETATM   21  O   UNL     1      40.498 -13.661   6.547  1.00  0.00    -0.355 OA
HETATM   22  H   UNL     1      39.641 -14.135   6.565  1.00  0.00     0.218 HD
ENDBRANCH   4  21
BRANCH   6  23
HETATM   23  C   UNL     1      41.321 -13.095   1.892  1.00  0.00    -0.028 A 
HETATM   24  C   UNL     1      41.975 -12.625   0.735  1.00  0.00     0.049 A 
HETATM   25  C   UNL     1      41.926 -13.362  -0.450  1.00  0.00     0.101 A 
HETATM   26  C   UNL     1      41.266 -14.591  -0.468  1.00  0.00     0.099 A 
HETATM   27  C   UNL     1      40.605 -15.067   0.654  1.00  0.00     0.040 A 
HETATM   28  C   UNL     1      40.623 -14.316   1.829  1.00  0.00     0.012 A 
BRANCH  25  29
HETATM   29  O   UNL     1      42.539 -12.988  -1.617  1.00  0.00    -0.353 OA
HETATM   30  C   UNL     1      43.038 -11.652  -1.613  1.00  0.00     0.210 C 
ENDBRANCH  25  29
BRANCH  26  31
HETATM   31  O   UNL     1      41.243 -15.351  -1.602  1.00  0.00    -0.358 OA
HETATM   32  H   UNL     1      41.862 -16.090  -1.440  1.00  0.00     0.218 HD
ENDBRANCH  26  31
ENDBRANCH   6  23
BRANCH   1  33
HETATM   33  C   UNL     1      39.291 -10.984   2.569  1.00  0.00     0.155 C 
BRANCH  33  34
HETATM   34  C   UNL     1      38.009 -11.721   2.136  1.00  0.00     0.254 C 
BRANCH  34  35
HETATM   35  N   UNL     1      37.672 -11.551   0.655  1.00  0.00    -0.070 N 
HETATM   36  H   UNL     1      36.689 -11.246   0.641  1.00  0.00     0.279 HD
BRANCH  35  37
HETATM   37  C   UNL     1      37.697 -12.844  -0.150  1.00  0.00     0.230 C 
HETATM   38  C   UNL     1      37.219 -14.029   0.668  1.00  0.00     0.034 C 
ENDBRANCH  35  37
BRANCH  35  39
HETATM   39  C   UNL     1      38.450 -10.463  -0.064  1.00  0.00     0.230 C 
HETATM   40  C   UNL     1      39.257 -11.026  -1.219  1.00  0.00     0.034 C 
ENDBRANCH  35  39
ENDBRANCH  34  35
ENDBRANCH  33  34
ENDBRANCH   1  33
TORSDOF 14
ENDMDL
MODEL 2
REMARK VINA RESULT:      -7.3      2.798      4.527
REMARK  14 active torsions:
REMARK  status: ('A' for Active; 'I' for Inactive)
REMARK    1  A    between atoms: C_2  and  N_3 
REMARK    2  A    between atoms: N_3  and  C_5 
REMARK    3  A    between atoms: N_3  and  C_37 
REMARK    4  A    between atoms: C_5  and  C_6 
REMARK    5  A    between atoms: C_6  and  N_7 
REMARK    6  A    between atoms: C_10  and  O_11 
REMARK    7  A    between atoms: C_12  and  C_13 
REMARK    8  A    between atoms: C_13  and  C_14 
REMARK    9  A    between atoms: C_18  and  O_19 
REMARK   10  A    between atoms: O_19  and  C_20 
REMARK   11  A    between atoms: C_20  and  C_21 
REMARK   12  A    between atoms: C_27  and  C_28 
REMARK   13  A    between atoms: C_30  and  O_31 
REMARK   14  A    between atoms: C_33  and  O_34 
ROOT
HETATM    1  N   UNL     1      41.137 -12.379  -0.408  1.00  0.00    -0.332 N 
HETATM    2  C   UNL     1      40.438 -11.616   0.504  1.00  0.00     0.278 A 
HETATM    3  O   UNL     1      40.365 -10.403   0.559  1.00  0.00    -0.265 OA
HETATM    4  C   UNL     1      39.746 -12.536   1.426  1.00  0.00     0.146 A 
HETATM    5  C   UNL     1      39.951 -13.774   0.968  1.00  0.00     0.059 A 
HETATM    6  C   UNL     1      40.846 -13.801  -0.233  1.00  0.00     0.161 A 
ENDROOT
BRANCH   5   7
HETATM    7  C   UNL     1      39.510 -15.055   1.551  1.00  0.00     0.193 C 
HETATM    8  O   UNL     1      38.307 -15.217   1.749  1.00  0.00    -0.287 OA
BRANCH   7   9
HETATM    9  C   UNL     1      40.491 -16.107   1.936  1.00  0.00     0.015 A 
HETATM   10  C   UNL     1      41.004 -16.085   3.238  1.00  0.00     0.025 A 
HETATM   11  C   UNL     1      41.946 -17.042   3.659  1.00  0.00    -0.028 A 
HETATM   12  C   UNL     1      42.479 -16.993   5.066  1.00  0.00     0.051 C 
HETATM   13  C   UNL     1      42.365 -18.044   2.766  1.00  0.00     0.074 A 
HETATM   14  C   UNL     1      41.879 -18.042   1.458  1.00  0.00     0.038 A 
HETATM   15  C   UNL     1      40.960 -17.072   1.040  1.00  0.00     0.018 A 
BRANCH  13  16
HETATM   16  O   UNL     1      43.249 -18.960   3.270  1.00  0.00    -0.350 OA
BRANCH  16  17
HETATM   17  C   UNL     1      44.374 -19.312   2.463  1.00  0.00     0.179 C 
BRANCH  17  18
HETATM   18  C   UNL     1      44.790 -20.753   2.788  1.00  0.00     0.002 C 
HETATM   19  C   UNL     1      44.693 -21.035   4.289  1.00  0.00     0.011 C 
HETATM   20  C   UNL     1      43.929 -21.745   2.007  1.00  0.00     0.011 C 
ENDBRANCH  17  18
ENDBRANCH  16  17
ENDBRANCH  13  16
ENDBRANCH   7   9
ENDBRANCH   5   7
BRANCH   4  21
HETATM   21  O   UNL     1      39.055 -12.124   2.523  1.00  0.00    -0.355 OA
HETATM   22  H   UNL     1      38.964 -11.151   2.454  1.00  0.00     0.218 HD
ENDBRANCH   4  21
BRANCH   6  23
HETATM   23  C   UNL     1      40.232 -14.428  -1.472  1.00  0.00    -0.028 A 
HETATM   24  C   UNL     1      38.958 -14.057  -1.949  1.00  0.00     0.049 A 
HETATM   25  C   UNL     1      38.444 -14.640  -3.109  1.00  0.00     0.101 A 
HETATM   26  C   UNL     1      39.220 -15.555  -3.821  1.00  0.00     0.099 A 
HETATM   27  C   UNL     1      40.470 -15.944  -3.364  1.00  0.00     0.040 A 
HETATM   28  C   UNL     1      40.971 -15.391  -2.187  1.00  0.00     0.012 A 
BRANCH  25  29
HETATM   29  O   UNL     1      37.223 -14.334  -3.651  1.00  0.00    -0.353 OA
HETATM   30  C   UNL     1      37.017 -12.940  -3.877  1.00  0.00     0.210 C 
ENDBRANCH  25  29
BRANCH  26  31
HETATM   31  O   UNL     1      38.757 -16.104  -4.983  1.00  0.00    -0.358 OA
HETATM   32  H   UNL     1      39.356 -16.850  -5.182  1.00  0.00     0.218 HD
ENDBRANCH  26  31
ENDBRANCH   6  23
BRANCH   1  33
HETATM   33  C   UNL     1      41.744 -11.834  -1.616  1.00  0.00     0.155 C 
BRANCH  33  34
HETATM   34  C   UNL     1      43.139 -11.217  -1.400  1.00  0.00     0.254 C 
BRANCH  34  35
HETATM   35  N   UNL     1      43.193  -9.712  -1.664  1.00  0.00    -0.070 N 
HETATM   36  H   UNL     1      43.992  -9.584  -2.300  1.00  0.00     0.279 HD
BRANCH  35  37
HETATM   37  C   UNL     1      43.521  -8.868  -0.439  1.00  0.00     0.230 C 
HETATM   38  C   UNL     1      44.336  -7.640  -0.802  1.00  0.00     0.034 C 
ENDBRANCH  35  37
BRANCH  35  39
HETATM   39  C   UNL     1      41.991  -9.141  -2.396  1.00  0.00     0.230 C 
HETATM   40  C   UNL     1      42.342  -8.746  -3.819  1.00  0.00     0.034 C 
ENDBRANCH  35  39
ENDBRANCH  34  35
ENDBRANCH  33  34
ENDBRANCH   1  33
TORSDOF 14
ENDMDL
MODEL 3
REMARK VINA RESULT:      -7.3      2.997      5.126
REMARK  14 active torsions:
REMARK  status: ('A' for Active; 'I' for Inactive)
REMARK    1  A    between atoms: C_2  and  N_3 
REMARK    2  A    between atoms: N_3  and  C_5 
REMARK    3  A    between atoms: N_3  and  C_37 
REMARK    4  A    between atoms: C_5  and  C_6 
REMARK    5  A    between atoms: C_6  and  N_7 
REMARK    6  A    between atoms: C_10  and  O_11 
REMARK    7  A    between atoms: C_12  and  C_13 
REMARK    8  A    between atoms: C_13  and  C_14 
REMARK    9  A    between atoms: C_18  and  O_19 
REMARK   10  A    between atoms: O_19  and  C_20 
REMARK   11  A    between atoms: C_20  and  C_21 
REMARK   12  A    between atoms: C_27  and  C_28 
REMARK   13  A    between atoms: C_30  and  O_31 
REMARK   14  A    between atoms: C_33  and  O_34 
ROOT
HETATM    1  N   UNL     1      40.056 -11.869  -0.919  1.00  0.00    -0.332 N 
HETATM    2  C   UNL     1      39.120 -11.071  -0.295  1.00  0.00     0.278 A 
HETATM    3  O   UNL     1      38.905  -9.889  -0.483  1.00  0.00    -0.265 OA
HETATM    4  C   UNL     1      38.374 -11.913   0.659  1.00  0.00     0.146 A 
HETATM    5  C   UNL     1      38.795 -13.169   0.484  1.00  0.00     0.059 A 
HETATM    6  C   UNL     1      39.896 -13.269  -0.528  1.00  0.00     0.161 A 
ENDROOT
BRANCH   5   7
HETATM    7  C   UNL     1      38.398 -14.384   1.218  1.00  0.00     0.193 C 
HETATM    8  O   UNL     1      37.226 -14.749   1.143  1.00  0.00    -0.287 OA
BRANCH   7   9
HETATM    9  C   UNL     1      39.369 -15.126   2.068  1.00  0.00     0.015 A 
HETATM   10  C   UNL     1      39.780 -14.535   3.269  1.00  0.00     0.025 A 
HETATM   11  C   UNL     1      40.708 -15.178   4.109  1.00  0.00    -0.028 A 
HETATM   12  C   UNL     1      41.129 -14.518   5.395  1.00  0.00     0.051 C 
HETATM   13  C   UNL     1      41.216 -16.438   3.748  1.00  0.00     0.074 A 
HETATM   14  C   UNL     1      40.833 -17.008   2.533  1.00  0.00     0.038 A 
HETATM   15  C   UNL     1      39.928 -16.351   1.691  1.00  0.00     0.018 A 
BRANCH  13  16
HETATM   16  O   UNL     1      42.080 -17.011   4.643  1.00  0.00    -0.350 OA
BRANCH  16  17
HETATM   17  C   UNL     1      43.417 -17.266   4.208  1.00  0.00     0.179 C 
BRANCH  17  18
HETATM   18  C   UNL     1      43.587 -18.773   3.974  1.00  0.00     0.002 C 
HETATM   19  C   UNL     1      44.011 -19.069   2.534  1.00  0.00     0.011 C 
HETATM   20  C   UNL     1      44.606 -19.352   4.955  1.00  0.00     0.011 C 
ENDBRANCH  17  18
ENDBRANCH  16  17
ENDBRANCH  13  16
ENDBRANCH   7   9
ENDBRANCH   5   7
BRANCH   4  21
HETATM   21  O   UNL     1      37.450 -11.427   1.531  1.00  0.00    -0.355 OA
HETATM   22  H   UNL     1      36.570 -11.590   1.133  1.00  0.00     0.218 HD
ENDBRANCH   4  21
BRANCH   6  23
HETATM   23  C   UNL     1      39.597 -14.174  -1.710  1.00  0.00    -0.028 A 
HETATM   24  C   UNL     1      38.369 -14.124  -2.402  1.00  0.00     0.049 A 
HETATM   25  C   UNL     1      38.147 -14.956  -3.501  1.00  0.00     0.101 A 
HETATM   26  C   UNL     1      39.166 -15.802  -3.940  1.00  0.00     0.099 A 
HETATM   27  C   UNL     1      40.376 -15.877  -3.267  1.00  0.00     0.040 A 
HETATM   28  C   UNL     1      40.588 -15.073  -2.148  1.00  0.00     0.012 A 
BRANCH  25  29
HETATM   29  O   UNL     1      36.992 -14.969  -4.238  1.00  0.00    -0.353 OA
HETATM   30  C   UNL     1      36.395 -13.685  -4.409  1.00  0.00     0.210 C 
ENDBRANCH  25  29
BRANCH  26  31
HETATM   31  O   UNL     1      38.988 -16.592  -5.040  1.00  0.00    -0.358 OA
HETATM   32  H   UNL     1      38.518 -16.038  -5.692  1.00  0.00     0.218 HD
ENDBRANCH  26  31
ENDBRANCH   6  23
BRANCH   1  33
HETATM   33  C   UNL     1      40.814 -11.453  -2.093  1.00  0.00     0.155 C 
BRANCH  33  34
HETATM   34  C   UNL     1      42.341 -11.596  -1.944  1.00  0.00     0.254 C 
BRANCH  34  35
HETATM   35  N   UNL     1      43.127 -10.406  -2.494  1.00  0.00    -0.070 N 
HETATM   36  H   UNL     1      43.844 -10.822  -3.103  1.00  0.00     0.279 HD
BRANCH  35  37
HETATM   37  C   UNL     1      43.903  -9.623  -1.443  1.00  0.00     0.230 C 
HETATM   38  C   UNL     1      43.420  -8.189  -1.337  1.00  0.00     0.034 C 
ENDBRANCH  35  37
BRANCH  35  39
HETATM   39  C   UNL     1      42.334  -9.463  -3.381  1.00  0.00     0.230 C 
HETATM   40  C   UNL     1      42.515  -9.796  -4.850  1.00  0.00     0.034 C 
ENDBRANCH  35  39
ENDBRANCH  34  35
ENDBRANCH  33  34
ENDBRANCH   1  33
TORSDOF 14
ENDMDL
MODEL 4
REMARK VINA RESULT:      -7.2      1.638      4.577
REMARK  14 active torsions:
REMARK  status: ('A' for Active; 'I' for Inactive)
REMARK    1  A    between atoms: C_2  and  N_3 
REMARK    2  A    between atoms: N_3  and  C_5 
REMARK    3  A    between atoms: N_3  and  C_37 
REMARK    4  A    between atoms: C_5  and  C_6 
REMARK    5  A    between atoms: C_6  and  N_7 
REMARK    6  A    between atoms: C_10  and  O_11 
REMARK    7  A    between atoms: C_12  and  C_13 
REMARK    8  A    between atoms: C_13  and  C_14 
REMARK    9  A    between atoms: C_18  and  O_19 
REMARK   10  A    between atoms: O_19  and  C_20 
REMARK   11  A    between atoms: C_20  and  C_21 
REMARK   12  A    between atoms: C_27  and  C_28 
REMARK   13  A    between atoms: C_30  and  O_31 
REMARK   14  A    between atoms: C_33  and  O_34 
ROOT
HETATM    1  N   UNL     1      40.839 -13.112   0.856  1.00  0.00    -0.332 N 
HETATM    2  C   UNL     1      41.502 -13.736  -0.180  1.00  0.00     0.278 A 
HETATM    3  O   UNL     1      42.028 -13.218  -1.147  1.00  0.00    -0.265 OA
HETATM    4  C   UNL     1      41.495 -15.186   0.088  1.00  0.00     0.146 A 
HETATM    5  C   UNL     1      40.954 -15.356   1.298  1.00  0.00     0.059 A 
HETATM    6  C   UNL     1      40.487 -14.068   1.905  1.00  0.00     0.161 A 
ENDROOT
BRANCH   5   7
HETATM    7  C   UNL     1      40.677 -16.616   2.014  1.00  0.00     0.193 C 
HETATM    8  O   UNL     1      39.514 -17.013   2.057  1.00  0.00    -0.287 OA
BRANCH   7   9
HETATM    9  C   UNL     1      41.761 -17.364   2.709  1.00  0.00     0.015 A 
HETATM   10  C   UNL     1      41.816 -17.300   4.106  1.00  0.00     0.025 A 
HETATM   11  C   UNL     1      42.824 -17.971   4.820  1.00  0.00    -0.028 A 
HETATM   12  C   UNL     1      42.856 -17.885   6.323  1.00  0.00     0.051 C 
HETATM   13  C   UNL     1      43.780 -18.732   4.124  1.00  0.00     0.074 A 
HETATM   14  C   UNL     1      43.745 -18.764   2.729  1.00  0.00     0.038 A 
HETATM   15  C   UNL     1      42.753 -18.073   2.025  1.00  0.00     0.018 A 
BRANCH  13  16
HETATM   16  O   UNL     1      44.699 -19.388   4.899  1.00  0.00    -0.350 OA
BRANCH  16  17
HETATM   17  C   UNL     1      45.359 -20.521   4.331  1.00  0.00     0.179 C 
BRANCH  17  18
HETATM   18  C   UNL     1      45.061 -21.756   5.194  1.00  0.00     0.002 C 
HETATM   19  C   UNL     1      44.060 -21.430   6.304  1.00  0.00     0.011 C 
HETATM   20  C   UNL     1      44.535 -22.897   4.325  1.00  0.00     0.011 C 
ENDBRANCH  17  18
ENDBRANCH  16  17
ENDBRANCH  13  16
ENDBRANCH   7   9
ENDBRANCH   5   7
BRANCH   4  21
HETATM   21  O   UNL     1      41.962 -16.117  -0.787  1.00  0.00    -0.355 OA
HETATM   22  H   UNL     1      41.739 -16.995  -0.416  1.00  0.00     0.218 HD
ENDBRANCH   4  21
BRANCH   6  23
HETATM   23  C   UNL     1      41.120 -13.726   3.242  1.00  0.00    -0.028 A 
HETATM   24  C   UNL     1      40.351 -13.348   4.362  1.00  0.00     0.049 A 
HETATM   25  C   UNL     1      40.972 -13.070   5.581  1.00  0.00     0.101 A 
HETATM   26  C   UNL     1      42.355 -13.216   5.696  1.00  0.00     0.099 A 
HETATM   27  C   UNL     1      43.132 -13.575   4.606  1.00  0.00     0.040 A 
HETATM   28  C   UNL     1      42.518 -13.819   3.378  1.00  0.00     0.012 A 
BRANCH  25  29
HETATM   29  O   UNL     1      40.305 -12.706   6.722  1.00  0.00    -0.353 OA
HETATM   30  C   UNL     1      39.724 -11.404   6.667  1.00  0.00     0.210 C 
ENDBRANCH  25  29
BRANCH  26  31
HETATM   31  O   UNL     1      42.980 -12.994   6.890  1.00  0.00    -0.358 OA
HETATM   32  H   UNL     1      43.842 -12.591   6.669  1.00  0.00     0.218 HD
ENDBRANCH  26  31
ENDBRANCH   6  23
BRANCH   1  33
HETATM   33  C   UNL     1      40.853 -11.669   1.067  1.00  0.00     0.155 C 
BRANCH  33  34
HETATM   34  C   UNL     1      39.594 -10.943   0.554  1.00  0.00     0.254 C 
BRANCH  34  35
HETATM   35  N   UNL     1      38.331 -11.266   1.351  1.00  0.00    -0.070 N 
HETATM   36  H   UNL     1      38.624 -11.977   2.034  1.00  0.00     0.279 HD
BRANCH  35  37
HETATM   37  C   UNL     1      37.224 -11.927   0.539  1.00  0.00     0.230 C 
HETATM   38  C   UNL     1      37.274 -13.440   0.643  1.00  0.00     0.034 C 
ENDBRANCH  35  37
BRANCH  35  39
HETATM   39  C   UNL     1      37.773 -10.115   2.170  1.00  0.00     0.230 C 
HETATM   40  C   UNL     1      38.039 -10.307   3.652  1.00  0.00     0.034 C 
ENDBRANCH  35  39
ENDBRANCH  34  35
ENDBRANCH  33  34
ENDBRANCH   1  33
TORSDOF 14
ENDMDL
MODEL 5
REMARK VINA RESULT:      -6.8      1.748      4.782
REMARK  14 active torsions:
REMARK  status: ('A' for Active; 'I' for Inactive)
REMARK    1  A    between atoms: C_2  and  N_3 
REMARK    2  A    between atoms: N_3  and  C_5 
REMARK    3  A    between atoms: N_3  and  C_37 
REMARK    4  A    between atoms: C_5  and  C_6 
REMARK    5  A    between atoms: C_6  and  N_7 
REMARK    6  A    between atoms: C_10  and  O_11 
REMARK    7  A    between atoms: C_12  and  C_13 
REMARK    8  A    between atoms: C_13  and  C_14 
REMARK    9  A    between atoms: C_18  and  O_19 
REMARK   10  A    between atoms: O_19  and  C_20 
REMARK   11  A    between atoms: C_20  and  C_21 
REMARK   12  A    between atoms: C_27  and  C_28 
REMARK   13  A    between atoms: C_30  and  O_31 
REMARK   14  A    between atoms: C_33  and  O_34 
ROOT
HETATM    1  N   UNL     1      41.188 -12.225   0.945  1.00  0.00    -0.332 N 
HETATM    2  C   UNL     1      41.722 -12.861  -0.156  1.00  0.00     0.278 A 
HETATM    3  O   UNL     1      42.341 -12.362  -1.077  1.00  0.00    -0.265 OA
HETATM    4  C   UNL     1      41.434 -14.302  -0.029  1.00  0.00     0.146 A 
HETATM    5  C   UNL     1      40.866 -14.482   1.167  1.00  0.00     0.059 A 
HETATM    6  C   UNL     1      40.655 -13.193   1.902  1.00  0.00     0.161 A 
ENDROOT
BRANCH   5   7
HETATM    7  C   UNL     1      40.349 -15.728   1.762  1.00  0.00     0.193 C 
HETATM    8  O   UNL     1      39.131 -15.868   1.846  1.00  0.00    -0.287 OA
BRANCH   7   9
HETATM    9  C   UNL     1      41.271 -16.771   2.294  1.00  0.00     0.015 A 
HETATM   10  C   UNL     1      41.434 -16.861   3.682  1.00  0.00     0.025 A 
HETATM   11  C   UNL     1      42.302 -17.813   4.246  1.00  0.00    -0.028 A 
HETATM   12  C   UNL     1      42.456 -17.887   5.742  1.00  0.00     0.051 C 
HETATM   13  C   UNL     1      43.001 -18.699   3.408  1.00  0.00     0.074 A 
HETATM   14  C   UNL     1      42.864 -18.583   2.023  1.00  0.00     0.038 A 
HETATM   15  C   UNL     1      42.017 -17.617   1.469  1.00  0.00     0.018 A 
BRANCH  13  16
HETATM   16  O   UNL     1      43.790 -19.622   4.041  1.00  0.00    -0.350 OA
BRANCH  16  17
HETATM   17  C   UNL     1      44.731 -20.348   3.248  1.00  0.00     0.179 C 
BRANCH  17  18
HETATM   18  C   UNL     1      44.154 -21.735   2.932  1.00  0.00     0.002 C 
HETATM   19  C   UNL     1      44.459 -22.150   1.491  1.00  0.00     0.011 C 
HETATM   20  C   UNL     1      44.701 -22.774   3.909  1.00  0.00     0.011 C 
ENDBRANCH  17  18
ENDBRANCH  16  17
ENDBRANCH  13  16
ENDBRANCH   7   9
ENDBRANCH   5   7
BRANCH   4  21
HETATM   21  O   UNL     1      41.715 -15.215  -0.997  1.00  0.00    -0.355 OA
HETATM   22  H   UNL     1      41.569 -14.772  -1.858  1.00  0.00     0.218 HD
ENDBRANCH   4  21
BRANCH   6  23
HETATM   23  C   UNL     1      41.337 -13.112   3.256  1.00  0.00    -0.028 A 
HETATM   24  C   UNL     1      40.666 -12.654   4.409  1.00  0.00     0.049 A 
HETATM   25  C   UNL     1      41.324 -12.622   5.640  1.00  0.00     0.101 A 
HETATM   26  C   UNL     1      42.635 -13.093   5.731  1.00  0.00     0.099 A 
HETATM   27  C   UNL     1      43.317 -13.536   4.610  1.00  0.00     0.040 A 
HETATM   28  C   UNL     1      42.675 -13.536   3.373  1.00  0.00     0.012 A 
BRANCH  25  29
HETATM   29  O   UNL     1      40.750 -12.203   6.812  1.00  0.00    -0.353 OA
HETATM   30  C   UNL     1      39.329 -12.095   6.759  1.00  0.00     0.210 C 
ENDBRANCH  25  29
BRANCH  26  31
HETATM   31  O   UNL     1      43.283 -13.114   6.933  1.00  0.00    -0.358 OA
HETATM   32  H   UNL     1      43.800 -12.286   6.972  1.00  0.00     0.218 HD
ENDBRANCH  26  31
ENDBRANCH   6  23
BRANCH   1  33
HETATM   33  C   UNL     1      41.479 -10.839   1.294  1.00  0.00     0.155 C 
BRANCH  33  34
HETATM   34  C   UNL     1      40.356  -9.848   0.934  1.00  0.00     0.254 C 
BRANCH  34  35
HETATM   35  N   UNL     1      39.800  -9.086   2.136  1.00  0.00    -0.070 N 
HETATM   36  H   UNL     1      39.901  -8.092   1.889  1.00  0.00     0.279 HD
BRANCH  35  37
HETATM   37  C   UNL     1      40.600  -9.260   3.420  1.00  0.00     0.230 C 
HETATM   38  C   UNL     1      40.057  -8.400   4.545  1.00  0.00     0.034 C 
ENDBRANCH  35  37
BRANCH  35  39
HETATM   39  C   UNL     1      38.319  -9.293   2.402  1.00  0.00     0.230 C 
HETATM   40  C   UNL     1      37.978 -10.766   2.539  1.00  0.00     0.034 C 
ENDBRANCH  35  39
ENDBRANCH  34  35
ENDBRANCH  33  34
ENDBRANCH   1  33
TORSDOF 14
ENDMDL
MODEL 6
REMARK VINA RESULT:      -6.8      2.069      4.957
REMARK  14 active torsions:
REMARK  status: ('A' for Active; 'I' for Inactive)
REMARK    1  A    between atoms: C_2  and  N_3 
REMARK    2  A    between atoms: N_3  and  C_5 
REMARK    3  A    between atoms: N_3  and  C_37 
REMARK    4  A    between atoms: C_5  and  C_6 
REMARK    5  A    between atoms: C_6  and  N_7 
REMARK    6  A    between atoms: C_10  and  O_11 
REMARK    7  A    between atoms: C_12  and  C_13 
REMARK    8  A    between atoms: C_13  and  C_14 
REMARK    9  A    between atoms: C_18  and  O_19 
REMARK   10  A    between atoms: O_19  and  C_20 
REMARK   11  A    between atoms: C_20  and  C_21 
REMARK   12  A    between atoms: C_27  and  C_28 
REMARK   13  A    between atoms: C_30  and  O_31 
REMARK   14  A    between atoms: C_33  and  O_34 
ROOT
HETATM    1  N   UNL     1      41.248 -12.354   0.811  1.00  0.00    -0.332 N 
HETATM    2  C   UNL     1      41.760 -13.009  -0.290  1.00  0.00     0.278 A 
HETATM    3  O   UNL     1      42.372 -12.528  -1.224  1.00  0.00    -0.265 OA
HETATM    4  C   UNL     1      41.455 -14.445  -0.142  1.00  0.00     0.146 A 
HETATM    5  C   UNL     1      40.902 -14.604   1.063  1.00  0.00     0.059 A 
HETATM    6  C   UNL     1      40.716 -13.304   1.786  1.00  0.00     0.161 A 
ENDROOT
BRANCH   5   7
HETATM    7  C   UNL     1      40.378 -15.837   1.680  1.00  0.00     0.193 C 
HETATM    8  O   UNL     1      39.162 -15.937   1.832  1.00  0.00    -0.287 OA
BRANCH   7   9
HETATM    9  C   UNL     1      41.292 -16.914   2.152  1.00  0.00     0.015 A 
HETATM   10  C   UNL     1      41.494 -17.049   3.531  1.00  0.00     0.025 A 
HETATM   11  C   UNL     1      42.357 -18.036   4.040  1.00  0.00    -0.028 A 
HETATM   12  C   UNL     1      42.553 -18.159   5.528  1.00  0.00     0.051 C 
HETATM   13  C   UNL     1      43.014 -18.910   3.155  1.00  0.00     0.074 A 
HETATM   14  C   UNL     1      42.839 -18.748   1.779  1.00  0.00     0.038 A 
HETATM   15  C   UNL     1      41.997 -17.748   1.280  1.00  0.00     0.018 A 
BRANCH  13  16
HETATM   16  O   UNL     1      43.801 -19.867   3.736  1.00  0.00    -0.350 OA
BRANCH  16  17
HETATM   17  C   UNL     1      44.970 -20.286   3.030  1.00  0.00     0.179 C 
BRANCH  17  18
HETATM   18  C   UNL     1      44.880 -21.795   2.765  1.00  0.00     0.002 C 
HETATM   19  C   UNL     1      44.465 -22.557   4.025  1.00  0.00     0.011 C 
HETATM   20  C   UNL     1      43.898 -22.078   1.629  1.00  0.00     0.011 C 
ENDBRANCH  17  18
ENDBRANCH  16  17
ENDBRANCH  13  16
ENDBRANCH   7   9
ENDBRANCH   5   7
BRANCH   4  21
HETATM   21  O   UNL     1      41.713 -15.372  -1.104  1.00  0.00    -0.355 OA
HETATM   22  H   UNL     1      41.560 -14.936  -1.968  1.00  0.00     0.218 HD
ENDBRANCH   4  21
BRANCH   6  23
HETATM   23  C   UNL     1      41.418 -13.216   3.130  1.00  0.00    -0.028 A 
HETATM   24  C   UNL     1      40.766 -12.744   4.288  1.00  0.00     0.049 A 
HETATM   25  C   UNL     1      41.441 -12.706   5.510  1.00  0.00     0.101 A 
HETATM   26  C   UNL     1      42.749 -13.185   5.587  1.00  0.00     0.099 A 
HETATM   27  C   UNL     1      43.413 -13.643   4.460  1.00  0.00     0.040 A 
HETATM   28  C   UNL     1      42.754 -13.648   3.232  1.00  0.00     0.012 A 
BRANCH  25  29
HETATM   29  O   UNL     1      40.885 -12.273   6.685  1.00  0.00    -0.353 OA
HETATM   30  C   UNL     1      39.480 -12.037   6.615  1.00  0.00     0.210 C 
ENDBRANCH  25  29
BRANCH  26  31
HETATM   31  O   UNL     1      43.414 -13.201   6.780  1.00  0.00    -0.358 OA
HETATM   32  H   UNL     1      43.549 -12.264   7.022  1.00  0.00     0.218 HD
ENDBRANCH  26  31
ENDBRANCH   6  23
BRANCH   1  33
HETATM   33  C   UNL     1      41.561 -10.968   1.140  1.00  0.00     0.155 C 
BRANCH  33  34
HETATM   34  C   UNL     1      40.822  -9.931   0.274  1.00  0.00     0.254 C 
BRANCH  34  35
HETATM   35  N   UNL     1      41.748  -8.916  -0.396  1.00  0.00    -0.070 N 
HETATM   36  H   UNL     1      41.497  -8.947  -1.393  1.00  0.00     0.279 HD
BRANCH  35  37
HETATM   37  C   UNL     1      43.226  -9.283  -0.347  1.00  0.00     0.230 C 
HETATM   38  C   UNL     1      44.078  -8.297  -1.125  1.00  0.00     0.034 C 
ENDBRANCH  35  37
BRANCH  35  39
HETATM   39  C   UNL     1      41.545  -7.474   0.034  1.00  0.00     0.230 C 
HETATM   40  C   UNL     1      41.616  -7.327   1.543  1.00  0.00     0.034 C 
ENDBRANCH  35  39
ENDBRANCH  34  35
ENDBRANCH  33  34
ENDBRANCH   1  33
TORSDOF 14
ENDMDL
MODEL 7
REMARK VINA RESULT:      -6.7      2.328      3.905
REMARK  14 active torsions:
REMARK  status: ('A' for Active; 'I' for Inactive)
REMARK    1  A    between atoms: C_2  and  N_3 
REMARK    2  A    between atoms: N_3  and  C_5 
REMARK    3  A    between atoms: N_3  and  C_37 
REMARK    4  A    between atoms: C_5  and  C_6 
REMARK    5  A    between atoms: C_6  and  N_7 
REMARK    6  A    between atoms: C_10  and  O_11 
REMARK    7  A    between atoms: C_12  and  C_13 
REMARK    8  A    between atoms: C_13  and  C_14 
REMARK    9  A    between atoms: C_18  and  O_19 
REMARK   10  A    between atoms: O_19  and  C_20 
REMARK   11  A    between atoms: C_20  and  C_21 
REMARK   12  A    between atoms: C_27  and  C_28 
REMARK   13  A    between atoms: C_30  and  O_31 
REMARK   14  A    between atoms: C_33  and  O_34 
ROOT
HETATM    1  N   UNL     1      40.376 -11.415   2.107  1.00  0.00    -0.332 N 
HETATM    2  C   UNL     1      39.229 -10.735   2.461  1.00  0.00     0.278 A 
HETATM    3  O   UNL     1      38.629  -9.898   1.813  1.00  0.00    -0.265 OA
HETATM    4  C   UNL     1      38.812 -11.215   3.792  1.00  0.00     0.146 A 
HETATM    5  C   UNL     1      39.629 -12.221   4.117  1.00  0.00     0.059 A 
HETATM    6  C   UNL     1      40.696 -12.449   3.089  1.00  0.00     0.161 A 
ENDROOT
BRANCH   5   7
HETATM    7  C   UNL     1      39.665 -13.012   5.361  1.00  0.00     0.193 C 
HETATM    8  O   UNL     1      38.811 -12.785   6.216  1.00  0.00    -0.287 OA
BRANCH   7   9
HETATM    9  C   UNL     1      40.731 -14.024   5.603  1.00  0.00     0.015 A 
HETATM   10  C   UNL     1      42.040 -13.568   5.801  1.00  0.00     0.025 A 
HETATM   11  C   UNL     1      43.094 -14.474   6.018  1.00  0.00    -0.028 A 
HETATM   12  C   UNL     1      44.491 -13.954   6.229  1.00  0.00     0.051 C 
HETATM   13  C   UNL     1      42.828 -15.854   6.056  1.00  0.00     0.074 A 
HETATM   14  C   UNL     1      41.528 -16.307   5.822  1.00  0.00     0.038 A 
HETATM   15  C   UNL     1      40.490 -15.401   5.582  1.00  0.00     0.018 A 
BRANCH  13  16
HETATM   16  O   UNL     1      43.902 -16.662   6.316  1.00  0.00    -0.350 OA
BRANCH  16  17
HETATM   17  C   UNL     1      43.861 -18.003   5.824  1.00  0.00     0.179 C 
BRANCH  17  18
HETATM   18  C   UNL     1      43.517 -18.949   6.983  1.00  0.00     0.002 C 
HETATM   19  C   UNL     1      43.835 -20.403   6.628  1.00  0.00     0.011 C 
HETATM   20  C   UNL     1      44.268 -18.537   8.248  1.00  0.00     0.011 C 
ENDBRANCH  17  18
ENDBRANCH  16  17
ENDBRANCH  13  16
ENDBRANCH   7   9
ENDBRANCH   5   7
BRANCH   4  21
HETATM   21  O   UNL     1      37.782 -10.677   4.499  1.00  0.00    -0.355 OA
HETATM   22  H   UNL     1      36.954 -10.995   4.083  1.00  0.00     0.218 HD
ENDBRANCH   4  21
BRANCH   6  23
HETATM   23  C   UNL     1      40.712 -13.842   2.486  1.00  0.00    -0.028 A 
HETATM   24  C   UNL     1      41.911 -14.489   2.121  1.00  0.00     0.049 A 
HETATM   25  C   UNL     1      41.881 -15.782   1.594  1.00  0.00     0.101 A 
HETATM   26  C   UNL     1      40.660 -16.448   1.478  1.00  0.00     0.099 A 
HETATM   27  C   UNL     1      39.469 -15.828   1.819  1.00  0.00     0.040 A 
HETATM   28  C   UNL     1      39.492 -14.524   2.311  1.00  0.00     0.012 A 
BRANCH  25  29
HETATM   29  O   UNL     1      42.994 -16.490   1.223  1.00  0.00    -0.353 OA
HETATM   30  C   UNL     1      43.817 -16.898   2.314  1.00  0.00     0.210 C 
ENDBRANCH  25  29
BRANCH  26  31
HETATM   31  O   UNL     1      40.610 -17.730   1.009  1.00  0.00    -0.358 OA
HETATM   32  H   UNL     1      40.836 -18.301   1.768  1.00  0.00     0.218 HD
ENDBRANCH  26  31
ENDBRANCH   6  23
BRANCH   1  33
HETATM   33  C   UNL     1      40.945 -11.389   0.765  1.00  0.00     0.155 C 
BRANCH  33  34
HETATM   34  C   UNL     1      40.037 -12.004  -0.318  1.00  0.00     0.254 C 
BRANCH  34  35
HETATM   35  N   UNL     1      40.746 -13.025  -1.207  1.00  0.00    -0.070 N 
HETATM   36  H   UNL     1      41.555 -13.341  -0.654  1.00  0.00     0.279 HD
BRANCH  35  37
HETATM   37  C   UNL     1      41.340 -12.446  -2.484  1.00  0.00     0.230 C 
HETATM   38  C   UNL     1      42.844 -12.270  -2.378  1.00  0.00     0.034 C 
ENDBRANCH  35  37
BRANCH  35  39
HETATM   39  C   UNL     1      39.946 -14.279  -1.515  1.00  0.00     0.230 C 
HETATM   40  C   UNL     1      40.837 -15.397  -2.025  1.00  0.00     0.034 C 
ENDBRANCH  35  39
ENDBRANCH  34  35
ENDBRANCH  33  34
ENDBRANCH   1  33
TORSDOF 14
ENDMDL
MODEL 8
REMARK VINA RESULT:      -6.7      1.577      2.360
REMARK  14 active torsions:
REMARK  status: ('A' for Active; 'I' for Inactive)
REMARK    1  A    between atoms: C_2  and  N_3 
REMARK    2  A    between atoms: N_3  and  C_5 
REMARK    3  A    between atoms: N_3  and  C_37 
REMARK    4  A    between atoms: C_5  and  C_6 
REMARK    5  A    between atoms: C_6  and  N_7 
REMARK    6  A    between atoms: C_10  and  O_11 
REMARK    7  A    between atoms: C_12  and  C_13 
REMARK    8  A    between atoms: C_13  and  C_14 
REMARK    9  A    between atoms: C_18  and  O_19 
REMARK   10  A    between atoms: O_19  and  C_20 
REMARK   11  A    between atoms: C_20  and  C_21 
REMARK   12  A    between atoms: C_27  and  C_28 
REMARK   13  A    between atoms: C_30  and  O_31 
REMARK   14  A    between atoms: C_33  and  O_34 
ROOT
HETATM    1  N   UNL     1      39.989 -12.004   4.217  1.00  0.00    -0.332 N 
HETATM    2  C   UNL     1      39.567 -12.813   5.251  1.00  0.00     0.278 A 
HETATM    3  O   UNL     1      38.483 -12.810   5.804  1.00  0.00    -0.265 OA
HETATM    4  C   UNL     1      40.669 -13.736   5.580  1.00  0.00     0.146 A 
HETATM    5  C   UNL     1      41.632 -13.533   4.676  1.00  0.00     0.059 A 
HETATM    6  C   UNL     1      41.301 -12.423   3.726  1.00  0.00     0.161 A 
ENDROOT
BRANCH   5   7
HETATM    7  C   UNL     1      42.959 -14.169   4.586  1.00  0.00     0.193 C 
HETATM    8  O   UNL     1      43.951 -13.470   4.787  1.00  0.00    -0.287 OA
BRANCH   7   9
HETATM    9  C   UNL     1      43.105 -15.604   4.214  1.00  0.00     0.015 A 
HETATM   10  C   UNL     1      43.343 -15.916   2.870  1.00  0.00     0.025 A 
HETATM   11  C   UNL     1      43.475 -17.252   2.452  1.00  0.00    -0.028 A 
HETATM   12  C   UNL     1      43.732 -17.556   1.000  1.00  0.00     0.051 C 
HETATM   13  C   UNL     1      43.384 -18.289   3.398  1.00  0.00     0.074 A 
HETATM   14  C   UNL     1      43.110 -17.977   4.730  1.00  0.00     0.038 A 
HETATM   15  C   UNL     1      42.956 -16.646   5.134  1.00  0.00     0.018 A 
BRANCH  13  16
HETATM   16  O   UNL     1      43.567 -19.556   2.913  1.00  0.00    -0.350 OA
BRANCH  16  17
HETATM   17  C   UNL     1      44.692 -20.295   3.393  1.00  0.00     0.179 C 
BRANCH  17  18
HETATM   18  C   UNL     1      44.708 -21.674   2.718  1.00  0.00     0.002 C 
HETATM   19  C   UNL     1      44.568 -22.799   3.746  1.00  0.00     0.011 C 
HETATM   20  C   UNL     1      43.595 -21.769   1.675  1.00  0.00     0.011 C 
ENDBRANCH  17  18
ENDBRANCH  16  17
ENDBRANCH  13  16
ENDBRANCH   7   9
ENDBRANCH   5   7
BRANCH   4  21
HETATM   21  O   UNL     1      40.640 -14.599   6.632  1.00  0.00    -0.355 OA
HETATM   22  H   UNL     1      39.698 -14.770   6.834  1.00  0.00     0.218 HD
ENDBRANCH   4  21
BRANCH   6  23
HETATM   23  C   UNL     1      41.275 -12.823   2.261  1.00  0.00    -0.028 A 
HETATM   24  C   UNL     1      42.021 -12.136   1.282  1.00  0.00     0.049 A 
HETATM   25  C   UNL     1      41.990 -12.556  -0.050  1.00  0.00     0.101 A 
HETATM   26  C   UNL     1      41.254 -13.690  -0.396  1.00  0.00     0.099 A 
HETATM   27  C   UNL     1      40.503 -14.373   0.548  1.00  0.00     0.040 A 
HETATM   28  C   UNL     1      40.504 -13.935   1.872  1.00  0.00     0.012 A 
BRANCH  25  29
HETATM   29  O   UNL     1      42.690 -11.957  -1.065  1.00  0.00    -0.353 OA
HETATM   30  C   UNL     1      42.872 -10.552  -0.898  1.00  0.00     0.210 C 
ENDBRANCH  25  29
BRANCH  26  31
HETATM   31  O   UNL     1      41.245 -14.147  -1.683  1.00  0.00    -0.358 OA
HETATM   32  H   UNL     1      41.831 -14.927  -1.693  1.00  0.00     0.218 HD
ENDBRANCH  26  31
ENDBRANCH   6  23
BRANCH   1  33
HETATM   33  C   UNL     1      39.097 -11.134   3.460  1.00  0.00     0.155 C 
BRANCH  33  34
HETATM   34  C   UNL     1      38.887  -9.743   4.088  1.00  0.00     0.254 C 
BRANCH  34  35
HETATM   35  N   UNL     1      37.824  -8.902   3.381  1.00  0.00    -0.070 N 
HETATM   36  H   UNL     1      37.210  -9.587   2.919  1.00  0.00     0.279 HD
BRANCH  35  37
HETATM   37  C   UNL     1      38.359  -8.026   2.256  1.00  0.00     0.230 C 
HETATM   38  C   UNL     1      39.770  -7.545   2.537  1.00  0.00     0.034 C 
ENDBRANCH  35  37
BRANCH  35  39
HETATM   39  C   UNL     1      36.922  -8.096   4.299  1.00  0.00     0.230 C 
HETATM   40  C   UNL     1      37.545  -7.912   5.671  1.00  0.00     0.034 C 
ENDBRANCH  35  39
ENDBRANCH  34  35
ENDBRANCH  33  34
ENDBRANCH   1  33
TORSDOF 14
ENDMDL
MODEL 9
REMARK VINA RESULT:      -6.7      2.306      3.989
REMARK  14 active torsions:
REMARK  status: ('A' for Active; 'I' for Inactive)
REMARK    1  A    between atoms: C_2  and  N_3 
REMARK    2  A    between atoms: N_3  and  C_5 
REMARK    3  A    between atoms: N_3  and  C_37 
REMARK    4  A    between atoms: C_5  and  C_6 
REMARK    5  A    between atoms: C_6  and  N_7 
REMARK    6  A    between atoms: C_10  and  O_11 
REMARK    7  A    between atoms: C_12  and  C_13 
REMARK    8  A    between atoms: C_13  and  C_14 
REMARK    9  A    between atoms: C_18  and  O_19 
REMARK   10  A    between atoms: O_19  and  C_20 
REMARK   11  A    between atoms: C_20  and  C_21 
REMARK   12  A    between atoms: C_27  and  C_28 
REMARK   13  A    between atoms: C_30  and  O_31 
REMARK   14  A    between atoms: C_33  and  O_34 
ROOT
HETATM    1  N   UNL     1      39.789 -11.096   1.869  1.00  0.00    -0.332 N 
HETATM    2  C   UNL     1      38.642 -10.489   2.336  1.00  0.00     0.278 A 
HETATM    3  O   UNL     1      37.888  -9.752   1.728  1.00  0.00    -0.265 OA
HETATM    4  C   UNL     1      38.451 -10.904   3.739  1.00  0.00     0.146 A 
HETATM    5  C   UNL     1      39.392 -11.814   4.007  1.00  0.00     0.059 A 
HETATM    6  C   UNL     1      40.329 -12.028   2.857  1.00  0.00     0.161 A 
ENDROOT
BRANCH   5   7
HETATM    7  C   UNL     1      39.664 -12.509   5.280  1.00  0.00     0.193 C 
HETATM    8  O   UNL     1      38.956 -12.242   6.248  1.00  0.00    -0.287 OA
BRANCH   7   9
HETATM    9  C   UNL     1      40.795 -13.470   5.409  1.00  0.00     0.015 A 
HETATM   10  C   UNL     1      40.503 -14.839   5.378  1.00  0.00     0.025 A 
HETATM   11  C   UNL     1      41.524 -15.797   5.511  1.00  0.00    -0.028 A 
HETATM   12  C   UNL     1      41.180 -17.262   5.473  1.00  0.00     0.051 C 
HETATM   13  C   UNL     1      42.858 -15.376   5.659  1.00  0.00     0.074 A 
HETATM   14  C   UNL     1      43.141 -14.011   5.726  1.00  0.00     0.038 A 
HETATM   15  C   UNL     1      42.116 -13.064   5.617  1.00  0.00     0.018 A 
BRANCH  13  16
HETATM   16  O   UNL     1      43.793 -16.373   5.738  1.00  0.00    -0.350 OA
BRANCH  16  17
HETATM   17  C   UNL     1      44.277 -16.730   7.034  1.00  0.00     0.179 C 
BRANCH  17  18
HETATM   18  C   UNL     1      44.787 -18.177   6.995  1.00  0.00     0.002 C 
HETATM   19  C   UNL     1      43.846 -19.119   7.749  1.00  0.00     0.011 C 
HETATM   20  C   UNL     1      44.955 -18.644   5.550  1.00  0.00     0.011 C 
ENDBRANCH  17  18
ENDBRANCH  16  17
ENDBRANCH  13  16
ENDBRANCH   7   9
ENDBRANCH   5   7
BRANCH   4  21
HETATM   21  O   UNL     1      37.479 -10.403   4.548  1.00  0.00    -0.355 OA
HETATM   22  H   UNL     1      36.629 -10.778   4.239  1.00  0.00     0.218 HD
ENDBRANCH   4  21
BRANCH   6  23
HETATM   23  C   UNL     1      40.391 -13.455   2.342  1.00  0.00    -0.028 A 
HETATM   24  C   UNL     1      41.607 -14.069   1.977  1.00  0.00     0.049 A 
HETATM   25  C   UNL     1      41.621 -15.394   1.534  1.00  0.00     0.101 A 
HETATM   26  C   UNL     1      40.430 -16.120   1.502  1.00  0.00     0.099 A 
HETATM   27  C   UNL     1      39.222 -15.532   1.844  1.00  0.00     0.040 A 
HETATM   28  C   UNL     1      39.200 -14.200   2.252  1.00  0.00     0.012 A 
BRANCH  25  29
HETATM   29  O   UNL     1      42.753 -16.074   1.170  1.00  0.00    -0.353 OA
HETATM   30  C   UNL     1      43.577 -16.465   2.266  1.00  0.00     0.210 C 
ENDBRANCH  25  29
BRANCH  26  31
HETATM   31  O   UNL     1      40.425 -17.430   1.116  1.00  0.00    -0.358 OA
HETATM   32  H   UNL     1      40.046 -17.927   1.866  1.00  0.00     0.218 HD
ENDBRANCH  26  31
ENDBRANCH   6  23
BRANCH   1  33
HETATM   33  C   UNL     1      40.170 -11.120   0.461  1.00  0.00     0.155 C 
BRANCH  33  34
HETATM   34  C   UNL     1      41.575 -10.556   0.178  1.00  0.00     0.254 C 
BRANCH  34  35
HETATM   35  N   UNL     1      42.164 -11.014  -1.156  1.00  0.00    -0.070 N 
HETATM   36  H   UNL     1      41.428 -10.825  -1.849  1.00  0.00     0.279 HD
BRANCH  35  37
HETATM   37  C   UNL     1      42.423 -12.512  -1.250  1.00  0.00     0.230 C 
HETATM   38  C   UNL     1      41.556 -13.169  -2.309  1.00  0.00     0.034 C 
ENDBRANCH  35  37
BRANCH  35  39
HETATM   39  C   UNL     1      43.380 -10.235  -1.627  1.00  0.00     0.230 C 
HETATM   40  C   UNL     1      43.651  -9.036  -0.737  1.00  0.00     0.034 C 
ENDBRANCH  35  39
ENDBRANCH  34  35
ENDBRANCH  33  34
ENDBRANCH   1  33
TORSDOF 14
ENDMDL
MODEL 10
REMARK VINA RESULT:      -6.5      3.245      6.280
REMARK  14 active torsions:
REMARK  status: ('A' for Active; 'I' for Inactive)
REMARK    1  A    between atoms: C_2  and  N_3 
REMARK    2  A    between atoms: N_3  and  C_5 
REMARK    3  A    between atoms: N_3  and  C_37 
REMARK    4  A    between atoms: C_5  and  C_6 
REMARK    5  A    between atoms: C_6  and  N_7 
REMARK    6  A    between atoms: C_10  and  O_11 
REMARK    7  A    between atoms: C_12  and  C_13 
REMARK    8  A    between atoms: C_13  and  C_14 
REMARK    9  A    between atoms: C_18  and  O_19 
REMARK   10  A    between atoms: O_19  and  C_20 
REMARK   11  A    between atoms: C_20  and  C_21 
REMARK   12  A    between atoms: C_27  and  C_28 
REMARK   13  A    between atoms: C_30  and  O_31 
REMARK   14  A    between atoms: C_33  and  O_34 
ROOT
HETATM    1  N   UNL     1      40.586 -10.905   6.246  1.00  0.00    -0.332 N 
HETATM    2  C   UNL     1      41.127  -9.833   5.568  1.00  0.00     0.278 A 
HETATM    3  O   UNL     1      41.621  -8.826   6.040  1.00  0.00    -0.265 OA
HETATM    4  C   UNL     1      41.032 -10.117   4.124  1.00  0.00     0.146 A 
HETATM    5  C   UNL     1      40.566 -11.363   4.001  1.00  0.00     0.059 A 
HETATM    6  C   UNL     1      40.239 -11.986   5.325  1.00  0.00     0.161 A 
ENDROOT
BRANCH   5   7
HETATM    7  C   UNL     1      40.248 -12.110   2.770  1.00  0.00     0.193 C 
HETATM    8  O   UNL     1      39.328 -11.699   2.065  1.00  0.00    -0.287 OA
BRANCH   7   9
HETATM    9  C   UNL     1      40.981 -13.355   2.410  1.00  0.00     0.015 A 
HETATM   10  C   UNL     1      40.251 -14.546   2.313  1.00  0.00     0.025 A 
HETATM   11  C   UNL     1      40.888 -15.758   1.992  1.00  0.00    -0.028 A 
HETATM   12  C   UNL     1      40.076 -17.022   1.892  1.00  0.00     0.051 C 
HETATM   13  C   UNL     1      42.273 -15.773   1.749  1.00  0.00     0.074 A 
HETATM   14  C   UNL     1      43.004 -14.591   1.883  1.00  0.00     0.038 A 
HETATM   15  C   UNL     1      42.367 -13.394   2.226  1.00  0.00     0.018 A 
BRANCH  13  16
HETATM   16  O   UNL     1      42.804 -16.986   1.401  1.00  0.00    -0.350 OA
BRANCH  16  17
HETATM   17  C   UNL     1      43.849 -17.514   2.220  1.00  0.00     0.179 C 
BRANCH  17  18
HETATM   18  C   UNL     1      43.332 -18.768   2.940  1.00  0.00     0.002 C 
HETATM   19  C   UNL     1      43.329 -19.982   2.008  1.00  0.00     0.011 C 
HETATM   20  C   UNL     1      44.176 -19.056   4.180  1.00  0.00     0.011 C 
ENDBRANCH  17  18
ENDBRANCH  16  17
ENDBRANCH  13  16
ENDBRANCH   7   9
ENDBRANCH   5   7
BRANCH   4  21
HETATM   21  O   UNL     1      41.367  -9.221   3.156  1.00  0.00    -0.355 OA
HETATM   22  H   UNL     1      40.534  -8.955   2.713  1.00  0.00     0.218 HD
ENDBRANCH   4  21
BRANCH   6  23
HETATM   23  C   UNL     1      40.986 -13.273   5.626  1.00  0.00    -0.028 A 
HETATM   24  C   UNL     1      42.389 -13.311   5.765  1.00  0.00     0.049 A 
HETATM   25  C   UNL     1      43.033 -14.512   6.070  1.00  0.00     0.101 A 
HETATM   26  C   UNL     1      42.275 -15.663   6.285  1.00  0.00     0.099 A 
HETATM   27  C   UNL     1      40.896 -15.652   6.141  1.00  0.00     0.040 A 
HETATM   28  C   UNL     1      40.254 -14.462   5.801  1.00  0.00     0.012 A 
BRANCH  25  29
HETATM   29  O   UNL     1      44.388 -14.641   6.234  1.00  0.00    -0.353 OA
HETATM   30  C   UNL     1      44.933 -13.813   7.260  1.00  0.00     0.210 C 
ENDBRANCH  25  29
BRANCH  26  31
HETATM   31  O   UNL     1      42.879 -16.839   6.629  1.00  0.00    -0.358 OA
HETATM   32  H   UNL     1      43.779 -16.796   6.254  1.00  0.00     0.218 HD
ENDBRANCH  26  31
ENDBRANCH   6  23
BRANCH   1  33
HETATM   33  C   UNL     1      40.720 -11.099   7.685  1.00  0.00     0.155 C 
BRANCH  33  34
HETATM   34  C   UNL     1      42.133 -10.815   8.231  1.00  0.00     0.254 C 
BRANCH  34  35
HETATM   35  N   UNL     1      42.333 -11.259   9.680  1.00  0.00    -0.070 N 
HETATM   36  H   UNL     1      41.885 -12.184   9.736  1.00  0.00     0.279 HD
BRANCH  35  37
HETATM   37  C   UNL     1      41.606 -10.403  10.709  1.00  0.00     0.230 C 
HETATM   38  C   UNL     1      40.546 -11.194  11.453  1.00  0.00     0.034 C 
ENDBRANCH  35  37
BRANCH  35  39
HETATM   39  C   UNL     1      43.777 -11.477  10.095  1.00  0.00     0.230 C 
HETATM   40  C   UNL     1      44.198 -10.501  11.179  1.00  0.00     0.034 C 
ENDBRANCH  35  39
ENDBRANCH  34  35
ENDBRANCH  33  34
ENDBRANCH   1  33
TORSDOF 14
ENDMDL
