MODEL 1
REMARK VINA RESULT:      -7.4      0.000      0.000
REMARK  9 active torsions:
REMARK  status: ('A' for Active; 'I' for Inactive)
REMARK    1  A    between atoms: C_2  and  N_3 
REMARK       I    between atoms: N_3  and  C_4 
REMARK    2  A    between atoms: C_4  and  C_5 
REMARK    3  A    between atoms: C_5  and  S_6 
REMARK    4  A    between atoms: S_6  and  C_7 
REMARK    5  A    between atoms: N_8  and  C_9 
REMARK    6  A    between atoms: C_9  and  C_10 
REMARK    7  A    between atoms: C_10  and  C_11 
REMARK    8  A    between atoms: C_17  and  C_18 
REMARK    9  A    between atoms: C_21  and  O_22 
ROOT
HETATM    1  C   UNL     1      43.351 -15.926   6.832  1.00  0.00     0.192 A 
HETATM    2  N   UNL     1      42.398 -15.790   5.855  1.00  0.00    -0.307 N 
HETATM    3  C   UNL     1      42.714 -14.616   5.195  1.00  0.00     0.164 A 
HETATM    4  N   UNL     1      43.765 -14.079   5.796  1.00  0.00    -0.128 NA
HETATM    5  N   UNL     1      44.140 -14.881   6.833  1.00  0.00    -0.122 NA
ENDROOT
BRANCH   1   6
HETATM    6  S   UNL     1      43.497 -17.294   7.880  1.00  0.00    -0.081 SA
BRANCH   6   7
HETATM    7  C   UNL     1      44.837 -18.219   7.074  1.00  0.00     0.185 C 
BRANCH   7   8
HETATM    8  C   UNL     1      44.324 -19.516   6.469  1.00  0.00     0.227 C 
HETATM    9  N   UNL     1      44.881 -19.835   5.247  1.00  0.00    -0.357 N 
HETATM   10  H   UNL     1      45.294 -19.061   4.723  1.00  0.00     0.162 HD
HETATM   11  O   UNL     1      43.498 -20.223   7.041  1.00  0.00    -0.273 OA
BRANCH   9  12
HETATM   12  C   UNL     1      44.461 -20.997   4.481  1.00  0.00     0.076 C 
HETATM   13  C   UNL     1      45.187 -22.239   4.987  1.00  0.00     0.032 C 
HETATM   14  C   UNL     1      44.719 -20.792   2.989  1.00  0.00     0.032 C 
ENDBRANCH   9  12
ENDBRANCH   7   8
ENDBRANCH   6   7
ENDBRANCH   1   6
BRANCH   2  15
HETATM   15  C   UNL     1      41.323 -16.720   5.562  1.00  0.00     0.137 C 
BRANCH  15  16
HETATM   16  C   UNL     1      41.806 -17.886   4.692  1.00  0.00     0.059 C 
BRANCH  16  17
HETATM   17  C   UNL     1      42.067 -17.497   3.258  1.00  0.00    -0.057 A 
HETATM   18  C   UNL     1      43.370 -17.490   2.740  1.00  0.00     0.007 A 
HETATM   19  C   UNL     1      43.599 -17.161   1.402  1.00  0.00     0.001 A 
HETATM   20  C   UNL     1      42.529 -16.847   0.567  1.00  0.00     0.000 A 
HETATM   21  C   UNL     1      41.230 -16.860   1.068  1.00  0.00     0.001 A 
HETATM   22  C   UNL     1      40.999 -17.184   2.406  1.00  0.00     0.007 A 
ENDBRANCH  16  17
ENDBRANCH  15  16
ENDBRANCH   2  15
BRANCH   3  23
HETATM   23  C   UNL     1      42.096 -14.056   3.991  1.00  0.00     0.012 A 
HETATM   24  C   UNL     1      42.803 -13.786   2.817  1.00  0.00     0.018 A 
HETATM   25  C   UNL     1      42.142 -13.273   1.693  1.00  0.00     0.037 A 
HETATM   26  C   UNL     1      40.765 -13.046   1.712  1.00  0.00     0.068 A 
HETATM   27  C   UNL     1      40.048 -13.326   2.872  1.00  0.00     0.037 A 
HETATM   28  C   UNL     1      40.709 -13.830   3.999  1.00  0.00     0.018 A 
BRANCH  26  29
HETATM   29  O   UNL     1      40.245 -12.558   0.546  1.00  0.00    -0.356 OA
HETATM   30  C   UNL     1      39.955 -13.507  -0.473  1.00  0.00     0.210 C 
ENDBRANCH  26  29
ENDBRANCH   3  23
TORSDOF 9
ENDMDL
MODEL 2
REMARK VINA RESULT:      -7.3      3.229      7.465
REMARK  9 active torsions:
REMARK  status: ('A' for Active; 'I' for Inactive)
REMARK    1  A    between atoms: C_2  and  N_3 
REMARK       I    between atoms: N_3  and  C_4 
REMARK    2  A    between atoms: C_4  and  C_5 
REMARK    3  A    between atoms: C_5  and  S_6 
REMARK    4  A    between atoms: S_6  and  C_7 
REMARK    5  A    between atoms: N_8  and  C_9 
REMARK    6  A    between atoms: C_9  and  C_10 
REMARK    7  A    between atoms: C_10  and  C_11 
REMARK    8  A    between atoms: C_17  and  C_18 
REMARK    9  A    between atoms: C_21  and  O_22 
ROOT
HETATM    1  C   UNL     1      41.165 -15.016   1.601  1.00  0.00     0.192 A 
HETATM    2  N   UNL     1      42.036 -15.691   2.417  1.00  0.00    -0.307 N 
HETATM    3  C   UNL     1      41.692 -15.324   3.706  1.00  0.00     0.164 A 
HETATM    4  N   UNL     1      40.707 -14.442   3.630  1.00  0.00    -0.128 NA
HETATM    5  N   UNL     1      40.401 -14.230   2.318  1.00  0.00    -0.122 NA
ENDROOT
BRANCH   1   6
HETATM    6  S   UNL     1      41.076 -15.206  -0.115  1.00  0.00    -0.081 SA
BRANCH   6   7
HETATM    7  C   UNL     1      40.526 -13.553  -0.630  1.00  0.00     0.185 C 
BRANCH   7   8
HETATM    8  C   UNL     1      39.882 -13.590  -2.006  1.00  0.00     0.227 C 
HETATM    9  N   UNL     1      39.281 -14.791  -2.323  1.00  0.00    -0.357 N 
HETATM   10  H   UNL     1      39.597 -15.608  -1.797  1.00  0.00     0.162 HD
HETATM   11  O   UNL     1      39.885 -12.616  -2.756  1.00  0.00    -0.273 OA
BRANCH   9  12
HETATM   12  C   UNL     1      38.678 -15.040  -3.622  1.00  0.00     0.076 C 
HETATM   13  C   UNL     1      37.160 -14.930  -3.518  1.00  0.00     0.032 C 
HETATM   14  C   UNL     1      39.083 -16.411  -4.161  1.00  0.00     0.032 C 
ENDBRANCH   9  12
ENDBRANCH   7   8
ENDBRANCH   6   7
ENDBRANCH   1   6
BRANCH   2  15
HETATM   15  C   UNL     1      43.063 -16.627   1.996  1.00  0.00     0.137 C 
BRANCH  15  16
HETATM   16  C   UNL     1      42.512 -18.053   1.875  1.00  0.00     0.059 C 
BRANCH  16  17
HETATM   17  C   UNL     1      43.359 -19.085   2.577  1.00  0.00    -0.057 A 
HETATM   18  C   UNL     1      43.866 -18.847   3.863  1.00  0.00     0.007 A 
HETATM   19  C   UNL     1      44.621 -19.821   4.520  1.00  0.00     0.001 A 
HETATM   20  C   UNL     1      44.869 -21.045   3.903  1.00  0.00     0.000 A 
HETATM   21  C   UNL     1      44.363 -21.297   2.630  1.00  0.00     0.001 A 
HETATM   22  C   UNL     1      43.612 -20.323   1.970  1.00  0.00     0.007 A 
ENDBRANCH  16  17
ENDBRANCH  15  16
ENDBRANCH   2  15
BRANCH   3  23
HETATM   23  C   UNL     1      42.221 -15.842   4.969  1.00  0.00     0.012 A 
HETATM   24  C   UNL     1      43.443 -15.440   5.514  1.00  0.00     0.018 A 
HETATM   25  C   UNL     1      43.878 -15.959   6.740  1.00  0.00     0.037 A 
HETATM   26  C   UNL     1      43.092 -16.865   7.455  1.00  0.00     0.068 A 
HETATM   27  C   UNL     1      41.866 -17.261   6.928  1.00  0.00     0.037 A 
HETATM   28  C   UNL     1      41.435 -16.750   5.698  1.00  0.00     0.018 A 
BRANCH  26  29
HETATM   29  O   UNL     1      43.627 -17.282   8.642  1.00  0.00    -0.356 OA
HETATM   30  C   UNL     1      44.242 -18.564   8.652  1.00  0.00     0.210 C 
ENDBRANCH  26  29
ENDBRANCH   3  23
TORSDOF 9
ENDMDL
MODEL 3
REMARK VINA RESULT:      -7.2      3.365      7.016
REMARK  9 active torsions:
REMARK  status: ('A' for Active; 'I' for Inactive)
REMARK    1  A    between atoms: C_2  and  N_3 
REMARK       I    between atoms: N_3  and  C_4 
REMARK    2  A    between atoms: C_4  and  C_5 
REMARK    3  A    between atoms: C_5  and  S_6 
REMARK    4  A    between atoms: S_6  and  C_7 
REMARK    5  A    between atoms: N_8  and  C_9 
REMARK    6  A    between atoms: C_9  and  C_10 
REMARK    7  A    between atoms: C_10  and  C_11 
REMARK    8  A    between atoms: C_17  and  C_18 
REMARK    9  A    between atoms: C_21  and  O_22 
ROOT
HETATM    1  C   UNL     1      41.455 -13.168   4.583  1.00  0.00     0.192 A 
HETATM    2  N   UNL     1      42.426 -14.137   4.610  1.00  0.00    -0.307 N 
HETATM    3  C   UNL     1      41.862 -15.238   3.990  1.00  0.00     0.164 A 
HETATM    4  N   UNL     1      40.614 -14.933   3.671  1.00  0.00    -0.128 NA
HETATM    5  N   UNL     1      40.354 -13.655   4.067  1.00  0.00    -0.122 NA
ENDROOT
BRANCH   1   6
HETATM    6  S   UNL     1      41.675 -11.540   5.123  1.00  0.00    -0.081 SA
BRANCH   6   7
HETATM    7  C   UNL     1      41.175 -11.671   6.864  1.00  0.00     0.185 C 
BRANCH   7   8
HETATM    8  C   UNL     1      42.073 -10.834   7.760  1.00  0.00     0.227 C 
HETATM    9  N   UNL     1      42.924 -11.567   8.561  1.00  0.00    -0.357 N 
HETATM   10  H   UNL     1      42.658 -12.539   8.734  1.00  0.00     0.162 HD
HETATM   11  O   UNL     1      42.048  -9.605   7.747  1.00  0.00    -0.273 OA
BRANCH   9  12
HETATM   12  C   UNL     1      43.803 -10.945   9.537  1.00  0.00     0.076 C 
HETATM   13  C   UNL     1      45.210 -11.519   9.406  1.00  0.00     0.032 C 
HETATM   14  C   UNL     1      43.272 -11.139  10.956  1.00  0.00     0.032 C 
ENDBRANCH   9  12
ENDBRANCH   7   8
ENDBRANCH   6   7
ENDBRANCH   1   6
BRANCH   2  15
HETATM   15  C   UNL     1      43.771 -13.997   5.138  1.00  0.00     0.137 C 
BRANCH  15  16
HETATM   16  C   UNL     1      43.843 -14.400   6.615  1.00  0.00     0.059 C 
BRANCH  16  17
HETATM   17  C   UNL     1      44.024 -15.883   6.825  1.00  0.00    -0.057 A 
HETATM   18  C   UNL     1      45.078 -16.574   6.211  1.00  0.00     0.007 A 
HETATM   19  C   UNL     1      45.257 -17.940   6.437  1.00  0.00     0.001 A 
HETATM   20  C   UNL     1      44.393 -18.627   7.286  1.00  0.00     0.000 A 
HETATM   21  C   UNL     1      43.348 -17.950   7.910  1.00  0.00     0.001 A 
HETATM   22  C   UNL     1      43.164 -16.585   7.682  1.00  0.00     0.007 A 
ENDBRANCH  16  17
ENDBRANCH  15  16
ENDBRANCH   2  15
BRANCH   3  23
HETATM   23  C   UNL     1      42.501 -16.509   3.642  1.00  0.00     0.012 A 
HETATM   24  C   UNL     1      42.196 -17.721   4.269  1.00  0.00     0.018 A 
HETATM   25  C   UNL     1      42.828 -18.905   3.869  1.00  0.00     0.037 A 
HETATM   26  C   UNL     1      43.752 -18.907   2.823  1.00  0.00     0.068 A 
HETATM   27  C   UNL     1      44.052 -17.708   2.181  1.00  0.00     0.037 A 
HETATM   28  C   UNL     1      43.428 -16.522   2.587  1.00  0.00     0.018 A 
BRANCH  26  29
HETATM   29  O   UNL     1      44.284 -20.130   2.524  1.00  0.00    -0.356 OA
HETATM   30  C   UNL     1      44.804 -20.885   3.612  1.00  0.00     0.210 C 
ENDBRANCH  26  29
ENDBRANCH   3  23
TORSDOF 9
ENDMDL
MODEL 4
REMARK VINA RESULT:      -7.1      3.639      7.550
REMARK  9 active torsions:
REMARK  status: ('A' for Active; 'I' for Inactive)
REMARK    1  A    between atoms: C_2  and  N_3 
REMARK       I    between atoms: N_3  and  C_4 
REMARK    2  A    between atoms: C_4  and  C_5 
REMARK    3  A    between atoms: C_5  and  S_6 
REMARK    4  A    between atoms: S_6  and  C_7 
REMARK    5  A    between atoms: N_8  and  C_9 
REMARK    6  A    between atoms: C_9  and  C_10 
REMARK    7  A    between atoms: C_10  and  C_11 
REMARK    8  A    between atoms: C_17  and  C_18 
REMARK    9  A    between atoms: C_21  and  O_22 
ROOT
HETATM    1  C   UNL     1      40.033 -14.356   0.149  1.00  0.00     0.192 A 
HETATM    2  N   UNL     1      40.429 -15.254   1.107  1.00  0.00    -0.307 N 
HETATM    3  C   UNL     1      41.329 -16.093   0.474  1.00  0.00     0.164 A 
HETATM    4  N   UNL     1      41.406 -15.727  -0.796  1.00  0.00    -0.128 NA
HETATM    5  N   UNL     1      40.575 -14.665  -1.003  1.00  0.00    -0.122 NA
ENDROOT
BRANCH   1   6
HETATM    6  S   UNL     1      38.996 -13.003   0.437  1.00  0.00    -0.081 SA
BRANCH   6   7
HETATM    7  C   UNL     1      40.136 -11.847   1.253  1.00  0.00     0.185 C 
BRANCH   7   8
HETATM    8  C   UNL     1      41.527 -11.925   0.646  1.00  0.00     0.227 C 
HETATM    9  N   UNL     1      41.601 -11.512  -0.668  1.00  0.00    -0.357 N 
HETATM   10  H   UNL     1      40.725 -11.522  -1.195  1.00  0.00     0.162 HD
HETATM   11  O   UNL     1      42.501 -12.306   1.291  1.00  0.00    -0.273 OA
BRANCH   9  12
HETATM   12  C   UNL     1      42.832 -11.585  -1.438  1.00  0.00     0.076 C 
HETATM   13  C   UNL     1      43.522 -10.225  -1.440  1.00  0.00     0.032 C 
HETATM   14  C   UNL     1      42.557 -12.051  -2.867  1.00  0.00     0.032 C 
ENDBRANCH   9  12
ENDBRANCH   7   8
ENDBRANCH   6   7
ENDBRANCH   1   6
BRANCH   2  15
HETATM   15  C   UNL     1      40.016 -15.270   2.498  1.00  0.00     0.137 C 
BRANCH  15  16
HETATM   16  C   UNL     1      41.126 -14.761   3.424  1.00  0.00     0.059 C 
BRANCH  16  17
HETATM   17  C   UNL     1      41.787 -15.855   4.227  1.00  0.00    -0.057 A 
HETATM   18  C   UNL     1      41.068 -16.994   4.618  1.00  0.00     0.007 A 
HETATM   19  C   UNL     1      41.696 -18.017   5.332  1.00  0.00     0.001 A 
HETATM   20  C   UNL     1      43.048 -17.917   5.654  1.00  0.00     0.000 A 
HETATM   21  C   UNL     1      43.774 -16.794   5.262  1.00  0.00     0.001 A 
HETATM   22  C   UNL     1      43.148 -15.768   4.552  1.00  0.00     0.007 A 
ENDBRANCH  16  17
ENDBRANCH  15  16
ENDBRANCH   2  15
BRANCH   3  23
HETATM   23  C   UNL     1      42.147 -17.156   1.062  1.00  0.00     0.012 A 
HETATM   24  C   UNL     1      41.634 -18.396   1.450  1.00  0.00     0.018 A 
HETATM   25  C   UNL     1      42.479 -19.377   1.984  1.00  0.00     0.037 A 
HETATM   26  C   UNL     1      43.850 -19.150   2.115  1.00  0.00     0.068 A 
HETATM   27  C   UNL     1      44.374 -17.922   1.718  1.00  0.00     0.037 A 
HETATM   28  C   UNL     1      43.528 -16.938   1.193  1.00  0.00     0.018 A 
BRANCH  26  29
HETATM   29  O   UNL     1      44.561 -20.194   2.637  1.00  0.00    -0.356 OA
HETATM   30  C   UNL     1      44.242 -21.492   2.151  1.00  0.00     0.210 C 
ENDBRANCH  26  29
ENDBRANCH   3  23
TORSDOF 9
ENDMDL
MODEL 5
REMARK VINA RESULT:      -7.0      3.285      7.984
REMARK  9 active torsions:
REMARK  status: ('A' for Active; 'I' for Inactive)
REMARK    1  A    between atoms: C_2  and  N_3 
REMARK       I    between atoms: N_3  and  C_4 
REMARK    2  A    between atoms: C_4  and  C_5 
REMARK    3  A    between atoms: C_5  and  S_6 
REMARK    4  A    between atoms: S_6  and  C_7 
REMARK    5  A    between atoms: N_8  and  C_9 
REMARK    6  A    between atoms: C_9  and  C_10 
REMARK    7  A    between atoms: C_10  and  C_11 
REMARK    8  A    between atoms: C_17  and  C_18 
REMARK    9  A    between atoms: C_21  and  O_22 
ROOT
HETATM    1  C   UNL     1      41.389 -15.549   1.300  1.00  0.00     0.192 A 
HETATM    2  N   UNL     1      42.367 -16.010   2.145  1.00  0.00    -0.307 N 
HETATM    3  C   UNL     1      42.227 -17.387   2.152  1.00  0.00     0.164 A 
HETATM    4  N   UNL     1      41.188 -17.696   1.391  1.00  0.00    -0.128 NA
HETATM    5  N   UNL     1      40.651 -16.549   0.886  1.00  0.00    -0.122 NA
ENDROOT
BRANCH   1   6
HETATM    6  S   UNL     1      41.192 -13.896   0.833  1.00  0.00    -0.081 SA
BRANCH   6   7
HETATM    7  C   UNL     1      39.556 -13.941   0.044  1.00  0.00     0.185 C 
BRANCH   7   8
HETATM    8  C   UNL     1      39.675 -14.008  -1.469  1.00  0.00     0.227 C 
HETATM    9  N   UNL     1      38.586 -14.568  -2.103  1.00  0.00    -0.357 N 
HETATM   10  H   UNL     1      37.989 -15.169  -1.531  1.00  0.00     0.162 HD
HETATM   11  O   UNL     1      40.657 -13.574  -2.068  1.00  0.00    -0.273 OA
BRANCH   9  12
HETATM   12  C   UNL     1      38.549 -14.785  -3.541  1.00  0.00     0.076 C 
HETATM   13  C   UNL     1      37.104 -14.771  -4.028  1.00  0.00     0.032 C 
HETATM   14  C   UNL     1      39.230 -16.101  -3.914  1.00  0.00     0.032 C 
ENDBRANCH   9  12
ENDBRANCH   7   8
ENDBRANCH   6   7
ENDBRANCH   1   6
BRANCH   2  15
HETATM   15  C   UNL     1      43.360 -15.207   2.835  1.00  0.00     0.137 C 
BRANCH  15  16
HETATM   16  C   UNL     1      42.773 -14.526   4.076  1.00  0.00     0.059 C 
BRANCH  16  17
HETATM   17  C   UNL     1      42.742 -15.418   5.293  1.00  0.00    -0.057 A 
HETATM   18  C   UNL     1      43.899 -15.636   6.055  1.00  0.00     0.007 A 
HETATM   19  C   UNL     1      43.854 -16.436   7.198  1.00  0.00     0.001 A 
HETATM   20  C   UNL     1      42.652 -17.018   7.597  1.00  0.00     0.000 A 
HETATM   21  C   UNL     1      41.495 -16.800   6.854  1.00  0.00     0.001 A 
HETATM   22  C   UNL     1      41.538 -16.004   5.708  1.00  0.00     0.007 A 
ENDBRANCH  16  17
ENDBRANCH  15  16
ENDBRANCH   2  15
BRANCH   3  23
HETATM   23  C   UNL     1      43.087 -18.383   2.793  1.00  0.00     0.012 A 
HETATM   24  C   UNL     1      43.149 -18.570   4.177  1.00  0.00     0.018 A 
HETATM   25  C   UNL     1      43.977 -19.560   4.722  1.00  0.00     0.037 A 
HETATM   26  C   UNL     1      44.735 -20.395   3.899  1.00  0.00     0.068 A 
HETATM   27  C   UNL     1      44.670 -20.227   2.519  1.00  0.00     0.037 A 
HETATM   28  C   UNL     1      43.849 -19.232   1.973  1.00  0.00     0.018 A 
BRANCH  26  29
HETATM   29  O   UNL     1      45.488 -21.326   4.558  1.00  0.00    -0.356 OA
HETATM   30  C   UNL     1      44.837 -22.539   4.916  1.00  0.00     0.210 C 
ENDBRANCH  26  29
ENDBRANCH   3  23
TORSDOF 9
ENDMDL
MODEL 6
REMARK VINA RESULT:      -7.0      3.276      7.609
REMARK  9 active torsions:
REMARK  status: ('A' for Active; 'I' for Inactive)
REMARK    1  A    between atoms: C_2  and  N_3 
REMARK       I    between atoms: N_3  and  C_4 
REMARK    2  A    between atoms: C_4  and  C_5 
REMARK    3  A    between atoms: C_5  and  S_6 
REMARK    4  A    between atoms: S_6  and  C_7 
REMARK    5  A    between atoms: N_8  and  C_9 
REMARK    6  A    between atoms: C_9  and  C_10 
REMARK    7  A    between atoms: C_10  and  C_11 
REMARK    8  A    between atoms: C_17  and  C_18 
REMARK    9  A    between atoms: C_21  and  O_22 
ROOT
HETATM    1  C   UNL     1      41.680 -14.864   1.194  1.00  0.00     0.192 A 
HETATM    2  N   UNL     1      41.955 -15.845   2.113  1.00  0.00    -0.307 N 
HETATM    3  C   UNL     1      42.217 -15.176   3.296  1.00  0.00     0.164 A 
HETATM    4  N   UNL     1      42.149 -13.875   3.053  1.00  0.00    -0.128 NA
HETATM    5  N   UNL     1      41.844 -13.685   1.738  1.00  0.00    -0.122 NA
ENDROOT
BRANCH   1   6
HETATM    6  S   UNL     1      41.165 -15.156  -0.431  1.00  0.00    -0.081 SA
BRANCH   6   7
HETATM    7  C   UNL     1      40.704 -13.482  -0.965  1.00  0.00     0.185 C 
BRANCH   7   8
HETATM    8  C   UNL     1      41.830 -12.822  -1.742  1.00  0.00     0.227 C 
HETATM    9  N   UNL     1      42.090 -11.517  -1.375  1.00  0.00    -0.357 N 
HETATM   10  H   UNL     1      41.333 -11.024  -0.896  1.00  0.00     0.162 HD
HETATM   11  O   UNL     1      42.464 -13.418  -2.610  1.00  0.00    -0.273 OA
BRANCH   9  12
HETATM   12  C   UNL     1      43.080 -10.699  -2.056  1.00  0.00     0.076 C 
HETATM   13  C   UNL     1      43.724  -9.736  -1.064  1.00  0.00     0.032 C 
HETATM   14  C   UNL     1      42.452  -9.934  -3.220  1.00  0.00     0.032 C 
ENDBRANCH   9  12
ENDBRANCH   7   8
ENDBRANCH   6   7
ENDBRANCH   1   6
BRANCH   2  15
HETATM   15  C   UNL     1      41.920 -17.277   1.883  1.00  0.00     0.137 C 
BRANCH  15  16
HETATM   16  C   UNL     1      43.300 -17.821   1.497  1.00  0.00     0.059 C 
BRANCH  16  17
HETATM   17  C   UNL     1      43.752 -18.977   2.356  1.00  0.00    -0.057 A 
HETATM   18  C   UNL     1      43.849 -20.272   1.826  1.00  0.00     0.007 A 
HETATM   19  C   UNL     1      44.300 -21.330   2.619  1.00  0.00     0.001 A 
HETATM   20  C   UNL     1      44.667 -21.103   3.944  1.00  0.00     0.000 A 
HETATM   21  C   UNL     1      44.583 -19.820   4.478  1.00  0.00     0.001 A 
HETATM   22  C   UNL     1      44.129 -18.761   3.689  1.00  0.00     0.007 A 
ENDBRANCH  16  17
ENDBRANCH  15  16
ENDBRANCH   2  15
BRANCH   3  23
HETATM   23  C   UNL     1      42.451 -15.741   4.626  1.00  0.00     0.012 A 
HETATM   24  C   UNL     1      41.540 -16.579   5.276  1.00  0.00     0.018 A 
HETATM   25  C   UNL     1      41.839 -17.105   6.540  1.00  0.00     0.037 A 
HETATM   26  C   UNL     1      43.057 -16.828   7.163  1.00  0.00     0.068 A 
HETATM   27  C   UNL     1      43.977 -16.006   6.517  1.00  0.00     0.037 A 
HETATM   28  C   UNL     1      43.675 -15.472   5.258  1.00  0.00     0.018 A 
BRANCH  26  29
HETATM   29  O   UNL     1      43.227 -17.415   8.385  1.00  0.00    -0.356 OA
HETATM   30  C   UNL     1      44.113 -18.527   8.445  1.00  0.00     0.210 C 
ENDBRANCH  26  29
ENDBRANCH   3  23
TORSDOF 9
ENDMDL
MODEL 7
REMARK VINA RESULT:      -6.9      3.004      5.239
REMARK  9 active torsions:
REMARK  status: ('A' for Active; 'I' for Inactive)
REMARK    1  A    between atoms: C_2  and  N_3 
REMARK       I    between atoms: N_3  and  C_4 
REMARK    2  A    between atoms: C_4  and  C_5 
REMARK    3  A    between atoms: C_5  and  S_6 
REMARK    4  A    between atoms: S_6  and  C_7 
REMARK    5  A    between atoms: N_8  and  C_9 
REMARK    6  A    between atoms: C_9  and  C_10 
REMARK    7  A    between atoms: C_10  and  C_11 
REMARK    8  A    between atoms: C_17  and  C_18 
REMARK    9  A    between atoms: C_21  and  O_22 
ROOT
HETATM    1  C   UNL     1      42.873 -14.779   5.755  1.00  0.00     0.192 A 
HETATM    2  N   UNL     1      42.909 -15.453   4.561  1.00  0.00    -0.307 N 
HETATM    3  C   UNL     1      42.002 -14.802   3.744  1.00  0.00     0.164 A 
HETATM    4  N   UNL     1      41.436 -13.835   4.451  1.00  0.00    -0.128 NA
HETATM    5  N   UNL     1      41.958 -13.843   5.711  1.00  0.00    -0.122 NA
ENDROOT
BRANCH   1   6
HETATM    6  S   UNL     1      43.909 -15.105   7.101  1.00  0.00    -0.081 SA
BRANCH   6   7
HETATM    7  C   UNL     1      45.286 -13.967   6.775  1.00  0.00     0.185 C 
BRANCH   7   8
HETATM    8  C   UNL     1      45.426 -12.939   7.885  1.00  0.00     0.227 C 
HETATM    9  N   UNL     1      44.257 -12.675   8.569  1.00  0.00    -0.357 N 
HETATM   10  H   UNL     1      43.387 -12.908   8.086  1.00  0.00     0.162 HD
HETATM   11  O   UNL     1      46.502 -12.409   8.154  1.00  0.00    -0.273 OA
BRANCH   9  12
HETATM   12  C   UNL     1      44.178 -11.666   9.613  1.00  0.00     0.076 C 
HETATM   13  C   UNL     1      44.248 -12.333  10.983  1.00  0.00     0.032 C 
HETATM   14  C   UNL     1      42.900 -10.840   9.481  1.00  0.00     0.032 C 
ENDBRANCH   9  12
ENDBRANCH   7   8
ENDBRANCH   6   7
ENDBRANCH   1   6
BRANCH   2  15
HETATM   15  C   UNL     1      43.764 -16.579   4.231  1.00  0.00     0.137 C 
BRANCH  15  16
HETATM   16  C   UNL     1      43.167 -17.904   4.718  1.00  0.00     0.059 C 
BRANCH  16  17
HETATM   17  C   UNL     1      43.628 -19.099   3.921  1.00  0.00    -0.057 A 
HETATM   18  C   UNL     1      44.473 -20.062   4.491  1.00  0.00     0.007 A 
HETATM   19  C   UNL     1      44.868 -21.183   3.757  1.00  0.00     0.001 A 
HETATM   20  C   UNL     1      44.416 -21.356   2.450  1.00  0.00     0.000 A 
HETATM   21  C   UNL     1      43.570 -20.411   1.877  1.00  0.00     0.001 A 
HETATM   22  C   UNL     1      43.176 -19.288   2.607  1.00  0.00     0.007 A 
ENDBRANCH  16  17
ENDBRANCH  15  16
ENDBRANCH   2  15
BRANCH   3  23
HETATM   23  C   UNL     1      41.731 -15.033   2.324  1.00  0.00     0.012 A 
HETATM   24  C   UNL     1      41.923 -14.062   1.336  1.00  0.00     0.018 A 
HETATM   25  C   UNL     1      41.667 -14.359  -0.008  1.00  0.00     0.037 A 
HETATM   26  C   UNL     1      41.241 -15.631  -0.394  1.00  0.00     0.068 A 
HETATM   27  C   UNL     1      41.061 -16.610   0.580  1.00  0.00     0.037 A 
HETATM   28  C   UNL     1      41.308 -16.311   1.926  1.00  0.00     0.018 A 
BRANCH  26  29
HETATM   29  O   UNL     1      41.041 -15.791  -1.737  1.00  0.00    -0.356 OA
HETATM   30  C   UNL     1      40.425 -14.709  -2.425  1.00  0.00     0.210 C 
ENDBRANCH  26  29
ENDBRANCH   3  23
TORSDOF 9
ENDMDL
MODEL 8
REMARK VINA RESULT:      -6.8      3.297      7.117
REMARK  9 active torsions:
REMARK  status: ('A' for Active; 'I' for Inactive)
REMARK    1  A    between atoms: C_2  and  N_3 
REMARK       I    between atoms: N_3  and  C_4 
REMARK    2  A    between atoms: C_4  and  C_5 
REMARK    3  A    between atoms: C_5  and  S_6 
REMARK    4  A    between atoms: S_6  and  C_7 
REMARK    5  A    between atoms: N_8  and  C_9 
REMARK    6  A    between atoms: C_9  and  C_10 
REMARK    7  A    between atoms: C_10  and  C_11 
REMARK    8  A    between atoms: C_17  and  C_18 
REMARK    9  A    between atoms: C_21  and  O_22 
ROOT
HETATM    1  C   UNL     1      39.727 -13.109   2.175  1.00  0.00     0.192 A 
HETATM    2  N   UNL     1      40.748 -14.015   2.309  1.00  0.00    -0.307 N 
HETATM    3  C   UNL     1      40.720 -14.406   3.636  1.00  0.00     0.164 A 
HETATM    4  N   UNL     1      39.764 -13.720   4.245  1.00  0.00    -0.128 NA
HETATM    5  N   UNL     1      39.168 -12.892   3.340  1.00  0.00    -0.122 NA
ENDROOT
BRANCH   1   6
HETATM    6  S   UNL     1      39.238 -12.391   0.680  1.00  0.00    -0.081 SA
BRANCH   6   7
HETATM    7  C   UNL     1      38.216 -13.712  -0.033  1.00  0.00     0.185 C 
BRANCH   7   8
HETATM    8  C   UNL     1      38.430 -13.826  -1.533  1.00  0.00     0.227 C 
HETATM    9  N   UNL     1      39.434 -14.697  -1.902  1.00  0.00    -0.357 N 
HETATM   10  H   UNL     1      40.134 -14.909  -1.188  1.00  0.00     0.162 HD
HETATM   11  O   UNL     1      37.744 -13.204  -2.341  1.00  0.00    -0.273 OA
BRANCH   9  12
HETATM   12  C   UNL     1      39.835 -14.881  -3.288  1.00  0.00     0.076 C 
HETATM   13  C   UNL     1      39.225 -16.167  -3.836  1.00  0.00     0.032 C 
HETATM   14  C   UNL     1      41.356 -14.908  -3.420  1.00  0.00     0.032 C 
ENDBRANCH   9  12
ENDBRANCH   7   8
ENDBRANCH   6   7
ENDBRANCH   1   6
BRANCH   2  15
HETATM   15  C   UNL     1      41.627 -14.486   1.255  1.00  0.00     0.137 C 
BRANCH  15  16
HETATM   16  C   UNL     1      41.224 -15.882   0.765  1.00  0.00     0.059 C 
BRANCH  16  17
HETATM   17  C   UNL     1      42.173 -16.969   1.204  1.00  0.00    -0.057 A 
HETATM   18  C   UNL     1      43.541 -16.707   1.370  1.00  0.00     0.007 A 
HETATM   19  C   UNL     1      44.407 -17.711   1.809  1.00  0.00     0.001 A 
HETATM   20  C   UNL     1      43.915 -18.982   2.096  1.00  0.00     0.000 A 
HETATM   21  C   UNL     1      42.557 -19.252   1.944  1.00  0.00     0.001 A 
HETATM   22  C   UNL     1      41.690 -18.251   1.501  1.00  0.00     0.007 A 
ENDBRANCH  16  17
ENDBRANCH  15  16
ENDBRANCH   2  15
BRANCH   3  23
HETATM   23  C   UNL     1      41.515 -15.445   4.293  1.00  0.00     0.012 A 
HETATM   24  C   UNL     1      41.017 -16.715   4.602  1.00  0.00     0.018 A 
HETATM   25  C   UNL     1      41.842 -17.670   5.209  1.00  0.00     0.037 A 
HETATM   26  C   UNL     1      43.179 -17.388   5.494  1.00  0.00     0.068 A 
HETATM   27  C   UNL     1      43.689 -16.132   5.177  1.00  0.00     0.037 A 
HETATM   28  C   UNL     1      42.863 -15.173   4.578  1.00  0.00     0.018 A 
BRANCH  26  29
HETATM   29  O   UNL     1      43.875 -18.412   6.074  1.00  0.00    -0.356 OA
HETATM   30  C   UNL     1      45.179 -18.109   6.554  1.00  0.00     0.210 C 
ENDBRANCH  26  29
ENDBRANCH   3  23
TORSDOF 9
ENDMDL
MODEL 9
REMARK VINA RESULT:      -6.7      3.418      7.214
REMARK  9 active torsions:
REMARK  status: ('A' for Active; 'I' for Inactive)
REMARK    1  A    between atoms: C_2  and  N_3 
REMARK       I    between atoms: N_3  and  C_4 
REMARK    2  A    between atoms: C_4  and  C_5 
REMARK    3  A    between atoms: C_5  and  S_6 
REMARK    4  A    between atoms: S_6  and  C_7 
REMARK    5  A    between atoms: N_8  and  C_9 
REMARK    6  A    between atoms: C_9  and  C_10 
REMARK    7  A    between atoms: C_10  and  C_11 
REMARK    8  A    between atoms: C_17  and  C_18 
REMARK    9  A    between atoms: C_21  and  O_22 
ROOT
HETATM    1  C   UNL     1      38.800 -13.585   1.813  1.00  0.00     0.192 A 
HETATM    2  N   UNL     1      39.593 -14.564   2.355  1.00  0.00    -0.307 N 
HETATM    3  C   UNL     1      40.268 -13.955   3.398  1.00  0.00     0.164 A 
HETATM    4  N   UNL     1      39.919 -12.678   3.420  1.00  0.00    -0.128 NA
HETATM    5  N   UNL     1      39.028 -12.444   2.414  1.00  0.00    -0.122 NA
ENDROOT
BRANCH   1   6
HETATM    6  S   UNL     1      37.651 -13.838   0.546  1.00  0.00    -0.081 SA
BRANCH   6   7
HETATM    7  C   UNL     1      38.265 -12.697  -0.727  1.00  0.00     0.185 C 
BRANCH   7   8
HETATM    8  C   UNL     1      39.543 -13.217  -1.362  1.00  0.00     0.227 C 
HETATM    9  N   UNL     1      40.517 -12.258  -1.554  1.00  0.00    -0.357 N 
HETATM   10  H   UNL     1      40.197 -11.288  -1.579  1.00  0.00     0.162 HD
HETATM   11  O   UNL     1      39.693 -14.401  -1.657  1.00  0.00    -0.273 OA
BRANCH   9  12
HETATM   12  C   UNL     1      41.778 -12.550  -2.217  1.00  0.00     0.076 C 
HETATM   13  C   UNL     1      42.896 -11.727  -1.586  1.00  0.00     0.032 C 
HETATM   14  C   UNL     1      41.686 -12.274  -3.716  1.00  0.00     0.032 C 
ENDBRANCH   9  12
ENDBRANCH   7   8
ENDBRANCH   6   7
ENDBRANCH   1   6
BRANCH   2  15
HETATM   15  C   UNL     1      39.656 -15.953   1.937  1.00  0.00     0.137 C 
BRANCH  15  16
HETATM   16  C   UNL     1      40.855 -16.214   1.019  1.00  0.00     0.059 C 
BRANCH  16  17
HETATM   17  C   UNL     1      41.964 -16.990   1.686  1.00  0.00    -0.057 A 
HETATM   18  C   UNL     1      41.725 -17.726   2.855  1.00  0.00     0.007 A 
HETATM   19  C   UNL     1      42.748 -18.469   3.447  1.00  0.00     0.001 A 
HETATM   20  C   UNL     1      44.017 -18.493   2.872  1.00  0.00     0.000 A 
HETATM   21  C   UNL     1      44.263 -17.774   1.704  1.00  0.00     0.001 A 
HETATM   22  C   UNL     1      43.243 -17.027   1.113  1.00  0.00     0.007 A 
ENDBRANCH  16  17
ENDBRANCH  15  16
ENDBRANCH   2  15
BRANCH   3  23
HETATM   23  C   UNL     1      41.153 -14.571   4.388  1.00  0.00     0.012 A 
HETATM   24  C   UNL     1      40.695 -15.371   5.439  1.00  0.00     0.018 A 
HETATM   25  C   UNL     1      41.601 -15.949   6.337  1.00  0.00     0.037 A 
HETATM   26  C   UNL     1      42.977 -15.762   6.189  1.00  0.00     0.068 A 
HETATM   27  C   UNL     1      43.445 -14.978   5.138  1.00  0.00     0.037 A 
HETATM   28  C   UNL     1      42.539 -14.393   4.245  1.00  0.00     0.018 A 
BRANCH  26  29
HETATM   29  O   UNL     1      43.749 -16.392   7.124  1.00  0.00    -0.356 OA
HETATM   30  C   UNL     1      43.104 -17.364   7.938  1.00  0.00     0.210 C 
ENDBRANCH  26  29
ENDBRANCH   3  23
TORSDOF 9
ENDMDL
MODEL 10
REMARK VINA RESULT:      -6.6      2.512      6.851
REMARK  9 active torsions:
REMARK  status: ('A' for Active; 'I' for Inactive)
REMARK    1  A    between atoms: C_2  and  N_3 
REMARK       I    between atoms: N_3  and  C_4 
REMARK    2  A    between atoms: C_4  and  C_5 
REMARK    3  A    between atoms: C_5  and  S_6 
REMARK    4  A    between atoms: S_6  and  C_7 
REMARK    5  A    between atoms: N_8  and  C_9 
REMARK    6  A    between atoms: C_9  and  C_10 
REMARK    7  A    between atoms: C_10  and  C_11 
REMARK    8  A    between atoms: C_17  and  C_18 
REMARK    9  A    between atoms: C_21  and  O_22 
ROOT
HETATM    1  C   UNL     1      40.482 -13.137   4.190  1.00  0.00     0.192 A 
HETATM    2  N   UNL     1      41.560 -13.981   4.109  1.00  0.00    -0.307 N 
HETATM    3  C   UNL     1      41.359 -14.929   5.097  1.00  0.00     0.164 A 
HETATM    4  N   UNL     1      40.249 -14.613   5.746  1.00  0.00    -0.128 NA
HETATM    5  N   UNL     1      39.721 -13.481   5.199  1.00  0.00    -0.122 NA
ENDROOT
BRANCH   1   6
HETATM    6  S   UNL     1      40.168 -11.835   3.096  1.00  0.00    -0.081 SA
BRANCH   6   7
HETATM    7  C   UNL     1      38.888 -12.562   2.033  1.00  0.00     0.185 C 
BRANCH   7   8
HETATM    8  C   UNL     1      39.293 -12.515   0.570  1.00  0.00     0.227 C 
HETATM    9  N   UNL     1      39.347 -13.747  -0.048  1.00  0.00    -0.357 N 
HETATM   10  H   UNL     1      39.448 -14.557   0.566  1.00  0.00     0.162 HD
HETATM   11  O   UNL     1      39.531 -11.457  -0.009  1.00  0.00    -0.273 OA
BRANCH   9  12
HETATM   12  C   UNL     1      39.788 -13.909  -1.425  1.00  0.00     0.076 C 
HETATM   13  C   UNL     1      38.585 -14.166  -2.326  1.00  0.00     0.032 C 
HETATM   14  C   UNL     1      40.803 -15.044  -1.545  1.00  0.00     0.032 C 
ENDBRANCH   9  12
ENDBRANCH   7   8
ENDBRANCH   6   7
ENDBRANCH   1   6
BRANCH   2  15
HETATM   15  C   UNL     1      42.645 -13.907   3.148  1.00  0.00     0.137 C 
BRANCH  15  16
HETATM   16  C   UNL     1      42.286 -14.610   1.834  1.00  0.00     0.059 C 
BRANCH  16  17
HETATM   17  C   UNL     1      42.565 -16.092   1.850  1.00  0.00    -0.057 A 
HETATM   18  C   UNL     1      41.552 -17.019   1.566  1.00  0.00     0.007 A 
HETATM   19  C   UNL     1      41.828 -18.388   1.551  1.00  0.00     0.001 A 
HETATM   20  C   UNL     1      43.119 -18.844   1.809  1.00  0.00     0.000 A 
HETATM   21  C   UNL     1      44.135 -17.932   2.083  1.00  0.00     0.001 A 
HETATM   22  C   UNL     1      43.861 -16.563   2.103  1.00  0.00     0.007 A 
ENDBRANCH  16  17
ENDBRANCH  15  16
ENDBRANCH   2  15
BRANCH   3  23
HETATM   23  C   UNL     1      42.145 -16.133   5.373  1.00  0.00     0.012 A 
HETATM   24  C   UNL     1      41.660 -17.430   5.181  1.00  0.00     0.018 A 
HETATM   25  C   UNL     1      42.475 -18.538   5.443  1.00  0.00     0.037 A 
HETATM   26  C   UNL     1      43.793 -18.374   5.873  1.00  0.00     0.068 A 
HETATM   27  C   UNL     1      44.291 -17.086   6.054  1.00  0.00     0.037 A 
HETATM   28  C   UNL     1      43.474 -15.978   5.801  1.00  0.00     0.018 A 
BRANCH  26  29
HETATM   29  O   UNL     1      44.483 -19.536   6.078  1.00  0.00    -0.356 OA
HETATM   30  C   UNL     1      44.819 -20.293   4.922  1.00  0.00     0.210 C 
ENDBRANCH  26  29
ENDBRANCH   3  23
TORSDOF 9
ENDMDL
