MODEL 1
REMARK VINA RESULT:      -9.3      0.000      0.000
REMARK  5 active torsions:
REMARK  status: ('A' for Active; 'I' for Inactive)
REMARK    1  A    between atoms: O_2  and  C_3 
REMARK    2  A    between atoms: C_7  and  C_8 
REMARK    3  A    between atoms: C_8  and  N_9 
REMARK       I    between atoms: N_9  and  C_10 
REMARK       I    between atoms: C_10  and  N_12 
REMARK    4  A    between atoms: N_12  and  C_13 
REMARK    5  A    between atoms: C_16  and  C_19 
ROOT
HETATM    1  N   UNL     1      44.175 -13.535   8.421  1.00  0.00    -0.339 N 
HETATM    2  C   UNL     1      44.543 -14.362   7.378  1.00  0.00     0.320 C 
HETATM    3  O   UNL     1      45.383 -14.029   6.552  1.00  0.00    -0.247 OA
HETATM    4  N   UNL     1      43.878 -15.566   7.441  1.00  0.00    -0.309 N 
HETATM    5  H   UNL     1      43.230 -13.626   8.758  1.00  0.00     0.164 HD
HETATM    6  H   UNL     1      43.308 -15.707   8.260  1.00  0.00     0.170 HD
ENDROOT
BRANCH   4   7
HETATM    7  C   UNL     1      44.014 -16.666   6.569  1.00  0.00     0.036 A 
HETATM    8  C   UNL     1      45.011 -17.634   6.687  1.00  0.00     0.030 A 
HETATM    9  C   UNL     1      45.066 -18.714   5.796  1.00  0.00     0.014 A 
HETATM   10  C   UNL     1      44.133 -18.853   4.759  1.00  0.00    -0.026 A 
HETATM   11  C   UNL     1      43.145 -17.866   4.638  1.00  0.00     0.014 A 
HETATM   12  C   UNL     1      43.084 -16.788   5.531  1.00  0.00     0.030 A 
BRANCH  10  13
HETATM   13  C   UNL     1      44.189 -19.998   3.838  1.00  0.00    -0.023 A 
HETATM   14  C   UNL     1      43.727 -19.890   2.520  1.00  0.00     0.031 A 
HETATM   15  C   UNL     1      43.795 -20.995   1.687  1.00  0.00     0.117 A 
HETATM   16  N   UNL     1      44.285 -22.193   2.069  1.00  0.00    -0.273 NA
HETATM   17  C   UNL     1      44.724 -22.286   3.340  1.00  0.00     0.117 A 
HETATM   18  C   UNL     1      44.700 -21.236   4.245  1.00  0.00     0.031 A 
ENDBRANCH  10  13
ENDBRANCH   4   7
BRANCH   1  19
HETATM   19  C   UNL     1      44.748 -12.208   8.498  1.00  0.00     0.163 C 
BRANCH  19  20
HETATM   20  C   UNL     1      44.088 -11.361   9.554  1.00  0.00    -0.038 A 
HETATM   21  C   UNL     1      44.734 -11.082  10.766  1.00  0.00     0.009 A 
HETATM   22  C   UNL     1      44.143 -10.238  11.706  1.00  0.00     0.003 A 
HETATM   23  C   UNL     1      42.909  -9.642  11.438  1.00  0.00     0.037 A 
HETATM   24  C   UNL     1      42.263  -9.888  10.227  1.00  0.00     0.068 A 
HETATM   25  C   UNL     1      42.848 -10.755   9.299  1.00  0.00     0.045 A 
BRANCH  24  26
HETATM   26  O   UNL     1      41.066  -9.352   9.838  1.00  0.00    -0.356 OA
HETATM   27  C   UNL     1      40.058 -10.279   9.452  1.00  0.00     0.210 C 
ENDBRANCH  24  26
ENDBRANCH  19  20
ENDBRANCH   1  19
TORSDOF 5
ENDMDL
MODEL 2
REMARK VINA RESULT:      -8.9      0.953      1.894
REMARK  5 active torsions:
REMARK  status: ('A' for Active; 'I' for Inactive)
REMARK    1  A    between atoms: O_2  and  C_3 
REMARK    2  A    between atoms: C_7  and  C_8 
REMARK    3  A    between atoms: C_8  and  N_9 
REMARK       I    between atoms: N_9  and  C_10 
REMARK       I    between atoms: C_10  and  N_12 
REMARK    4  A    between atoms: N_12  and  C_13 
REMARK    5  A    between atoms: C_16  and  C_19 
ROOT
HETATM    1  N   UNL     1      44.252 -13.562   8.510  1.00  0.00    -0.339 N 
HETATM    2  C   UNL     1      44.460 -14.348   7.394  1.00  0.00     0.320 C 
HETATM    3  O   UNL     1      45.141 -13.968   6.451  1.00  0.00    -0.247 OA
HETATM    4  N   UNL     1      43.842 -15.572   7.526  1.00  0.00    -0.309 N 
HETATM    5  H   UNL     1      43.378 -13.689   8.996  1.00  0.00     0.164 HD
HETATM    6  H   UNL     1      43.420 -15.752   8.423  1.00  0.00     0.170 HD
ENDROOT
BRANCH   4   7
HETATM    7  C   UNL     1      43.857 -16.642   6.607  1.00  0.00     0.036 A 
HETATM    8  C   UNL     1      43.004 -16.736   5.509  1.00  0.00     0.030 A 
HETATM    9  C   UNL     1      43.095 -17.819   4.624  1.00  0.00     0.014 A 
HETATM   10  C   UNL     1      44.035 -18.841   4.818  1.00  0.00    -0.026 A 
HETATM   11  C   UNL     1      44.878 -18.746   5.934  1.00  0.00     0.014 A 
HETATM   12  C   UNL     1      44.791 -17.662   6.816  1.00  0.00     0.030 A 
BRANCH  10  13
HETATM   13  C   UNL     1      44.134 -19.966   3.876  1.00  0.00    -0.023 A 
HETATM   14  C   UNL     1      43.684 -19.845   2.555  1.00  0.00     0.031 A 
HETATM   15  C   UNL     1      43.793 -20.932   1.702  1.00  0.00     0.117 A 
HETATM   16  N   UNL     1      44.311 -22.123   2.067  1.00  0.00    -0.273 NA
HETATM   17  C   UNL     1      44.738 -22.228   3.342  1.00  0.00     0.117 A 
HETATM   18  C   UNL     1      44.674 -21.197   4.266  1.00  0.00     0.031 A 
ENDBRANCH  10  13
ENDBRANCH   4   7
BRANCH   1  19
HETATM   19  C   UNL     1      44.799 -12.222   8.534  1.00  0.00     0.163 C 
BRANCH  19  20
HETATM   20  C   UNL     1      43.903 -11.252   9.260  1.00  0.00    -0.038 A 
HETATM   21  C   UNL     1      42.713 -10.794   8.679  1.00  0.00     0.009 A 
HETATM   22  C   UNL     1      41.857  -9.953   9.390  1.00  0.00     0.003 A 
HETATM   23  C   UNL     1      42.165  -9.578  10.699  1.00  0.00     0.037 A 
HETATM   24  C   UNL     1      43.332 -10.045  11.302  1.00  0.00     0.068 A 
HETATM   25  C   UNL     1      44.201 -10.867  10.576  1.00  0.00     0.045 A 
BRANCH  24  26
HETATM   26  O   UNL     1      43.737  -9.769  12.580  1.00  0.00    -0.356 OA
HETATM   27  C   UNL     1      42.892 -10.242  13.623  1.00  0.00     0.210 C 
ENDBRANCH  24  26
ENDBRANCH  19  20
ENDBRANCH   1  19
TORSDOF 5
ENDMDL
MODEL 3
REMARK VINA RESULT:      -8.5      1.260      1.672
REMARK  5 active torsions:
REMARK  status: ('A' for Active; 'I' for Inactive)
REMARK    1  A    between atoms: O_2  and  C_3 
REMARK    2  A    between atoms: C_7  and  C_8 
REMARK    3  A    between atoms: C_8  and  N_9 
REMARK       I    between atoms: N_9  and  C_10 
REMARK       I    between atoms: C_10  and  N_12 
REMARK    4  A    between atoms: N_12  and  C_13 
REMARK    5  A    between atoms: C_16  and  C_19 
ROOT
HETATM    1  N   UNL     1      43.559 -12.244   8.210  1.00  0.00    -0.339 N 
HETATM    2  C   UNL     1      44.063 -13.379   7.607  1.00  0.00     0.320 C 
HETATM    3  O   UNL     1      45.186 -13.800   7.852  1.00  0.00    -0.247 OA
HETATM    4  N   UNL     1      43.135 -13.947   6.763  1.00  0.00    -0.309 N 
HETATM    5  H   UNL     1      42.897 -11.704   7.676  1.00  0.00     0.164 HD
HETATM    6  H   UNL     1      42.219 -13.525   6.775  1.00  0.00     0.170 HD
ENDROOT
BRANCH   4   7
HETATM    7  C   UNL     1      43.277 -15.124   6.000  1.00  0.00     0.036 A 
HETATM    8  C   UNL     1      43.082 -15.186   4.621  1.00  0.00     0.030 A 
HETATM    9  C   UNL     1      43.268 -16.388   3.926  1.00  0.00     0.014 A 
HETATM   10  C   UNL     1      43.647 -17.563   4.591  1.00  0.00    -0.026 A 
HETATM   11  C   UNL     1      43.825 -17.496   5.980  1.00  0.00     0.014 A 
HETATM   12  C   UNL     1      43.645 -16.293   6.675  1.00  0.00     0.030 A 
BRANCH  10  13
HETATM   13  C   UNL     1      43.855 -18.818   3.852  1.00  0.00    -0.023 A 
HETATM   14  C   UNL     1      43.274 -19.020   2.594  1.00  0.00     0.031 A 
HETATM   15  C   UNL     1      43.493 -20.219   1.934  1.00  0.00     0.117 A 
HETATM   16  N   UNL     1      44.240 -21.225   2.433  1.00  0.00    -0.273 NA
HETATM   17  C   UNL     1      44.791 -21.019   3.647  1.00  0.00     0.117 A 
HETATM   18  C   UNL     1      44.632 -19.854   4.381  1.00  0.00     0.031 A 
ENDBRANCH  10  13
ENDBRANCH   4   7
BRANCH   1  19
HETATM   19  C   UNL     1      44.411 -11.491   9.107  1.00  0.00     0.163 C 
BRANCH  19  20
HETATM   20  C   UNL     1      43.650 -10.926  10.278  1.00  0.00    -0.038 A 
HETATM   21  C   UNL     1      44.311 -10.548  11.454  1.00  0.00     0.009 A 
HETATM   22  C   UNL     1      43.605  -9.961  12.505  1.00  0.00     0.003 A 
HETATM   23  C   UNL     1      42.235  -9.720  12.385  1.00  0.00     0.037 A 
HETATM   24  C   UNL     1      41.566 -10.066  11.211  1.00  0.00     0.068 A 
HETATM   25  C   UNL     1      42.273 -10.679  10.171  1.00  0.00     0.045 A 
BRANCH  24  26
HETATM   26  O   UNL     1      40.236  -9.866  10.961  1.00  0.00    -0.356 OA
HETATM   27  C   UNL     1      39.380  -9.842  12.098  1.00  0.00     0.210 C 
ENDBRANCH  24  26
ENDBRANCH  19  20
ENDBRANCH   1  19
TORSDOF 5
ENDMDL
MODEL 4
REMARK VINA RESULT:      -8.1      2.262      3.323
REMARK  5 active torsions:
REMARK  status: ('A' for Active; 'I' for Inactive)
REMARK    1  A    between atoms: O_2  and  C_3 
REMARK    2  A    between atoms: C_7  and  C_8 
REMARK    3  A    between atoms: C_8  and  N_9 
REMARK       I    between atoms: N_9  and  C_10 
REMARK       I    between atoms: C_10  and  N_12 
REMARK    4  A    between atoms: N_12  and  C_13 
REMARK    5  A    between atoms: C_16  and  C_19 
ROOT
HETATM    1  N   UNL     1      39.509 -12.809   7.056  1.00  0.00    -0.339 N 
HETATM    2  C   UNL     1      40.415 -13.487   6.266  1.00  0.00     0.320 C 
HETATM    3  O   UNL     1      41.337 -12.915   5.699  1.00  0.00    -0.247 OA
HETATM    4  N   UNL     1      40.149 -14.838   6.251  1.00  0.00    -0.309 N 
HETATM    5  H   UNL     1      38.577 -13.187   7.101  1.00  0.00     0.164 HD
HETATM    6  H   UNL     1      39.415 -15.144   6.871  1.00  0.00     0.170 HD
ENDROOT
BRANCH   4   7
HETATM    7  C   UNL     1      40.871 -15.847   5.581  1.00  0.00     0.036 A 
HETATM    8  C   UNL     1      40.889 -16.002   4.196  1.00  0.00     0.030 A 
HETATM    9  C   UNL     1      41.653 -17.014   3.601  1.00  0.00     0.014 A 
HETATM   10  C   UNL     1      42.412 -17.904   4.373  1.00  0.00    -0.026 A 
HETATM   11  C   UNL     1      42.375 -17.752   5.766  1.00  0.00     0.014 A 
HETATM   12  C   UNL     1      41.617 -16.736   6.363  1.00  0.00     0.030 A 
BRANCH  10  13
HETATM   13  C   UNL     1      43.223 -18.955   3.738  1.00  0.00    -0.023 A 
HETATM   14  C   UNL     1      42.994 -19.343   2.412  1.00  0.00     0.031 A 
HETATM   15  C   UNL     1      43.779 -20.340   1.855  1.00  0.00     0.117 A 
HETATM   16  N   UNL     1      44.767 -20.976   2.518  1.00  0.00    -0.273 NA
HETATM   17  C   UNL     1      44.975 -20.596   3.795  1.00  0.00     0.117 A 
HETATM   18  C   UNL     1      44.245 -19.607   4.437  1.00  0.00     0.031 A 
ENDBRANCH  10  13
ENDBRANCH   4   7
BRANCH   1  19
HETATM   19  C   UNL     1      39.613 -11.368   7.162  1.00  0.00     0.163 C 
BRANCH  19  20
HETATM   20  C   UNL     1      40.357 -10.938   8.399  1.00  0.00    -0.038 A 
HETATM   21  C   UNL     1      39.701 -10.816   9.631  1.00  0.00     0.009 A 
HETATM   22  C   UNL     1      40.415 -10.486  10.783  1.00  0.00     0.003 A 
HETATM   23  C   UNL     1      41.797 -10.299  10.725  1.00  0.00     0.037 A 
HETATM   24  C   UNL     1      42.470 -10.441   9.512  1.00  0.00     0.068 A 
HETATM   25  C   UNL     1      41.746 -10.746   8.355  1.00  0.00     0.045 A 
BRANCH  24  26
HETATM   26  O   UNL     1      43.819 -10.304   9.326  1.00  0.00    -0.356 OA
HETATM   27  C   UNL     1      44.649 -10.744  10.395  1.00  0.00     0.210 C 
ENDBRANCH  24  26
ENDBRANCH  19  20
ENDBRANCH   1  19
TORSDOF 5
ENDMDL
MODEL 5
REMARK VINA RESULT:      -8.1      2.206      3.304
REMARK  5 active torsions:
REMARK  status: ('A' for Active; 'I' for Inactive)
REMARK    1  A    between atoms: O_2  and  C_3 
REMARK    2  A    between atoms: C_7  and  C_8 
REMARK    3  A    between atoms: C_8  and  N_9 
REMARK       I    between atoms: N_9  and  C_10 
REMARK       I    between atoms: C_10  and  N_12 
REMARK    4  A    between atoms: N_12  and  C_13 
REMARK    5  A    between atoms: C_16  and  C_19 
ROOT
HETATM    1  N   UNL     1      41.838 -12.611   5.237  1.00  0.00    -0.339 N 
HETATM    2  C   UNL     1      41.699 -13.947   4.916  1.00  0.00     0.320 C 
HETATM    3  O   UNL     1      40.606 -14.498   4.894  1.00  0.00    -0.247 OA
HETATM    4  N   UNL     1      42.915 -14.512   4.605  1.00  0.00    -0.309 N 
HETATM    5  H   UNL     1      42.702 -12.341   5.681  1.00  0.00     0.164 HD
HETATM    6  H   UNL     1      43.695 -13.875   4.565  1.00  0.00     0.170 HD
ENDROOT
BRANCH   4   7
HETATM    7  C   UNL     1      43.165 -15.841   4.203  1.00  0.00     0.036 A 
HETATM    8  C   UNL     1      43.421 -16.220   2.886  1.00  0.00     0.030 A 
HETATM    9  C   UNL     1      43.686 -17.559   2.567  1.00  0.00     0.014 A 
HETATM   10  C   UNL     1      43.694 -18.555   3.553  1.00  0.00    -0.026 A 
HETATM   11  C   UNL     1      43.419 -18.167   4.872  1.00  0.00     0.014 A 
HETATM   12  C   UNL     1      43.160 -16.829   5.194  1.00  0.00     0.030 A 
BRANCH  10  13
HETATM   13  C   UNL     1      43.988 -19.955   3.212  1.00  0.00    -0.023 A 
HETATM   14  C   UNL     1      44.574 -20.820   4.146  1.00  0.00     0.031 A 
HETATM   15  C   UNL     1      44.837 -22.130   3.781  1.00  0.00     0.117 A 
HETATM   16  N   UNL     1      44.565 -22.639   2.561  1.00  0.00    -0.273 NA
HETATM   17  C   UNL     1      44.004 -21.796   1.670  1.00  0.00     0.117 A 
HETATM   18  C   UNL     1      43.700 -20.471   1.943  1.00  0.00     0.031 A 
ENDBRANCH  10  13
ENDBRANCH   4   7
BRANCH   1  19
HETATM   19  C   UNL     1      40.665 -11.859   5.628  1.00  0.00     0.163 C 
BRANCH  19  20
HETATM   20  C   UNL     1      40.765 -11.334   7.036  1.00  0.00    -0.038 A 
HETATM   21  C   UNL     1      39.634 -11.247   7.858  1.00  0.00     0.009 A 
HETATM   22  C   UNL     1      39.751 -10.826   9.183  1.00  0.00     0.003 A 
HETATM   23  C   UNL     1      41.004 -10.510   9.712  1.00  0.00     0.037 A 
HETATM   24  C   UNL     1      42.144 -10.615   8.916  1.00  0.00     0.068 A 
HETATM   25  C   UNL     1      42.018 -11.012   7.581  1.00  0.00     0.045 A 
BRANCH  24  26
HETATM   26  O   UNL     1      43.426 -10.355   9.319  1.00  0.00    -0.356 OA
HETATM   27  C   UNL     1      44.253 -11.489   9.554  1.00  0.00     0.210 C 
ENDBRANCH  24  26
ENDBRANCH  19  20
ENDBRANCH   1  19
TORSDOF 5
ENDMDL
MODEL 6
REMARK VINA RESULT:      -7.9      6.215      7.862
REMARK  5 active torsions:
REMARK  status: ('A' for Active; 'I' for Inactive)
REMARK    1  A    between atoms: O_2  and  C_3 
REMARK    2  A    between atoms: C_7  and  C_8 
REMARK    3  A    between atoms: C_8  and  N_9 
REMARK       I    between atoms: N_9  and  C_10 
REMARK       I    between atoms: C_10  and  N_12 
REMARK    4  A    between atoms: N_12  and  C_13 
REMARK    5  A    between atoms: C_16  and  C_19 
ROOT
HETATM    1  N   UNL     1      42.201 -12.448   1.905  1.00  0.00    -0.339 N 
HETATM    2  C   UNL     1      42.134 -13.819   1.757  1.00  0.00     0.320 C 
HETATM    3  O   UNL     1      41.333 -14.352   1.001  1.00  0.00    -0.247 OA
HETATM    4  N   UNL     1      43.088 -14.448   2.525  1.00  0.00    -0.309 N 
HETATM    5  H   UNL     1      42.499 -12.104   2.804  1.00  0.00     0.164 HD
HETATM    6  H   UNL     1      43.738 -13.840   2.998  1.00  0.00     0.170 HD
ENDROOT
BRANCH   4   7
HETATM    7  C   UNL     1      43.342 -15.833   2.612  1.00  0.00     0.036 A 
HETATM    8  C   UNL     1      43.674 -16.633   1.519  1.00  0.00     0.030 A 
HETATM    9  C   UNL     1      43.937 -17.998   1.688  1.00  0.00     0.014 A 
HETATM   10  C   UNL     1      43.870 -18.603   2.952  1.00  0.00    -0.026 A 
HETATM   11  C   UNL     1      43.520 -17.795   4.042  1.00  0.00     0.014 A 
HETATM   12  C   UNL     1      43.261 -16.428   3.876  1.00  0.00     0.030 A 
BRANCH  10  13
HETATM   13  C   UNL     1      44.163 -20.035   3.122  1.00  0.00    -0.023 A 
HETATM   14  C   UNL     1      44.008 -20.936   2.061  1.00  0.00     0.031 A 
HETATM   15  C   UNL     1      44.293 -22.276   2.267  1.00  0.00     0.117 A 
HETATM   16  N   UNL     1      44.714 -22.782   3.444  1.00  0.00    -0.273 NA
HETATM   17  C   UNL     1      44.857 -21.905   4.459  1.00  0.00     0.117 A 
HETATM   18  C   UNL     1      44.600 -20.547   4.349  1.00  0.00     0.031 A 
ENDBRANCH  10  13
ENDBRANCH   4   7
BRANCH   1  19
HETATM   19  C   UNL     1      41.246 -11.620   1.197  1.00  0.00     0.163 C 
BRANCH  19  20
HETATM   20  C   UNL     1      41.765 -11.169  -0.143  1.00  0.00    -0.038 A 
HETATM   21  C   UNL     1      42.816 -10.246  -0.238  1.00  0.00     0.009 A 
HETATM   22  C   UNL     1      43.336  -9.890  -1.482  1.00  0.00     0.003 A 
HETATM   23  C   UNL     1      42.829 -10.469  -2.647  1.00  0.00     0.037 A 
HETATM   24  C   UNL     1      41.801 -11.408  -2.571  1.00  0.00     0.068 A 
HETATM   25  C   UNL     1      41.266 -11.741  -1.322  1.00  0.00     0.045 A 
BRANCH  24  26
HETATM   26  O   UNL     1      41.233 -12.059  -3.631  1.00  0.00    -0.356 OA
HETATM   27  C   UNL     1      39.996 -12.714  -3.378  1.00  0.00     0.210 C 
ENDBRANCH  24  26
ENDBRANCH  19  20
ENDBRANCH   1  19
TORSDOF 5
ENDMDL
MODEL 7
REMARK VINA RESULT:      -7.9      7.215     10.170
REMARK  5 active torsions:
REMARK  status: ('A' for Active; 'I' for Inactive)
REMARK    1  A    between atoms: O_2  and  C_3 
REMARK    2  A    between atoms: C_7  and  C_8 
REMARK    3  A    between atoms: C_8  and  N_9 
REMARK       I    between atoms: N_9  and  C_10 
REMARK       I    between atoms: C_10  and  N_12 
REMARK    4  A    between atoms: N_12  and  C_13 
REMARK    5  A    between atoms: C_16  and  C_19 
ROOT
HETATM    1  N   UNL     1      40.648 -15.944  -1.712  1.00  0.00    -0.339 N 
HETATM    2  C   UNL     1      41.285 -15.870  -0.490  1.00  0.00     0.320 C 
HETATM    3  O   UNL     1      41.898 -14.871  -0.137  1.00  0.00    -0.247 OA
HETATM    4  N   UNL     1      41.098 -17.023   0.239  1.00  0.00    -0.309 N 
HETATM    5  H   UNL     1      40.581 -16.856  -2.133  1.00  0.00     0.164 HD
HETATM    6  H   UNL     1      40.467 -17.697  -0.167  1.00  0.00     0.170 HD
ENDROOT
BRANCH   4   7
HETATM    7  C   UNL     1      41.572 -17.304   1.537  1.00  0.00     0.036 A 
HETATM    8  C   UNL     1      42.746 -18.006   1.802  1.00  0.00     0.030 A 
HETATM    9  C   UNL     1      43.167 -18.224   3.120  1.00  0.00     0.014 A 
HETATM   10  C   UNL     1      42.421 -17.752   4.210  1.00  0.00    -0.026 A 
HETATM   11  C   UNL     1      41.233 -17.060   3.935  1.00  0.00     0.014 A 
HETATM   12  C   UNL     1      40.814 -16.838   2.617  1.00  0.00     0.030 A 
BRANCH  10  13
HETATM   13  C   UNL     1      42.878 -17.971   5.591  1.00  0.00    -0.023 A 
HETATM   14  C   UNL     1      42.774 -16.961   6.556  1.00  0.00     0.031 A 
HETATM   15  C   UNL     1      43.220 -17.209   7.844  1.00  0.00     0.117 A 
HETATM   16  N   UNL     1      43.761 -18.381   8.239  1.00  0.00    -0.273 NA
HETATM   17  C   UNL     1      43.859 -19.344   7.300  1.00  0.00     0.117 A 
HETATM   18  C   UNL     1      43.437 -19.191   5.988  1.00  0.00     0.031 A 
ENDBRANCH  10  13
ENDBRANCH   4   7
BRANCH   1  19
HETATM   19  C   UNL     1      40.766 -14.831  -2.631  1.00  0.00     0.163 C 
BRANCH  19  20
HETATM   20  C   UNL     1      39.452 -14.128  -2.849  1.00  0.00    -0.038 A 
HETATM   21  C   UNL     1      39.267 -12.799  -2.444  1.00  0.00     0.009 A 
HETATM   22  C   UNL     1      38.071 -12.136  -2.715  1.00  0.00     0.003 A 
HETATM   23  C   UNL     1      37.051 -12.783  -3.415  1.00  0.00     0.037 A 
HETATM   24  C   UNL     1      37.226 -14.096  -3.848  1.00  0.00     0.068 A 
HETATM   25  C   UNL     1      38.418 -14.766  -3.551  1.00  0.00     0.045 A 
BRANCH  24  26
HETATM   26  O   UNL     1      36.316 -14.832  -4.557  1.00  0.00    -0.356 OA
HETATM   27  C   UNL     1      35.212 -14.115  -5.097  1.00  0.00     0.210 C 
ENDBRANCH  24  26
ENDBRANCH  19  20
ENDBRANCH   1  19
TORSDOF 5
ENDMDL
MODEL 8
REMARK VINA RESULT:      -7.9      7.557     11.164
REMARK  5 active torsions:
REMARK  status: ('A' for Active; 'I' for Inactive)
REMARK    1  A    between atoms: O_2  and  C_3 
REMARK    2  A    between atoms: C_7  and  C_8 
REMARK    3  A    between atoms: C_8  and  N_9 
REMARK       I    between atoms: N_9  and  C_10 
REMARK       I    between atoms: C_10  and  N_12 
REMARK    4  A    between atoms: N_12  and  C_13 
REMARK    5  A    between atoms: C_16  and  C_19 
ROOT
HETATM    1  N   UNL     1      43.313 -16.544   1.642  1.00  0.00    -0.339 N 
HETATM    2  C   UNL     1      42.050 -16.210   1.195  1.00  0.00     0.320 C 
HETATM    3  O   UNL     1      41.056 -16.351   1.895  1.00  0.00    -0.247 OA
HETATM    4  N   UNL     1      42.095 -15.687  -0.078  1.00  0.00    -0.309 N 
HETATM    5  H   UNL     1      43.973 -16.849   0.944  1.00  0.00     0.164 HD
HETATM    6  H   UNL     1      43.018 -15.539  -0.455  1.00  0.00     0.170 HD
ENDROOT
BRANCH   4   7
HETATM    7  C   UNL     1      41.014 -15.210  -0.848  1.00  0.00     0.036 A 
HETATM    8  C   UNL     1      40.083 -14.279  -0.389  1.00  0.00     0.030 A 
HETATM    9  C   UNL     1      39.049 -13.833  -1.222  1.00  0.00     0.014 A 
HETATM   10  C   UNL     1      38.913 -14.309  -2.534  1.00  0.00    -0.026 A 
HETATM   11  C   UNL     1      39.844 -15.257  -2.981  1.00  0.00     0.014 A 
HETATM   12  C   UNL     1      40.881 -15.701  -2.151  1.00  0.00     0.030 A 
BRANCH  10  13
HETATM   13  C   UNL     1      37.834 -13.823  -3.407  1.00  0.00    -0.023 A 
HETATM   14  C   UNL     1      37.002 -14.717  -4.094  1.00  0.00     0.031 A 
HETATM   15  C   UNL     1      36.000 -14.216  -4.909  1.00  0.00     0.117 A 
HETATM   16  N   UNL     1      35.769 -12.900  -5.092  1.00  0.00    -0.273 NA
HETATM   17  C   UNL     1      36.578 -12.049  -4.428  1.00  0.00     0.117 A 
HETATM   18  C   UNL     1      37.604 -12.455  -3.588  1.00  0.00     0.031 A 
ENDBRANCH  10  13
ENDBRANCH   4   7
BRANCH   1  19
HETATM   19  C   UNL     1      43.456 -17.144   2.952  1.00  0.00     0.163 C 
BRANCH  19  20
HETATM   20  C   UNL     1      43.675 -18.633   2.877  1.00  0.00    -0.038 A 
HETATM   21  C   UNL     1      43.251 -19.371   1.764  1.00  0.00     0.009 A 
HETATM   22  C   UNL     1      43.523 -20.736   1.674  1.00  0.00     0.003 A 
HETATM   23  C   UNL     1      44.243 -21.377   2.684  1.00  0.00     0.037 A 
HETATM   24  C   UNL     1      44.694 -20.654   3.787  1.00  0.00     0.068 A 
HETATM   25  C   UNL     1      44.396 -19.291   3.885  1.00  0.00     0.045 A 
BRANCH  24  26
HETATM   26  O   UNL     1      45.423 -21.158   4.829  1.00  0.00    -0.356 OA
HETATM   27  C   UNL     1      45.074 -22.467   5.265  1.00  0.00     0.210 C 
ENDBRANCH  24  26
ENDBRANCH  19  20
ENDBRANCH   1  19
TORSDOF 5
ENDMDL
MODEL 9
REMARK VINA RESULT:      -7.7      1.976      2.710
REMARK  5 active torsions:
REMARK  status: ('A' for Active; 'I' for Inactive)
REMARK    1  A    between atoms: O_2  and  C_3 
REMARK    2  A    between atoms: C_7  and  C_8 
REMARK    3  A    between atoms: C_8  and  N_9 
REMARK       I    between atoms: N_9  and  C_10 
REMARK       I    between atoms: C_10  and  N_12 
REMARK    4  A    between atoms: N_12  and  C_13 
REMARK    5  A    between atoms: C_16  and  C_19 
ROOT
HETATM    1  N   UNL     1      42.276 -12.779   6.341  1.00  0.00    -0.339 N 
HETATM    2  C   UNL     1      42.100 -13.985   5.692  1.00  0.00     0.320 C 
HETATM    3  O   UNL     1      41.082 -14.240   5.062  1.00  0.00    -0.247 OA
HETATM    4  N   UNL     1      43.209 -14.790   5.830  1.00  0.00    -0.309 N 
HETATM    5  H   UNL     1      42.848 -12.791   7.170  1.00  0.00     0.164 HD
HETATM    6  H   UNL     1      44.001 -14.366   6.288  1.00  0.00     0.170 HD
ENDROOT
BRANCH   4   7
HETATM    7  C   UNL     1      43.408 -16.075   5.285  1.00  0.00     0.036 A 
HETATM    8  C   UNL     1      43.211 -16.390   3.941  1.00  0.00     0.030 A 
HETATM    9  C   UNL     1      43.455 -17.686   3.468  1.00  0.00     0.014 A 
HETATM   10  C   UNL     1      43.894 -18.704   4.326  1.00  0.00    -0.026 A 
HETATM   11  C   UNL     1      44.074 -18.383   5.678  1.00  0.00     0.014 A 
HETATM   12  C   UNL     1      43.836 -17.087   6.152  1.00  0.00     0.030 A 
BRANCH  10  13
HETATM   13  C   UNL     1      44.162 -20.058   3.817  1.00  0.00    -0.023 A 
HETATM   14  C   UNL     1      44.592 -21.080   4.673  1.00  0.00     0.031 A 
HETATM   15  C   UNL     1      44.837 -22.340   4.152  1.00  0.00     0.117 A 
HETATM   16  N   UNL     1      44.689 -22.654   2.848  1.00  0.00    -0.273 NA
HETATM   17  C   UNL     1      44.277 -21.662   2.033  1.00  0.00     0.117 A 
HETATM   18  C   UNL     1      44.005 -20.372   2.463  1.00  0.00     0.031 A 
ENDBRANCH  10  13
ENDBRANCH   4   7
BRANCH   1  19
HETATM   19  C   UNL     1      41.195 -11.816   6.334  1.00  0.00     0.163 C 
BRANCH  19  20
HETATM   20  C   UNL     1      41.068 -11.090   7.648  1.00  0.00    -0.038 A 
HETATM   21  C   UNL     1      42.203 -10.666   8.352  1.00  0.00     0.009 A 
HETATM   22  C   UNL     1      42.072  -9.932   9.530  1.00  0.00     0.003 A 
HETATM   23  C   UNL     1      40.806  -9.590  10.009  1.00  0.00     0.037 A 
HETATM   24  C   UNL     1      39.666  -9.981   9.308  1.00  0.00     0.068 A 
HETATM   25  C   UNL     1      39.802 -10.740   8.141  1.00  0.00     0.045 A 
BRANCH  24  26
HETATM   26  O   UNL     1      38.375  -9.695   9.659  1.00  0.00    -0.356 OA
HETATM   27  C   UNL     1      38.180  -9.179  10.971  1.00  0.00     0.210 C 
ENDBRANCH  24  26
ENDBRANCH  19  20
ENDBRANCH   1  19
TORSDOF 5
ENDMDL
MODEL 10
REMARK VINA RESULT:      -7.7      6.074      8.508
REMARK  5 active torsions:
REMARK  status: ('A' for Active; 'I' for Inactive)
REMARK    1  A    between atoms: O_2  and  C_3 
REMARK    2  A    between atoms: C_7  and  C_8 
REMARK    3  A    between atoms: C_8  and  N_9 
REMARK       I    between atoms: N_9  and  C_10 
REMARK       I    between atoms: C_10  and  N_12 
REMARK    4  A    between atoms: N_12  and  C_13 
REMARK    5  A    between atoms: C_16  and  C_19 
ROOT
HETATM    1  N   UNL     1      41.729 -13.165   1.355  1.00  0.00    -0.339 N 
HETATM    2  C   UNL     1      41.688 -14.503   1.696  1.00  0.00     0.320 C 
HETATM    3  O   UNL     1      40.684 -15.183   1.531  1.00  0.00    -0.247 OA
HETATM    4  N   UNL     1      42.902 -14.928   2.187  1.00  0.00    -0.309 N 
HETATM    5  H   UNL     1      42.338 -12.578   1.902  1.00  0.00     0.164 HD
HETATM    6  H   UNL     1      43.650 -14.254   2.142  1.00  0.00     0.170 HD
ENDROOT
BRANCH   4   7
HETATM    7  C   UNL     1      43.248 -16.228   2.608  1.00  0.00     0.036 A 
HETATM    8  C   UNL     1      43.102 -16.687   3.917  1.00  0.00     0.030 A 
HETATM    9  C   UNL     1      43.445 -18.003   4.254  1.00  0.00     0.014 A 
HETATM   10  C   UNL     1      43.948 -18.894   3.296  1.00  0.00    -0.026 A 
HETATM   11  C   UNL     1      44.106 -18.420   1.986  1.00  0.00     0.014 A 
HETATM   12  C   UNL     1      43.759 -17.106   1.646  1.00  0.00     0.030 A 
BRANCH  10  13
HETATM   13  C   UNL     1      44.290 -20.279   3.656  1.00  0.00    -0.023 A 
HETATM   14  C   UNL     1      44.640 -20.619   4.969  1.00  0.00     0.031 A 
HETATM   15  C   UNL     1      44.959 -21.934   5.264  1.00  0.00     0.117 A 
HETATM   16  N   UNL     1      44.957 -22.929   4.353  1.00  0.00    -0.273 NA
HETATM   17  C   UNL     1      44.621 -22.589   3.092  1.00  0.00     0.117 A 
HETATM   18  C   UNL     1      44.284 -21.302   2.702  1.00  0.00     0.031 A 
ENDBRANCH  10  13
ENDBRANCH   4   7
BRANCH   1  19
HETATM   19  C   UNL     1      40.527 -12.533   0.853  1.00  0.00     0.163 C 
BRANCH  19  20
HETATM   20  C   UNL     1      40.291 -12.832  -0.605  1.00  0.00    -0.038 A 
HETATM   21  C   UNL     1      41.286 -12.591  -1.562  1.00  0.00     0.009 A 
HETATM   22  C   UNL     1      41.082 -12.939  -2.898  1.00  0.00     0.003 A 
HETATM   23  C   UNL     1      39.892 -13.553  -3.291  1.00  0.00     0.037 A 
HETATM   24  C   UNL     1      38.901 -13.823  -2.348  1.00  0.00     0.068 A 
HETATM   25  C   UNL     1      39.099 -13.449  -1.015  1.00  0.00     0.045 A 
BRANCH  24  26
HETATM   26  O   UNL     1      37.703 -14.435  -2.600  1.00  0.00    -0.356 OA
HETATM   27  C   UNL     1      37.631 -15.206  -3.794  1.00  0.00     0.210 C 
ENDBRANCH  24  26
ENDBRANCH  19  20
ENDBRANCH   1  19
TORSDOF 5
ENDMDL
