MODEL 1
REMARK VINA RESULT:      -9.0      0.000      0.000
REMARK  4 active torsions:
REMARK  status: ('A' for Active; 'I' for Inactive)
REMARK    1  A    between atoms: C_2  and  C_3 
REMARK       I    between atoms: C_3  and  N_4 
REMARK    2  A    between atoms: N_4  and  C_5 
REMARK    3  A    between atoms: C_12  and  C_13 
REMARK       I    between atoms: C_13  and  N_14 
REMARK    4  A    between atoms: C_19  and  C_20 
ROOT
HETATM    1  C   UNL     1      41.462 -16.931   1.495  1.00  0.00     0.036 A 
HETATM    2  C   UNL     1      41.550 -16.535   0.153  1.00  0.00     0.046 A 
HETATM    3  C   UNL     1      40.829 -15.404  -0.287  1.00  0.00     0.030 A 
HETATM    4  C   UNL     1      40.063 -14.697   0.631  1.00  0.00     0.063 A 
HETATM    5  N   UNL     1      39.508 -13.667  -0.074  1.00  0.00    -0.277 N 
HETATM    6  H   UNL     1      38.894 -12.941   0.280  1.00  0.00     0.189 HD
HETATM    7  N   UNL     1      39.825 -13.650  -1.379  1.00  0.00    -0.168 NA
HETATM    8  C   UNL     1      40.637 -14.722  -1.528  1.00  0.00     0.156 A 
HETATM    9  C   UNL     1      39.954 -15.062   1.975  1.00  0.00     0.034 A 
HETATM   10  C   UNL     1      40.661 -16.200   2.381  1.00  0.00     0.032 A 
ENDROOT
BRANCH   1  11
HETATM   11  N   UNL     1      42.129 -18.057   2.019  1.00  0.00    -0.323 N 
HETATM   12  C   UNL     1      43.486 -18.293   2.036  1.00  0.00     0.251 C 
HETATM   13  O   UNL     1      44.387 -17.541   1.694  1.00  0.00    -0.268 OA
HETATM   14  H   UNL     1      41.546 -18.768   2.441  1.00  0.00     0.169 HD
BRANCH  12  15
HETATM   15  C   UNL     1      43.824 -19.622   2.629  1.00  0.00     0.007 C 
HETATM   16  C   UNL     1      43.933 -20.728   1.625  1.00  0.00     0.054 C 
HETATM   17  C   UNL     1      43.984 -19.812   3.952  1.00  0.00     0.023 C 
BRANCH  17  18
HETATM   18  C   UNL     1      43.817 -18.819   5.025  1.00  0.00    -0.034 A 
HETATM   19  C   UNL     1      42.534 -18.328   5.300  1.00  0.00     0.035 A 
HETATM   20  C   UNL     1      42.353 -17.358   6.288  1.00  0.00     0.034 A 
HETATM   21 CL   UNL     1      40.771 -16.767   6.621  1.00  0.00    -0.084 Cl
HETATM   22  C   UNL     1      43.440 -16.861   7.004  1.00  0.00     0.024 A 
HETATM   23  C   UNL     1      44.721 -17.332   6.724  1.00  0.00     0.003 A 
HETATM   24  C   UNL     1      44.909 -18.299   5.732  1.00  0.00     0.011 A 
ENDBRANCH  17  18
ENDBRANCH  12  15
ENDBRANCH   1  11
BRANCH   8  25
HETATM   25  C   UNL     1      41.194 -15.075  -2.842  1.00  0.00     0.270 C 
HETATM   26  N   UNL     1      42.309 -14.361  -3.185  1.00  0.00    -0.365 N 
HETATM   27  H   UNL     1      42.650 -13.656  -2.542  1.00  0.00     0.159 HD
HETATM   28  H   UNL     1      42.746 -14.518  -4.079  1.00  0.00     0.159 HD
HETATM   29  O   UNL     1      40.724 -15.919  -3.598  1.00  0.00    -0.266 OA
ENDBRANCH   8  25
TORSDOF 4
ENDMDL
MODEL 2
REMARK VINA RESULT:      -8.3      4.126      5.715
REMARK  4 active torsions:
REMARK  status: ('A' for Active; 'I' for Inactive)
REMARK    1  A    between atoms: C_2  and  C_3 
REMARK       I    between atoms: C_3  and  N_4 
REMARK    2  A    between atoms: N_4  and  C_5 
REMARK    3  A    between atoms: C_12  and  C_13 
REMARK       I    between atoms: C_13  and  N_14 
REMARK    4  A    between atoms: C_19  and  C_20 
ROOT
HETATM    1  C   UNL     1      41.048 -14.716   3.708  1.00  0.00     0.036 A 
HETATM    2  C   UNL     1      40.478 -13.437   3.765  1.00  0.00     0.046 A 
HETATM    3  C   UNL     1      39.947 -12.965   4.985  1.00  0.00     0.030 A 
HETATM    4  C   UNL     1      40.021 -13.779   6.108  1.00  0.00     0.063 A 
HETATM    5  N   UNL     1      39.450 -13.056   7.118  1.00  0.00    -0.277 N 
HETATM    6  H   UNL     1      39.340 -13.337   8.087  1.00  0.00     0.189 HD
HETATM    7  N   UNL     1      38.988 -11.851   6.750  1.00  0.00    -0.168 NA
HETATM    8  C   UNL     1      39.282 -11.782   5.431  1.00  0.00     0.156 A 
HETATM    9  C   UNL     1      40.583 -15.057   6.089  1.00  0.00     0.034 A 
HETATM   10  C   UNL     1      41.083 -15.510   4.862  1.00  0.00     0.032 A 
ENDROOT
BRANCH   1  11
HETATM   11  N   UNL     1      41.584 -15.279   2.532  1.00  0.00    -0.323 N 
HETATM   12  C   UNL     1      41.158 -16.415   1.879  1.00  0.00     0.251 C 
HETATM   13  O   UNL     1      40.180 -17.106   2.126  1.00  0.00    -0.268 OA
HETATM   14  H   UNL     1      42.362 -14.787   2.112  1.00  0.00     0.169 HD
BRANCH  12  15
HETATM   15  C   UNL     1      42.002 -16.737   0.690  1.00  0.00     0.007 C 
HETATM   16  C   UNL     1      41.542 -16.086  -0.579  1.00  0.00     0.054 C 
HETATM   17  C   UNL     1      43.062 -17.565   0.749  1.00  0.00     0.023 C 
BRANCH  17  18
HETATM   18  C   UNL     1      43.546 -18.317   1.917  1.00  0.00    -0.034 A 
HETATM   19  C   UNL     1      43.727 -19.701   1.804  1.00  0.00     0.035 A 
HETATM   20  C   UNL     1      44.150 -20.445   2.908  1.00  0.00     0.034 A 
HETATM   21 CL   UNL     1      44.375 -22.143   2.755  1.00  0.00    -0.084 Cl
HETATM   22  C   UNL     1      44.387 -19.824   4.133  1.00  0.00     0.024 A 
HETATM   23  C   UNL     1      44.192 -18.450   4.258  1.00  0.00     0.003 A 
HETATM   24  C   UNL     1      43.764 -17.703   3.157  1.00  0.00     0.011 A 
ENDBRANCH  17  18
ENDBRANCH  12  15
ENDBRANCH   1  11
BRANCH   8  25
HETATM   25  C   UNL     1      38.913 -10.604   4.632  1.00  0.00     0.270 C 
HETATM   26  N   UNL     1      37.902 -10.831   3.738  1.00  0.00    -0.365 N 
HETATM   27  H   UNL     1      37.505 -11.761   3.683  1.00  0.00     0.159 HD
HETATM   28  H   UNL     1      37.598 -10.087   3.131  1.00  0.00     0.159 HD
HETATM   29  O   UNL     1      39.448  -9.504   4.718  1.00  0.00    -0.266 OA
ENDBRANCH   8  25
TORSDOF 4
ENDMDL
MODEL 3
REMARK VINA RESULT:      -8.2      3.085      7.047
REMARK  4 active torsions:
REMARK  status: ('A' for Active; 'I' for Inactive)
REMARK    1  A    between atoms: C_2  and  C_3 
REMARK       I    between atoms: C_3  and  N_4 
REMARK    2  A    between atoms: N_4  and  C_5 
REMARK    3  A    between atoms: C_12  and  C_13 
REMARK       I    between atoms: C_13  and  N_14 
REMARK    4  A    between atoms: C_19  and  C_20 
ROOT
HETATM    1  C   UNL     1      43.416 -18.366   2.471  1.00  0.00     0.036 A 
HETATM    2  C   UNL     1      43.605 -18.456   3.857  1.00  0.00     0.046 A 
HETATM    3  C   UNL     1      44.046 -19.673   4.422  1.00  0.00     0.030 A 
HETATM    4  C   UNL     1      44.302 -20.749   3.581  1.00  0.00     0.063 A 
HETATM    5  N   UNL     1      44.721 -21.758   4.401  1.00  0.00    -0.277 N 
HETATM    6  H   UNL     1      45.003 -22.693   4.128  1.00  0.00     0.189 HD
HETATM    7  N   UNL     1      44.739 -21.445   5.707  1.00  0.00    -0.168 NA
HETATM    8  C   UNL     1      44.318 -20.160   5.737  1.00  0.00     0.156 A 
HETATM    9  C   UNL     1      44.127 -20.694   2.197  1.00  0.00     0.034 A 
HETATM   10  C   UNL     1      43.668 -19.484   1.664  1.00  0.00     0.032 A 
ENDROOT
BRANCH   1  11
HETATM   11  N   UNL     1      42.960 -17.202   1.821  1.00  0.00    -0.323 N 
HETATM   12  C   UNL     1      41.668 -16.908   1.442  1.00  0.00     0.251 C 
HETATM   13  O   UNL     1      40.649 -17.543   1.676  1.00  0.00    -0.268 OA
HETATM   14  H   UNL     1      43.656 -16.497   1.619  1.00  0.00     0.169 HD
BRANCH  12  15
HETATM   15  C   UNL     1      41.570 -15.600   0.727  1.00  0.00     0.007 C 
HETATM   16  C   UNL     1      41.346 -15.726  -0.748  1.00  0.00     0.054 C 
HETATM   17  C   UNL     1      41.703 -14.414   1.352  1.00  0.00     0.023 C 
BRANCH  17  18
HETATM   18  C   UNL     1      42.007 -14.180   2.772  1.00  0.00    -0.034 A 
HETATM   19  C   UNL     1      40.947 -14.015   3.673  1.00  0.00     0.035 A 
HETATM   20  C   UNL     1      41.207 -13.755   5.021  1.00  0.00     0.034 A 
HETATM   21 CL   UNL     1      39.896 -13.561   6.118  1.00  0.00    -0.084 Cl
HETATM   22  C   UNL     1      42.517 -13.647   5.482  1.00  0.00     0.024 A 
HETATM   23  C   UNL     1      43.576 -13.792   4.589  1.00  0.00     0.003 A 
HETATM   24  C   UNL     1      43.321 -14.047   3.239  1.00  0.00     0.011 A 
ENDBRANCH  17  18
ENDBRANCH  12  15
ENDBRANCH   1  11
BRANCH   8  25
HETATM   25  C   UNL     1      44.174 -19.438   7.009  1.00  0.00     0.270 C 
HETATM   26  N   UNL     1      43.596 -20.174   8.006  1.00  0.00    -0.365 N 
HETATM   27  H   UNL     1      43.306 -21.123   7.802  1.00  0.00     0.159 HD
HETATM   28  H   UNL     1      43.435 -19.754   8.907  1.00  0.00     0.159 HD
HETATM   29  O   UNL     1      44.516 -18.275   7.197  1.00  0.00    -0.266 OA
ENDBRANCH   8  25
TORSDOF 4
ENDMDL
MODEL 4
REMARK VINA RESULT:      -8.1      2.624      3.829
REMARK  4 active torsions:
REMARK  status: ('A' for Active; 'I' for Inactive)
REMARK    1  A    between atoms: C_2  and  C_3 
REMARK       I    between atoms: C_3  and  N_4 
REMARK    2  A    between atoms: N_4  and  C_5 
REMARK    3  A    between atoms: C_12  and  C_13 
REMARK       I    between atoms: C_13  and  N_14 
REMARK    4  A    between atoms: C_19  and  C_20 
ROOT
HETATM    1  C   UNL     1      42.753 -16.137   2.910  1.00  0.00     0.036 A 
HETATM    2  C   UNL     1      42.580 -15.026   2.074  1.00  0.00     0.046 A 
HETATM    3  C   UNL     1      41.905 -15.179   0.843  1.00  0.00     0.030 A 
HETATM    4  C   UNL     1      41.411 -16.432   0.501  1.00  0.00     0.063 A 
HETATM    5  N   UNL     1      40.806 -16.265  -0.713  1.00  0.00    -0.277 N 
HETATM    6  H   UNL     1      40.328 -16.970  -1.263  1.00  0.00     0.189 HD
HETATM    7  N   UNL     1      40.882 -15.018  -1.207  1.00  0.00    -0.168 NA
HETATM    8  C   UNL     1      41.564 -14.336  -0.258  1.00  0.00     0.156 A 
HETATM    9  C   UNL     1      41.564 -17.559   1.310  1.00  0.00     0.034 A 
HETATM   10  C   UNL     1      42.256 -17.386   2.515  1.00  0.00     0.032 A 
ENDROOT
BRANCH   1  11
HETATM   11  N   UNL     1      43.430 -16.084   4.145  1.00  0.00    -0.323 N 
HETATM   12  C   UNL     1      42.879 -16.157   5.405  1.00  0.00     0.251 C 
HETATM   13  O   UNL     1      41.715 -16.378   5.709  1.00  0.00    -0.268 OA
HETATM   14  H   UNL     1      44.436 -15.994   4.103  1.00  0.00     0.169 HD
BRANCH  12  15
HETATM   15  C   UNL     1      43.903 -16.012   6.483  1.00  0.00     0.007 C 
HETATM   16  C   UNL     1      44.184 -14.593   6.872  1.00  0.00     0.054 C 
HETATM   17  C   UNL     1      44.539 -17.065   7.032  1.00  0.00     0.023 C 
BRANCH  17  18
HETATM   18  C   UNL     1      44.401 -18.483   6.667  1.00  0.00    -0.034 A 
HETATM   19  C   UNL     1      44.792 -18.895   5.386  1.00  0.00     0.035 A 
HETATM   20  C   UNL     1      44.636 -20.228   5.001  1.00  0.00     0.034 A 
HETATM   21 CL   UNL     1      45.126 -20.722   3.428  1.00  0.00    -0.084 Cl
HETATM   22  C   UNL     1      44.085 -21.160   5.878  1.00  0.00     0.024 A 
HETATM   23  C   UNL     1      43.679 -20.755   7.147  1.00  0.00     0.003 A 
HETATM   24  C   UNL     1      43.826 -19.421   7.535  1.00  0.00     0.011 A 
ENDBRANCH  17  18
ENDBRANCH  12  15
ENDBRANCH   1  11
BRANCH   8  25
HETATM   25  C   UNL     1      41.883 -12.911  -0.430  1.00  0.00     0.270 C 
HETATM   26  N   UNL     1      41.342 -12.099   0.528  1.00  0.00    -0.365 N 
HETATM   27  H   UNL     1      40.770 -12.518   1.252  1.00  0.00     0.159 HD
HETATM   28  H   UNL     1      41.488 -11.103   0.479  1.00  0.00     0.159 HD
HETATM   29  O   UNL     1      42.559 -12.451  -1.343  1.00  0.00    -0.266 OA
ENDBRANCH   8  25
TORSDOF 4
ENDMDL
MODEL 5
REMARK VINA RESULT:      -8.1      3.527      4.612
REMARK  4 active torsions:
REMARK  status: ('A' for Active; 'I' for Inactive)
REMARK    1  A    between atoms: C_2  and  C_3 
REMARK       I    between atoms: C_3  and  N_4 
REMARK    2  A    between atoms: N_4  and  C_5 
REMARK    3  A    between atoms: C_12  and  C_13 
REMARK       I    between atoms: C_13  and  N_14 
REMARK    4  A    between atoms: C_19  and  C_20 
ROOT
HETATM    1  C   UNL     1      41.634 -15.431   3.849  1.00  0.00     0.036 A 
HETATM    2  C   UNL     1      40.891 -14.259   3.648  1.00  0.00     0.046 A 
HETATM    3  C   UNL     1      39.847 -14.250   2.699  1.00  0.00     0.030 A 
HETATM    4  C   UNL     1      39.568 -15.417   1.998  1.00  0.00     0.063 A 
HETATM    5  N   UNL     1      38.517 -15.107   1.180  1.00  0.00    -0.277 N 
HETATM    6  H   UNL     1      38.043 -15.725   0.530  1.00  0.00     0.189 HD
HETATM    7  N   UNL     1      38.099 -13.835   1.269  1.00  0.00    -0.168 NA
HETATM    8  C   UNL     1      38.915 -13.290   2.199  1.00  0.00     0.156 A 
HETATM    9  C   UNL     1      40.286 -16.602   2.173  1.00  0.00     0.034 A 
HETATM   10  C   UNL     1      41.331 -16.578   3.104  1.00  0.00     0.032 A 
ENDROOT
BRANCH   1  11
HETATM   11  N   UNL     1      42.706 -15.527   4.759  1.00  0.00    -0.323 N 
HETATM   12  C   UNL     1      42.671 -16.026   6.042  1.00  0.00     0.251 C 
HETATM   13  O   UNL     1      41.739 -16.572   6.616  1.00  0.00    -0.268 OA
HETATM   14  H   UNL     1      43.605 -15.204   4.430  1.00  0.00     0.169 HD
BRANCH  12  15
HETATM   15  C   UNL     1      43.993 -15.920   6.729  1.00  0.00     0.007 C 
HETATM   16  C   UNL     1      44.378 -14.520   7.099  1.00  0.00     0.054 C 
HETATM   17  C   UNL     1      44.782 -16.986   6.964  1.00  0.00     0.023 C 
BRANCH  17  18
HETATM   18  C   UNL     1      44.540 -18.382   6.570  1.00  0.00    -0.034 A 
HETATM   19  C   UNL     1      44.841 -18.779   5.261  1.00  0.00     0.035 A 
HETATM   20  C   UNL     1      44.586 -20.089   4.850  1.00  0.00     0.034 A 
HETATM   21 CL   UNL     1      44.968 -20.566   3.241  1.00  0.00    -0.084 Cl
HETATM   22  C   UNL     1      44.022 -21.012   5.728  1.00  0.00     0.024 A 
HETATM   23  C   UNL     1      43.703 -20.620   7.026  1.00  0.00     0.003 A 
HETATM   24  C   UNL     1      43.951 -19.309   7.441  1.00  0.00     0.011 A 
ENDBRANCH  17  18
ENDBRANCH  12  15
ENDBRANCH   1  11
BRANCH   8  25
HETATM   25  C   UNL     1      38.797 -11.874   2.577  1.00  0.00     0.270 C 
HETATM   26  N   UNL     1      39.178 -11.001   1.595  1.00  0.00    -0.365 N 
HETATM   27  H   UNL     1      39.516 -11.377   0.717  1.00  0.00     0.159 HD
HETATM   28  H   UNL     1      39.153 -10.010   1.772  1.00  0.00     0.159 HD
HETATM   29  O   UNL     1      38.409 -11.470   3.668  1.00  0.00    -0.266 OA
ENDBRANCH   8  25
TORSDOF 4
ENDMDL
MODEL 6
REMARK VINA RESULT:      -8.0      3.016      7.029
REMARK  4 active torsions:
REMARK  status: ('A' for Active; 'I' for Inactive)
REMARK    1  A    between atoms: C_2  and  C_3 
REMARK       I    between atoms: C_3  and  N_4 
REMARK    2  A    between atoms: N_4  and  C_5 
REMARK    3  A    between atoms: C_12  and  C_13 
REMARK       I    between atoms: C_13  and  N_14 
REMARK    4  A    between atoms: C_19  and  C_20 
ROOT
HETATM    1  C   UNL     1      43.159 -18.083   2.243  1.00  0.00     0.036 A 
HETATM    2  C   UNL     1      43.491 -18.170   3.602  1.00  0.00     0.046 A 
HETATM    3  C   UNL     1      44.000 -19.382   4.117  1.00  0.00     0.030 A 
HETATM    4  C   UNL     1      44.175 -20.457   3.254  1.00  0.00     0.063 A 
HETATM    5  N   UNL     1      44.686 -21.463   4.026  1.00  0.00    -0.277 N 
HETATM    6  H   UNL     1      44.946 -22.395   3.724  1.00  0.00     0.189 HD
HETATM    7  N   UNL     1      44.838 -21.148   5.322  1.00  0.00    -0.168 NA
HETATM    8  C   UNL     1      44.412 -19.866   5.396  1.00  0.00     0.156 A 
HETATM    9  C   UNL     1      43.857 -20.404   1.896  1.00  0.00     0.034 A 
HETATM   10  C   UNL     1      43.334 -19.198   1.414  1.00  0.00     0.032 A 
ENDROOT
BRANCH   1  11
HETATM   11  N   UNL     1      42.627 -16.923   1.645  1.00  0.00    -0.323 N 
HETATM   12  C   UNL     1      41.306 -16.664   1.350  1.00  0.00     0.251 C 
HETATM   13  O   UNL     1      40.324 -17.336   1.633  1.00  0.00    -0.268 OA
HETATM   14  H   UNL     1      43.287 -16.192   1.415  1.00  0.00     0.169 HD
BRANCH  12  15
HETATM   15  C   UNL     1      41.123 -15.347   0.669  1.00  0.00     0.007 C 
HETATM   16  C   UNL     1      41.153 -15.425  -0.827  1.00  0.00     0.054 C 
HETATM   17  C   UNL     1      40.977 -14.190   1.342  1.00  0.00     0.023 C 
BRANCH  17  18
HETATM   18  C   UNL     1      41.017 -13.992   2.799  1.00  0.00    -0.034 A 
HETATM   19  C   UNL     1      42.261 -13.929   3.441  1.00  0.00     0.035 A 
HETATM   20  C   UNL     1      42.327 -13.779   4.827  1.00  0.00     0.034 A 
HETATM   21 CL   UNL     1      43.861 -13.696   5.602  1.00  0.00    -0.084 Cl
HETATM   22  C   UNL     1      41.163 -13.699   5.589  1.00  0.00     0.024 A 
HETATM   23  C   UNL     1      39.922 -13.779   4.960  1.00  0.00     0.003 A 
HETATM   24  C   UNL     1      39.851 -13.935   3.573  1.00  0.00     0.011 A 
ENDBRANCH  17  18
ENDBRANCH  12  15
ENDBRANCH   1  11
BRANCH   8  25
HETATM   25  C   UNL     1      44.396 -19.145   6.677  1.00  0.00     0.270 C 
HETATM   26  N   UNL     1      45.251 -18.078   6.727  1.00  0.00    -0.365 N 
HETATM   27  H   UNL     1      45.823 -17.877   5.916  1.00  0.00     0.159 HD
HETATM   28  H   UNL     1      45.324 -17.538   7.574  1.00  0.00     0.159 HD
HETATM   29  O   UNL     1      43.703 -19.448   7.642  1.00  0.00    -0.266 OA
ENDBRANCH   8  25
TORSDOF 4
ENDMDL
MODEL 7
REMARK VINA RESULT:      -7.9      3.106      4.663
REMARK  4 active torsions:
REMARK  status: ('A' for Active; 'I' for Inactive)
REMARK    1  A    between atoms: C_2  and  C_3 
REMARK       I    between atoms: C_3  and  N_4 
REMARK    2  A    between atoms: N_4  and  C_5 
REMARK    3  A    between atoms: C_12  and  C_13 
REMARK       I    between atoms: C_13  and  N_14 
REMARK    4  A    between atoms: C_19  and  C_20 
ROOT
HETATM    1  C   UNL     1      41.097 -14.274   4.997  1.00  0.00     0.036 A 
HETATM    2  C   UNL     1      40.610 -14.304   3.683  1.00  0.00     0.046 A 
HETATM    3  C   UNL     1      39.661 -13.344   3.270  1.00  0.00     0.030 A 
HETATM    4  C   UNL     1      39.248 -12.376   4.177  1.00  0.00     0.063 A 
HETATM    5  N   UNL     1      38.357 -11.596   3.495  1.00  0.00    -0.277 N 
HETATM    6  H   UNL     1      37.860 -10.784   3.844  1.00  0.00     0.189 HD
HETATM    7  N   UNL     1      38.133 -11.982   2.229  1.00  0.00    -0.168 NA
HETATM    8  C   UNL     1      38.928 -13.066   2.076  1.00  0.00     0.156 A 
HETATM    9  C   UNL     1      39.714 -12.315   5.492  1.00  0.00     0.034 A 
HETATM   10  C   UNL     1      40.637 -13.292   5.884  1.00  0.00     0.032 A 
ENDROOT
BRANCH   1  11
HETATM   11  N   UNL     1      42.029 -15.202   5.504  1.00  0.00    -0.323 N 
HETATM   12  C   UNL     1      41.788 -16.502   5.890  1.00  0.00     0.251 C 
HETATM   13  O   UNL     1      40.751 -17.143   5.782  1.00  0.00    -0.268 OA
HETATM   14  H   UNL     1      42.985 -14.883   5.583  1.00  0.00     0.169 HD
BRANCH  12  15
HETATM   15  C   UNL     1      43.011 -17.172   6.428  1.00  0.00     0.007 C 
HETATM   16  C   UNL     1      43.228 -16.957   7.894  1.00  0.00     0.054 C 
HETATM   17  C   UNL     1      43.857 -17.877   5.654  1.00  0.00     0.023 C 
BRANCH  17  18
HETATM   18  C   UNL     1      43.783 -18.078   4.199  1.00  0.00    -0.034 A 
HETATM   19  C   UNL     1      43.733 -19.385   3.697  1.00  0.00     0.035 A 
HETATM   20  C   UNL     1      43.700 -19.604   2.318  1.00  0.00     0.034 A 
HETATM   21 CL   UNL     1      43.631 -21.214   1.714  1.00  0.00    -0.084 Cl
HETATM   22  C   UNL     1      43.727 -18.533   1.428  1.00  0.00     0.024 A 
HETATM   23  C   UNL     1      43.795 -17.231   1.919  1.00  0.00     0.003 A 
HETATM   24  C   UNL     1      43.833 -17.006   3.298  1.00  0.00     0.011 A 
ENDBRANCH  17  18
ENDBRANCH  12  15
ENDBRANCH   1  11
BRANCH   8  25
HETATM   25  C   UNL     1      38.958 -13.812   0.810  1.00  0.00     0.270 C 
HETATM   26  N   UNL     1      37.728 -14.224   0.375  1.00  0.00    -0.365 N 
HETATM   27  H   UNL     1      36.917 -14.006   0.941  1.00  0.00     0.159 HD
HETATM   28  H   UNL     1      37.654 -14.762  -0.473  1.00  0.00     0.159 HD
HETATM   29  O   UNL     1      39.975 -14.075   0.177  1.00  0.00    -0.266 OA
ENDBRANCH   8  25
TORSDOF 4
ENDMDL
MODEL 8
REMARK VINA RESULT:      -7.9      3.426      7.964
REMARK  4 active torsions:
REMARK  status: ('A' for Active; 'I' for Inactive)
REMARK    1  A    between atoms: C_2  and  C_3 
REMARK       I    between atoms: C_3  and  N_4 
REMARK    2  A    between atoms: N_4  and  C_5 
REMARK    3  A    between atoms: C_12  and  C_13 
REMARK       I    between atoms: C_13  and  N_14 
REMARK    4  A    between atoms: C_19  and  C_20 
ROOT
HETATM    1  C   UNL     1      42.371 -17.252   2.935  1.00  0.00     0.036 A 
HETATM    2  C   UNL     1      42.755 -17.855   4.141  1.00  0.00     0.046 A 
HETATM    3  C   UNL     1      43.628 -18.964   4.118  1.00  0.00     0.030 A 
HETATM    4  C   UNL     1      44.103 -19.419   2.894  1.00  0.00     0.063 A 
HETATM    5  N   UNL     1      44.922 -20.471   3.191  1.00  0.00    -0.277 N 
HETATM    6  H   UNL     1      45.450 -21.041   2.538  1.00  0.00     0.189 HD
HETATM    7  N   UNL     1      45.008 -20.760   4.499  1.00  0.00    -0.168 NA
HETATM    8  C   UNL     1      44.208 -19.840   5.086  1.00  0.00     0.156 A 
HETATM    9  C   UNL     1      43.744 -18.841   1.674  1.00  0.00     0.034 A 
HETATM   10  C   UNL     1      42.859 -17.758   1.722  1.00  0.00     0.032 A 
ENDROOT
BRANCH   1  11
HETATM   11  N   UNL     1      41.489 -16.156   2.858  1.00  0.00    -0.323 N 
HETATM   12  C   UNL     1      41.816 -14.818   2.849  1.00  0.00     0.251 C 
HETATM   13  O   UNL     1      42.929 -14.313   2.807  1.00  0.00    -0.268 OA
HETATM   14  H   UNL     1      40.504 -16.375   2.791  1.00  0.00     0.169 HD
BRANCH  12  15
HETATM   15  C   UNL     1      40.609 -13.938   2.812  1.00  0.00     0.007 C 
HETATM   16  C   UNL     1      39.846 -13.894   4.100  1.00  0.00     0.054 C 
HETATM   17  C   UNL     1      40.226 -13.270   1.707  1.00  0.00     0.023 C 
BRANCH  17  18
HETATM   18  C   UNL     1      40.852 -13.310   0.376  1.00  0.00    -0.034 A 
HETATM   19  C   UNL     1      40.548 -14.374  -0.484  1.00  0.00     0.035 A 
HETATM   20  C   UNL     1      41.156 -14.455  -1.739  1.00  0.00     0.034 A 
HETATM   21 CL   UNL     1      40.769 -15.763  -2.788  1.00  0.00    -0.084 Cl
HETATM   22  C   UNL     1      42.075 -13.491  -2.146  1.00  0.00     0.024 A 
HETATM   23  C   UNL     1      42.396 -12.440  -1.289  1.00  0.00     0.003 A 
HETATM   24  C   UNL     1      41.794 -12.357  -0.031  1.00  0.00     0.011 A 
ENDBRANCH  17  18
ENDBRANCH  12  15
ENDBRANCH   1  11
BRANCH   8  25
HETATM   25  C   UNL     1      44.006 -19.828   6.542  1.00  0.00     0.270 C 
HETATM   26  N   UNL     1      43.639 -21.038   7.065  1.00  0.00    -0.365 N 
HETATM   27  H   UNL     1      43.523 -21.822   6.434  1.00  0.00     0.159 HD
HETATM   28  H   UNL     1      43.457 -21.119   8.052  1.00  0.00     0.159 HD
HETATM   29  O   UNL     1      44.133 -18.840   7.258  1.00  0.00    -0.266 OA
ENDBRANCH   8  25
TORSDOF 4
ENDMDL
MODEL 9
REMARK VINA RESULT:      -7.7      4.180      5.972
REMARK  4 active torsions:
REMARK  status: ('A' for Active; 'I' for Inactive)
REMARK    1  A    between atoms: C_2  and  C_3 
REMARK       I    between atoms: C_3  and  N_4 
REMARK    2  A    between atoms: N_4  and  C_5 
REMARK    3  A    between atoms: C_12  and  C_13 
REMARK       I    between atoms: C_13  and  N_14 
REMARK    4  A    between atoms: C_19  and  C_20 
ROOT
HETATM    1  C   UNL     1      43.139 -15.188   5.046  1.00  0.00     0.036 A 
HETATM    2  C   UNL     1      42.297 -14.300   5.730  1.00  0.00     0.046 A 
HETATM    3  C   UNL     1      41.845 -13.130   5.082  1.00  0.00     0.030 A 
HETATM    4  C   UNL     1      42.234 -12.899   3.769  1.00  0.00     0.063 A 
HETATM    5  N   UNL     1      41.637 -11.721   3.416  1.00  0.00    -0.277 N 
HETATM    6  H   UNL     1      41.694 -11.249   2.520  1.00  0.00     0.189 HD
HETATM    7  N   UNL     1      40.911 -11.150   4.390  1.00  0.00    -0.168 NA
HETATM    8  C   UNL     1      41.034 -12.007   5.430  1.00  0.00     0.156 A 
HETATM    9  C   UNL     1      43.069 -13.761   3.057  1.00  0.00     0.034 A 
HETATM   10  C   UNL     1      43.522 -14.903   3.729  1.00  0.00     0.032 A 
ENDROOT
BRANCH   1  11
HETATM   11  N   UNL     1      43.656 -16.368   5.619  1.00  0.00    -0.323 N 
HETATM   12  C   UNL     1      42.981 -17.543   5.864  1.00  0.00     0.251 C 
HETATM   13  O   UNL     1      41.835 -17.836   5.551  1.00  0.00    -0.268 OA
HETATM   14  H   UNL     1      44.635 -16.355   5.867  1.00  0.00     0.169 HD
BRANCH  12  15
HETATM   15  C   UNL     1      43.842 -18.565   6.531  1.00  0.00     0.007 C 
HETATM   16  C   UNL     1      44.050 -18.326   7.995  1.00  0.00     0.054 C 
HETATM   17  C   UNL     1      44.408 -19.590   5.866  1.00  0.00     0.023 C 
BRANCH  17  18
HETATM   18  C   UNL     1      44.338 -19.868   4.423  1.00  0.00    -0.034 A 
HETATM   19  C   UNL     1      44.136 -18.802   3.537  1.00  0.00     0.035 A 
HETATM   20  C   UNL     1      44.029 -19.042   2.165  1.00  0.00     0.034 A 
HETATM   21 CL   UNL     1      43.788 -17.723   1.087  1.00  0.00    -0.084 Cl
HETATM   22  C   UNL     1      44.111 -20.339   1.663  1.00  0.00     0.024 A 
HETATM   23  C   UNL     1      44.294 -21.406   2.540  1.00  0.00     0.003 A 
HETATM   24  C   UNL     1      44.396 -21.172   3.914  1.00  0.00     0.011 A 
ENDBRANCH  17  18
ENDBRANCH  12  15
ENDBRANCH   1  11
BRANCH   8  25
HETATM   25  C   UNL     1      40.393 -11.728   6.723  1.00  0.00     0.270 C 
HETATM   26  N   UNL     1      41.267 -11.379   7.716  1.00  0.00    -0.365 N 
HETATM   27  H   UNL     1      42.257 -11.352   7.502  1.00  0.00     0.159 HD
HETATM   28  H   UNL     1      40.920 -11.193   8.643  1.00  0.00     0.159 HD
HETATM   29  O   UNL     1      39.188 -11.804   6.937  1.00  0.00    -0.266 OA
ENDBRANCH   8  25
TORSDOF 4
ENDMDL
MODEL 10
REMARK VINA RESULT:      -7.7      3.507      8.020
REMARK  4 active torsions:
REMARK  status: ('A' for Active; 'I' for Inactive)
REMARK    1  A    between atoms: C_2  and  C_3 
REMARK       I    between atoms: C_3  and  N_4 
REMARK    2  A    between atoms: N_4  and  C_5 
REMARK    3  A    between atoms: C_12  and  C_13 
REMARK       I    between atoms: C_13  and  N_14 
REMARK    4  A    between atoms: C_19  and  C_20 
ROOT
HETATM    1  C   UNL     1      42.659 -16.954   3.117  1.00  0.00     0.036 A 
HETATM    2  C   UNL     1      42.978 -17.725   4.243  1.00  0.00     0.046 A 
HETATM    3  C   UNL     1      43.746 -18.900   4.089  1.00  0.00     0.030 A 
HETATM    4  C   UNL     1      44.183 -19.252   2.818  1.00  0.00     0.063 A 
HETATM    5  N   UNL     1      44.900 -20.403   2.987  1.00  0.00    -0.277 N 
HETATM    6  H   UNL     1      45.377 -20.940   2.271  1.00  0.00     0.189 HD
HETATM    7  N   UNL     1      44.951 -20.848   4.253  1.00  0.00    -0.168 NA
HETATM    8  C   UNL     1      44.236 -19.932   4.946  1.00  0.00     0.156 A 
HETATM    9  C   UNL     1      43.886 -18.508   1.675  1.00  0.00     0.034 A 
HETATM   10  C   UNL     1      43.105 -17.359   1.852  1.00  0.00     0.032 A 
ENDROOT
BRANCH   1  11
HETATM   11  N   UNL     1      41.882 -15.780   3.171  1.00  0.00    -0.323 N 
HETATM   12  C   UNL     1      40.615 -15.591   2.665  1.00  0.00     0.251 C 
HETATM   13  O   UNL     1      39.873 -16.420   2.157  1.00  0.00    -0.268 OA
HETATM   14  H   UNL     1      42.296 -14.988   3.646  1.00  0.00     0.169 HD
BRANCH  12  15
HETATM   15  C   UNL     1      40.126 -14.193   2.865  1.00  0.00     0.007 C 
HETATM   16  C   UNL     1      39.799 -13.859   4.288  1.00  0.00     0.054 C 
HETATM   17  C   UNL     1      39.962 -13.325   1.848  1.00  0.00     0.023 C 
BRANCH  17  18
HETATM   18  C   UNL     1      40.171 -13.576   0.414  1.00  0.00    -0.034 A 
HETATM   19  C   UNL     1      39.062 -13.859  -0.393  1.00  0.00     0.035 A 
HETATM   20  C   UNL     1      39.236 -14.138  -1.750  1.00  0.00     0.034 A 
HETATM   21 CL   UNL     1      37.865 -14.477  -2.732  1.00  0.00    -0.084 Cl
HETATM   22  C   UNL     1      40.510 -14.148  -2.315  1.00  0.00     0.024 A 
HETATM   23  C   UNL     1      41.619 -13.886  -1.515  1.00  0.00     0.003 A 
HETATM   24  C   UNL     1      41.451 -13.611  -0.155  1.00  0.00     0.011 A 
ENDBRANCH  17  18
ENDBRANCH  12  15
ENDBRANCH   1  11
BRANCH   8  25
HETATM   25  C   UNL     1      44.028 -20.069   6.395  1.00  0.00     0.270 C 
HETATM   26  N   UNL     1      44.358 -18.953   7.114  1.00  0.00    -0.365 N 
HETATM   27  H   UNL     1      44.722 -18.148   6.619  1.00  0.00     0.159 HD
HETATM   28  H   UNL     1      44.271 -18.963   8.117  1.00  0.00     0.159 HD
HETATM   29  O   UNL     1      43.610 -21.080   6.950  1.00  0.00    -0.266 OA
ENDBRANCH   8  25
TORSDOF 4
ENDMDL
