MODEL 1
REMARK VINA RESULT:      -8.3      0.000      0.000
REMARK  6 active torsions:
REMARK  status: ('A' for Active; 'I' for Inactive)
REMARK    1  A    between atoms: O_2  and  C_3 
REMARK    2  A    between atoms: C_3  and  C_4 
REMARK    3  A    between atoms: C_4  and  N_5 
REMARK       I    between atoms: N_5  and  C_6 
REMARK    4  A    between atoms: C_6  and  C_7 
REMARK    5  A    between atoms: C_12  and  C_13 
REMARK    6  A    between atoms: C_20  and  C_21 
ROOT
HETATM    1  C   UNL     1      42.443 -14.145   5.309  1.00  0.00     0.165 A 
HETATM    2  N   UNL     1      43.263 -14.701   6.238  1.00  0.00    -0.163 NA
HETATM    3  N   UNL     1      43.364 -15.983   5.852  1.00  0.00    -0.238 N 
HETATM    4  C   UNL     1      42.699 -16.277   4.693  1.00  0.00     0.141 A 
HETATM    5  N   UNL     1      42.758 -17.515   4.146  1.00  0.00    -0.365 N 
HETATM    6  C   UNL     1      43.339 -18.633   4.885  1.00  0.00     0.118 C 
HETATM    7  C   UNL     1      44.538 -18.131   5.711  1.00  0.00     0.066 C 
HETATM    8  C   UNL     1      44.139 -16.947   6.612  1.00  0.00     0.221 C 
HETATM    9  C   UNL     1      42.085 -15.106   4.328  1.00  0.00     0.092 A 
HETATM   10 BR   UNL     1      40.999 -14.845   2.824  1.00  0.00    -0.044 Br
HETATM   11  H   UNL     1      42.110 -17.775   3.401  1.00  0.00     0.162 HD
ENDROOT
BRANCH   1  12
HETATM   12  C   UNL     1      42.051 -12.728   5.408  1.00  0.00     0.273 C 
HETATM   13  N   UNL     1      41.796 -12.326   6.702  1.00  0.00    -0.353 N 
HETATM   14  H   UNL     1      42.060 -12.990   7.428  1.00  0.00     0.162 HD
HETATM   15  O   UNL     1      41.957 -11.973   4.446  1.00  0.00    -0.266 OA
BRANCH  13  16
HETATM   16  C   UNL     1      41.582 -10.943   7.068  1.00  0.00     0.149 C 
BRANCH  16  17
HETATM   17  C   UNL     1      42.096 -10.652   8.476  1.00  0.00     0.186 C 
BRANCH  17  18
HETATM   18  O   UNL     1      43.483 -11.001   8.552  1.00  0.00    -0.394 OA
HETATM   19  C   UNL     1      43.858 -11.360   9.876  1.00  0.00     0.201 C 
ENDBRANCH  17  18
ENDBRANCH  16  17
ENDBRANCH  13  16
ENDBRANCH   1  12
BRANCH   8  20
HETATM   20  C   UNL     1      43.353 -17.395   7.825  1.00  0.00     0.409 C 
HETATM   21  F   UNL     1      42.024 -17.471   7.597  1.00  0.00    -0.169 F 
HETATM   22  F   UNL     1      43.753 -18.637   8.202  1.00  0.00    -0.169 F 
HETATM   23  F   UNL     1      43.540 -16.592   8.896  1.00  0.00    -0.169 F 
ENDBRANCH   8  20
BRANCH   6  24
HETATM   24  C   UNL     1      43.763 -19.738   3.936  1.00  0.00    -0.035 A 
HETATM   25  C   UNL     1      44.500 -20.849   4.379  1.00  0.00     0.009 A 
HETATM   26  C   UNL     1      44.859 -21.865   3.492  1.00  0.00     0.001 A 
HETATM   27  C   UNL     1      44.478 -21.790   2.153  1.00  0.00     0.000 A 
HETATM   28  C   UNL     1      43.739 -20.699   1.701  1.00  0.00     0.001 A 
HETATM   29  C   UNL     1      43.382 -19.681   2.586  1.00  0.00     0.009 A 
ENDBRANCH   6  24
TORSDOF 6
ENDMDL
MODEL 2
REMARK VINA RESULT:      -8.1      1.182      2.049
REMARK  6 active torsions:
REMARK  status: ('A' for Active; 'I' for Inactive)
REMARK    1  A    between atoms: O_2  and  C_3 
REMARK    2  A    between atoms: C_3  and  C_4 
REMARK    3  A    between atoms: C_4  and  N_5 
REMARK       I    between atoms: N_5  and  C_6 
REMARK    4  A    between atoms: C_6  and  C_7 
REMARK    5  A    between atoms: C_12  and  C_13 
REMARK    6  A    between atoms: C_20  and  C_21 
ROOT
HETATM    1  C   UNL     1      42.358 -14.133   5.285  1.00  0.00     0.165 A 
HETATM    2  N   UNL     1      43.195 -14.685   6.201  1.00  0.00    -0.163 NA
HETATM    3  N   UNL     1      43.297 -15.967   5.812  1.00  0.00    -0.238 N 
HETATM    4  C   UNL     1      42.616 -16.263   4.663  1.00  0.00     0.141 A 
HETATM    5  N   UNL     1      42.674 -17.500   4.113  1.00  0.00    -0.365 N 
HETATM    6  C   UNL     1      43.273 -18.615   4.843  1.00  0.00     0.118 C 
HETATM    7  C   UNL     1      44.481 -18.107   5.651  1.00  0.00     0.066 C 
HETATM    8  C   UNL     1      44.089 -16.927   6.559  1.00  0.00     0.221 C 
HETATM    9  C   UNL     1      41.990 -15.095   4.309  1.00  0.00     0.092 A 
HETATM   10 BR   UNL     1      40.880 -14.839   2.821  1.00  0.00    -0.044 Br
HETATM   11  H   UNL     1      42.016 -17.763   3.378  1.00  0.00     0.162 HD
ENDROOT
BRANCH   1  12
HETATM   12  C   UNL     1      41.959 -12.718   5.391  1.00  0.00     0.273 C 
HETATM   13  N   UNL     1      41.538 -12.369   6.656  1.00  0.00    -0.353 N 
HETATM   14  H   UNL     1      41.702 -13.064   7.382  1.00  0.00     0.162 HD
HETATM   15  O   UNL     1      41.994 -11.923   4.457  1.00  0.00    -0.266 OA
BRANCH  13  16
HETATM   16  C   UNL     1      41.281 -11.000   7.049  1.00  0.00     0.149 C 
BRANCH  16  17
HETATM   17  C   UNL     1      39.822 -10.800   7.453  1.00  0.00     0.186 C 
BRANCH  17  18
HETATM   18  O   UNL     1      38.993 -10.918   6.292  1.00  0.00    -0.394 OA
HETATM   19  C   UNL     1      39.216  -9.847   5.382  1.00  0.00     0.201 C 
ENDBRANCH  17  18
ENDBRANCH  16  17
ENDBRANCH  13  16
ENDBRANCH   1  12
BRANCH   8  20
HETATM   20  C   UNL     1      43.324 -17.380   7.784  1.00  0.00     0.409 C 
HETATM   21  F   UNL     1      43.701 -18.600   8.223  1.00  0.00    -0.169 F 
HETATM   22  F   UNL     1      43.542 -16.516   8.810  1.00  0.00    -0.169 F 
HETATM   23  F   UNL     1      41.988 -17.410   7.586  1.00  0.00    -0.169 F 
ENDBRANCH   8  20
BRANCH   6  24
HETATM   24  C   UNL     1      43.688 -19.717   3.886  1.00  0.00    -0.035 A 
HETATM   25  C   UNL     1      43.348 -19.679   2.524  1.00  0.00     0.009 A 
HETATM   26  C   UNL     1      43.761 -20.693   1.658  1.00  0.00     0.001 A 
HETATM   27  C   UNL     1      44.527 -21.754   2.139  1.00  0.00     0.000 A 
HETATM   28  C   UNL     1      44.880 -21.801   3.486  1.00  0.00     0.001 A 
HETATM   29  C   UNL     1      44.465 -20.789   4.354  1.00  0.00     0.009 A 
ENDBRANCH   6  24
TORSDOF 6
ENDMDL
MODEL 3
REMARK VINA RESULT:      -8.0      3.212      4.170
REMARK  6 active torsions:
REMARK  status: ('A' for Active; 'I' for Inactive)
REMARK    1  A    between atoms: O_2  and  C_3 
REMARK    2  A    between atoms: C_3  and  C_4 
REMARK    3  A    between atoms: C_4  and  N_5 
REMARK       I    between atoms: N_5  and  C_6 
REMARK    4  A    between atoms: C_6  and  C_7 
REMARK    5  A    between atoms: C_12  and  C_13 
REMARK    6  A    between atoms: C_20  and  C_21 
ROOT
HETATM    1  C   UNL     1      42.203 -14.992   5.092  1.00  0.00     0.165 A 
HETATM    2  N   UNL     1      41.792 -15.400   3.864  1.00  0.00    -0.163 NA
HETATM    3  N   UNL     1      42.457 -16.549   3.666  1.00  0.00    -0.238 N 
HETATM    4  C   UNL     1      43.236 -16.938   4.722  1.00  0.00     0.141 A 
HETATM    5  N   UNL     1      43.920 -18.107   4.695  1.00  0.00    -0.365 N 
HETATM    6  C   UNL     1      44.034 -18.879   3.460  1.00  0.00     0.118 C 
HETATM    7  C   UNL     1      42.718 -18.773   2.668  1.00  0.00     0.066 C 
HETATM    8  C   UNL     1      42.324 -17.303   2.433  1.00  0.00     0.221 C 
HETATM    9  C   UNL     1      43.097 -15.940   5.653  1.00  0.00     0.092 A 
HETATM   10 BR   UNL     1      43.928 -15.867   7.331  1.00  0.00    -0.044 Br
HETATM   11  H   UNL     1      44.642 -18.292   5.393  1.00  0.00     0.162 HD
ENDROOT
BRANCH   1  12
HETATM   12  C   UNL     1      41.716 -13.723   5.662  1.00  0.00     0.273 C 
HETATM   13  N   UNL     1      40.342 -13.617   5.651  1.00  0.00    -0.353 N 
HETATM   14  H   UNL     1      39.837 -14.468   5.409  1.00  0.00     0.162 HD
HETATM   15  O   UNL     1      42.449 -12.845   6.105  1.00  0.00    -0.266 OA
BRANCH  13  16
HETATM   16  C   UNL     1      39.630 -12.554   6.327  1.00  0.00     0.149 C 
BRANCH  16  17
HETATM   17  C   UNL     1      39.496 -11.319   5.438  1.00  0.00     0.186 C 
BRANCH  17  18
HETATM   18  O   UNL     1      38.221 -11.345   4.788  1.00  0.00    -0.394 OA
HETATM   19  C   UNL     1      38.227 -10.564   3.599  1.00  0.00     0.201 C 
ENDBRANCH  17  18
ENDBRANCH  16  17
ENDBRANCH  13  16
ENDBRANCH   1  12
BRANCH   8  20
HETATM   20  C   UNL     1      43.154 -16.658   1.345  1.00  0.00     0.409 C 
HETATM   21  F   UNL     1      44.264 -16.049   1.816  1.00  0.00    -0.169 F 
HETATM   22  F   UNL     1      43.576 -17.603   0.464  1.00  0.00    -0.169 F 
HETATM   23  F   UNL     1      42.461 -15.748   0.626  1.00  0.00    -0.169 F 
ENDBRANCH   8  20
BRANCH   6  24
HETATM   24  C   UNL     1      44.366 -20.328   3.764  1.00  0.00    -0.035 A 
HETATM   25  C   UNL     1      44.653 -20.761   5.069  1.00  0.00     0.009 A 
HETATM   26  C   UNL     1      44.933 -22.104   5.329  1.00  0.00     0.001 A 
HETATM   27  C   UNL     1      44.922 -23.033   4.290  1.00  0.00     0.000 A 
HETATM   28  C   UNL     1      44.630 -22.620   2.992  1.00  0.00     0.001 A 
HETATM   29  C   UNL     1      44.352 -21.277   2.730  1.00  0.00     0.009 A 
ENDBRANCH   6  24
TORSDOF 6
ENDMDL
MODEL 4
REMARK VINA RESULT:      -7.8      3.165      3.983
REMARK  6 active torsions:
REMARK  status: ('A' for Active; 'I' for Inactive)
REMARK    1  A    between atoms: O_2  and  C_3 
REMARK    2  A    between atoms: C_3  and  C_4 
REMARK    3  A    between atoms: C_4  and  N_5 
REMARK       I    between atoms: N_5  and  C_6 
REMARK    4  A    between atoms: C_6  and  C_7 
REMARK    5  A    between atoms: C_12  and  C_13 
REMARK    6  A    between atoms: C_20  and  C_21 
ROOT
HETATM    1  C   UNL     1      41.305 -14.592   4.865  1.00  0.00     0.165 A 
HETATM    2  N   UNL     1      40.683 -14.980   3.722  1.00  0.00    -0.163 NA
HETATM    3  N   UNL     1      41.396 -16.041   3.311  1.00  0.00    -0.238 N 
HETATM    4  C   UNL     1      42.413 -16.397   4.154  1.00  0.00     0.141 A 
HETATM    5  N   UNL     1      43.182 -17.485   3.904  1.00  0.00    -0.365 N 
HETATM    6  C   UNL     1      43.104 -18.177   2.621  1.00  0.00     0.118 C 
HETATM    7  C   UNL     1      41.646 -18.173   2.126  1.00  0.00     0.066 C 
HETATM    8  C   UNL     1      41.075 -16.743   2.081  1.00  0.00     0.221 C 
HETATM    9  C   UNL     1      42.382 -15.467   5.162  1.00  0.00     0.092 A 
HETATM   10 BR   UNL     1      43.538 -15.389   6.635  1.00  0.00    -0.044 Br
HETATM   11  H   UNL     1      44.049 -17.626   4.424  1.00  0.00     0.162 HD
ENDROOT
BRANCH   1  12
HETATM   12  C   UNL     1      40.834 -13.412   5.611  1.00  0.00     0.273 C 
HETATM   13  N   UNL     1      41.713 -12.352   5.557  1.00  0.00    -0.353 N 
HETATM   14  H   UNL     1      42.480 -12.450   4.895  1.00  0.00     0.162 HD
HETATM   15  O   UNL     1      39.771 -13.366   6.222  1.00  0.00    -0.266 OA
BRANCH  13  16
HETATM   16  C   UNL     1      41.384 -11.032   6.050  1.00  0.00     0.149 C 
BRANCH  16  17
HETATM   17  C   UNL     1      41.825 -10.851   7.500  1.00  0.00     0.186 C 
BRANCH  17  18
HETATM   18  O   UNL     1      42.234  -9.494   7.701  1.00  0.00    -0.394 OA
HETATM   19  C   UNL     1      41.296  -8.580   7.146  1.00  0.00     0.201 C 
ENDBRANCH  17  18
ENDBRANCH  16  17
ENDBRANCH  13  16
ENDBRANCH   1  12
BRANCH   8  20
HETATM   20  C   UNL     1      41.593 -15.960   0.894  1.00  0.00     0.409 C 
HETATM   21  F   UNL     1      42.657 -15.184   1.195  1.00  0.00    -0.169 F 
HETATM   22  F   UNL     1      42.001 -16.815  -0.080  1.00  0.00    -0.169 F 
HETATM   23  F   UNL     1      40.652 -15.167   0.338  1.00  0.00    -0.169 F 
ENDBRANCH   8  20
BRANCH   6  24
HETATM   24  C   UNL     1      43.626 -19.596   2.747  1.00  0.00    -0.035 A 
HETATM   25  C   UNL     1      43.446 -20.543   1.725  1.00  0.00     0.009 A 
HETATM   26  C   UNL     1      43.956 -21.836   1.854  1.00  0.00     0.001 A 
HETATM   27  C   UNL     1      44.660 -22.198   3.001  1.00  0.00     0.000 A 
HETATM   28  C   UNL     1      44.856 -21.267   4.019  1.00  0.00     0.001 A 
HETATM   29  C   UNL     1      44.344 -19.974   3.893  1.00  0.00     0.009 A 
ENDBRANCH   6  24
TORSDOF 6
ENDMDL
MODEL 5
REMARK VINA RESULT:      -7.4      3.289      4.500
REMARK  6 active torsions:
REMARK  status: ('A' for Active; 'I' for Inactive)
REMARK    1  A    between atoms: O_2  and  C_3 
REMARK    2  A    between atoms: C_3  and  C_4 
REMARK    3  A    between atoms: C_4  and  N_5 
REMARK       I    between atoms: N_5  and  C_6 
REMARK    4  A    between atoms: C_6  and  C_7 
REMARK    5  A    between atoms: C_12  and  C_13 
REMARK    6  A    between atoms: C_20  and  C_21 
ROOT
HETATM    1  C   UNL     1      41.684 -13.528   2.379  1.00  0.00     0.165 A 
HETATM    2  N   UNL     1      42.115 -13.701   3.655  1.00  0.00    -0.163 NA
HETATM    3  N   UNL     1      42.331 -15.024   3.745  1.00  0.00    -0.238 N 
HETATM    4  C   UNL     1      42.117 -15.710   2.581  1.00  0.00     0.141 A 
HETATM    5  N   UNL     1      42.352 -17.042   2.500  1.00  0.00    -0.365 N 
HETATM    6  C   UNL     1      42.619 -17.829   3.701  1.00  0.00     0.118 C 
HETATM    7  C   UNL     1      43.453 -16.990   4.687  1.00  0.00     0.066 C 
HETATM    8  C   UNL     1      42.775 -15.639   4.983  1.00  0.00     0.221 C 
HETATM    9  C   UNL     1      41.686 -14.765   1.685  1.00  0.00     0.092 A 
HETATM   10 BR   UNL     1      41.207 -15.069  -0.102  1.00  0.00    -0.044 Br
HETATM   11  H   UNL     1      42.007 -17.573   1.699  1.00  0.00     0.162 HD
ENDROOT
BRANCH   1  12
HETATM   12  C   UNL     1      41.299 -12.191   1.893  1.00  0.00     0.273 C 
HETATM   13  N   UNL     1      42.259 -11.611   1.091  1.00  0.00    -0.353 N 
HETATM   14  H   UNL     1      43.022 -12.222   0.805  1.00  0.00     0.162 HD
HETATM   15  O   UNL     1      40.238 -11.641   2.167  1.00  0.00    -0.266 OA
BRANCH  13  16
HETATM   16  C   UNL     1      42.028 -10.391   0.347  1.00  0.00     0.149 C 
BRANCH  16  17
HETATM   17  C   UNL     1      42.612 -10.478  -1.062  1.00  0.00     0.186 C 
BRANCH  17  18
HETATM   18  O   UNL     1      43.281 -11.734  -1.216  1.00  0.00    -0.394 OA
HETATM   19  C   UNL     1      42.829 -12.426  -2.374  1.00  0.00     0.201 C 
ENDBRANCH  17  18
ENDBRANCH  16  17
ENDBRANCH  13  16
ENDBRANCH   1  12
BRANCH   8  20
HETATM   20  C   UNL     1      41.604 -15.786   5.931  1.00  0.00     0.409 C 
HETATM   21  F   UNL     1      40.563 -16.452   5.388  1.00  0.00    -0.169 F 
HETATM   22  F   UNL     1      41.984 -16.491   7.029  1.00  0.00    -0.169 F 
HETATM   23  F   UNL     1      41.142 -14.599   6.381  1.00  0.00    -0.169 F 
ENDBRANCH   8  20
BRANCH   6  24
HETATM   24  C   UNL     1      43.339 -19.117   3.346  1.00  0.00    -0.035 A 
HETATM   25  C   UNL     1      44.231 -19.735   4.239  1.00  0.00     0.009 A 
HETATM   26  C   UNL     1      44.863 -20.932   3.900  1.00  0.00     0.001 A 
HETATM   27  C   UNL     1      44.608 -21.532   2.668  1.00  0.00     0.000 A 
HETATM   28  C   UNL     1      43.719 -20.936   1.776  1.00  0.00     0.001 A 
HETATM   29  C   UNL     1      43.087 -19.738   2.113  1.00  0.00     0.009 A 
ENDBRANCH   6  24
TORSDOF 6
ENDMDL
MODEL 6
REMARK VINA RESULT:      -7.4      4.577      6.868
REMARK  6 active torsions:
REMARK  status: ('A' for Active; 'I' for Inactive)
REMARK    1  A    between atoms: O_2  and  C_3 
REMARK    2  A    between atoms: C_3  and  C_4 
REMARK    3  A    between atoms: C_4  and  N_5 
REMARK       I    between atoms: N_5  and  C_6 
REMARK    4  A    between atoms: C_6  and  C_7 
REMARK    5  A    between atoms: C_12  and  C_13 
REMARK    6  A    between atoms: C_20  and  C_21 
ROOT
HETATM    1  C   UNL     1      40.025 -15.332   1.815  1.00  0.00     0.165 A 
HETATM    2  N   UNL     1      40.661 -16.452   1.385  1.00  0.00    -0.163 NA
HETATM    3  N   UNL     1      41.461 -16.783   2.412  1.00  0.00    -0.238 N 
HETATM    4  C   UNL     1      41.339 -15.970   3.505  1.00  0.00     0.141 A 
HETATM    5  N   UNL     1      42.037 -16.213   4.641  1.00  0.00    -0.365 N 
HETATM    6  C   UNL     1      43.107 -17.207   4.662  1.00  0.00     0.118 C 
HETATM    7  C   UNL     1      42.719 -18.395   3.763  1.00  0.00     0.066 C 
HETATM    8  C   UNL     1      42.354 -17.925   2.343  1.00  0.00     0.221 C 
HETATM    9  C   UNL     1      40.423 -15.016   3.139  1.00  0.00     0.092 A 
HETATM   10 BR   UNL     1      39.825 -13.590   4.198  1.00  0.00    -0.044 Br
HETATM   11  H   UNL     1      42.088 -15.501   5.370  1.00  0.00     0.162 HD
ENDROOT
BRANCH   1  12
HETATM   12  C   UNL     1      39.070 -14.630   0.939  1.00  0.00     0.273 C 
HETATM   13  N   UNL     1      39.534 -14.472  -0.350  1.00  0.00    -0.353 N 
HETATM   14  H   UNL     1      40.382 -14.988  -0.578  1.00  0.00     0.162 HD
HETATM   15  O   UNL     1      37.973 -14.222   1.307  1.00  0.00    -0.266 OA
BRANCH  13  16
HETATM   16  C   UNL     1      38.703 -13.987  -1.430  1.00  0.00     0.149 C 
BRANCH  16  17
HETATM   17  C   UNL     1      39.446 -14.020  -2.764  1.00  0.00     0.186 C 
BRANCH  17  18
HETATM   18  O   UNL     1      38.502 -14.216  -3.822  1.00  0.00    -0.394 OA
HETATM   19  C   UNL     1      37.446 -15.083  -3.424  1.00  0.00     0.201 C 
ENDBRANCH  17  18
ENDBRANCH  16  17
ENDBRANCH  13  16
ENDBRANCH   1  12
BRANCH   8  20
HETATM   20  C   UNL     1      43.579 -17.570   1.528  1.00  0.00     0.409 C 
HETATM   21  F   UNL     1      44.002 -16.304   1.732  1.00  0.00    -0.169 F 
HETATM   22  F   UNL     1      44.613 -18.383   1.870  1.00  0.00    -0.169 F 
HETATM   23  F   UNL     1      43.390 -17.730   0.200  1.00  0.00    -0.169 F 
ENDBRANCH   8  20
BRANCH   6  24
HETATM   24  C   UNL     1      43.377 -17.670   6.082  1.00  0.00    -0.035 A 
HETATM   25  C   UNL     1      43.755 -18.993   6.367  1.00  0.00     0.009 A 
HETATM   26  C   UNL     1      44.021 -19.390   7.679  1.00  0.00     0.001 A 
HETATM   27  C   UNL     1      43.922 -18.470   8.721  1.00  0.00     0.000 A 
HETATM   28  C   UNL     1      43.558 -17.152   8.452  1.00  0.00     0.001 A 
HETATM   29  C   UNL     1      43.289 -16.754   7.141  1.00  0.00     0.009 A 
ENDBRANCH   6  24
TORSDOF 6
ENDMDL
MODEL 7
REMARK VINA RESULT:      -7.3      3.194      3.798
REMARK  6 active torsions:
REMARK  status: ('A' for Active; 'I' for Inactive)
REMARK    1  A    between atoms: O_2  and  C_3 
REMARK    2  A    between atoms: C_3  and  C_4 
REMARK    3  A    between atoms: C_4  and  N_5 
REMARK       I    between atoms: N_5  and  C_6 
REMARK    4  A    between atoms: C_6  and  C_7 
REMARK    5  A    between atoms: C_12  and  C_13 
REMARK    6  A    between atoms: C_20  and  C_21 
ROOT
HETATM    1  C   UNL     1      42.168 -14.035   2.111  1.00  0.00     0.165 A 
HETATM    2  N   UNL     1      42.650 -14.195   3.371  1.00  0.00    -0.163 NA
HETATM    3  N   UNL     1      42.785 -15.526   3.497  1.00  0.00    -0.238 N 
HETATM    4  C   UNL     1      42.470 -16.233   2.370  1.00  0.00     0.141 A 
HETATM    5  N   UNL     1      42.615 -17.580   2.324  1.00  0.00    -0.365 N 
HETATM    6  C   UNL     1      42.891 -18.343   3.538  1.00  0.00     0.118 C 
HETATM    7  C   UNL     1      43.825 -17.530   4.453  1.00  0.00     0.066 C 
HETATM    8  C   UNL     1      43.250 -16.129   4.733  1.00  0.00     0.221 C 
HETATM    9  C   UNL     1      42.057 -15.291   1.462  1.00  0.00     0.092 A 
HETATM   10 BR   UNL     1      41.471 -15.620  -0.288  1.00  0.00    -0.044 Br
HETATM   11  H   UNL     1      42.198 -18.112   1.559  1.00  0.00     0.162 HD
ENDROOT
BRANCH   1  12
HETATM   12  C   UNL     1      41.846 -12.692   1.597  1.00  0.00     0.273 C 
HETATM   13  N   UNL     1      40.633 -12.217   2.048  1.00  0.00    -0.353 N 
HETATM   14  H   UNL     1      40.195 -12.763   2.788  1.00  0.00     0.162 HD
HETATM   15  O   UNL     1      42.574 -12.052   0.846  1.00  0.00    -0.266 OA
BRANCH  13  16
HETATM   16  C   UNL     1      40.193 -10.855   1.835  1.00  0.00     0.149 C 
BRANCH  16  17
HETATM   17  C   UNL     1      38.699 -10.794   1.524  1.00  0.00     0.186 C 
BRANCH  17  18
HETATM   18  O   UNL     1      37.959 -11.064   2.720  1.00  0.00    -0.394 OA
HETATM   19  C   UNL     1      38.231 -10.099   3.729  1.00  0.00     0.201 C 
ENDBRANCH  17  18
ENDBRANCH  16  17
ENDBRANCH  13  16
ENDBRANCH   1  12
BRANCH   8  20
HETATM   20  C   UNL     1      42.121 -16.168   5.740  1.00  0.00     0.409 C 
HETATM   21  F   UNL     1      42.256 -17.156   6.650  1.00  0.00    -0.169 F 
HETATM   22  F   UNL     1      42.084 -15.002   6.438  1.00  0.00    -0.169 F 
HETATM   23  F   UNL     1      40.907 -16.305   5.162  1.00  0.00    -0.169 F 
ENDBRANCH   8  20
BRANCH   6  24
HETATM   24  C   UNL     1      43.509 -19.686   3.195  1.00  0.00    -0.035 A 
HETATM   25  C   UNL     1      44.350 -20.363   4.094  1.00  0.00     0.009 A 
HETATM   26  C   UNL     1      44.888 -21.609   3.765  1.00  0.00     0.001 A 
HETATM   27  C   UNL     1      44.586 -22.199   2.539  1.00  0.00     0.000 A 
HETATM   28  C   UNL     1      43.745 -21.544   1.641  1.00  0.00     0.001 A 
HETATM   29  C   UNL     1      43.209 -20.297   1.967  1.00  0.00     0.009 A 
ENDBRANCH   6  24
TORSDOF 6
ENDMDL
MODEL 8
REMARK VINA RESULT:      -7.3      4.612      8.074
REMARK  6 active torsions:
REMARK  status: ('A' for Active; 'I' for Inactive)
REMARK    1  A    between atoms: O_2  and  C_3 
REMARK    2  A    between atoms: C_3  and  C_4 
REMARK    3  A    between atoms: C_4  and  N_5 
REMARK       I    between atoms: N_5  and  C_6 
REMARK    4  A    between atoms: C_6  and  C_7 
REMARK    5  A    between atoms: C_12  and  C_13 
REMARK    6  A    between atoms: C_20  and  C_21 
ROOT
HETATM    1  C   UNL     1      42.814 -17.066   4.471  1.00  0.00     0.165 A 
HETATM    2  N   UNL     1      43.214 -16.765   3.209  1.00  0.00    -0.163 NA
HETATM    3  N   UNL     1      42.180 -16.075   2.700  1.00  0.00    -0.238 N 
HETATM    4  C   UNL     1      41.155 -15.865   3.580  1.00  0.00     0.141 A 
HETATM    5  N   UNL     1      40.069 -15.133   3.230  1.00  0.00    -0.365 N 
HETATM    6  C   UNL     1      39.850 -14.738   1.841  1.00  0.00     0.118 C 
HETATM    7  C   UNL     1      41.203 -14.417   1.181  1.00  0.00     0.066 C 
HETATM    8  C   UNL     1      42.190 -15.589   1.332  1.00  0.00     0.221 C 
HETATM    9  C   UNL     1      41.536 -16.507   4.731  1.00  0.00     0.092 A 
HETATM   10 BR   UNL     1      40.552 -16.608   6.323  1.00  0.00    -0.044 Br
HETATM   11  H   UNL     1      39.234 -15.148   3.817  1.00  0.00     0.162 HD
ENDROOT
BRANCH   1  12
HETATM   12  C   UNL     1      43.676 -17.866   5.359  1.00  0.00     0.273 C 
HETATM   13  N   UNL     1      43.500 -19.224   5.202  1.00  0.00    -0.353 N 
HETATM   14  H   UNL     1      42.935 -19.505   4.403  1.00  0.00     0.162 HD
HETATM   15  O   UNL     1      44.471 -17.385   6.159  1.00  0.00    -0.266 OA
BRANCH  13  16
HETATM   16  C   UNL     1      44.364 -20.206   5.823  1.00  0.00     0.149 C 
BRANCH  16  17
HETATM   17  C   UNL     1      45.111 -21.031   4.778  1.00  0.00     0.186 C 
BRANCH  17  18
HETATM   18  O   UNL     1      44.580 -20.740   3.481  1.00  0.00    -0.394 OA
HETATM   19  C   UNL     1      44.388 -21.925   2.718  1.00  0.00     0.201 C 
ENDBRANCH  17  18
ENDBRANCH  16  17
ENDBRANCH  13  16
ENDBRANCH   1  12
BRANCH   8  20
HETATM   20  C   UNL     1      41.876 -16.724   0.382  1.00  0.00     0.409 C 
HETATM   21  F   UNL     1      41.388 -16.302  -0.805  1.00  0.00    -0.169 F 
HETATM   22  F   UNL     1      43.008 -17.424   0.108  1.00  0.00    -0.169 F 
HETATM   23  F   UNL     1      40.994 -17.609   0.896  1.00  0.00    -0.169 F 
ENDBRANCH   8  20
BRANCH   6  24
HETATM   24  C   UNL     1      38.915 -13.545   1.766  1.00  0.00    -0.035 A 
HETATM   25  C   UNL     1      39.055 -12.443   2.627  1.00  0.00     0.009 A 
HETATM   26  C   UNL     1      38.198 -11.346   2.524  1.00  0.00     0.001 A 
HETATM   27  C   UNL     1      37.196 -11.331   1.556  1.00  0.00     0.000 A 
HETATM   28  C   UNL     1      37.051 -12.412   0.688  1.00  0.00     0.001 A 
HETATM   29  C   UNL     1      37.906 -13.511   0.792  1.00  0.00     0.009 A 
ENDBRANCH   6  24
TORSDOF 6
ENDMDL
MODEL 9
REMARK VINA RESULT:      -7.3      3.901      5.293
REMARK  6 active torsions:
REMARK  status: ('A' for Active; 'I' for Inactive)
REMARK    1  A    between atoms: O_2  and  C_3 
REMARK    2  A    between atoms: C_3  and  C_4 
REMARK    3  A    between atoms: C_4  and  N_5 
REMARK       I    between atoms: N_5  and  C_6 
REMARK    4  A    between atoms: C_6  and  C_7 
REMARK    5  A    between atoms: C_12  and  C_13 
REMARK    6  A    between atoms: C_20  and  C_21 
ROOT
HETATM    1  C   UNL     1      41.990 -13.738   1.275  1.00  0.00     0.165 A 
HETATM    2  N   UNL     1      42.477 -13.745   2.543  1.00  0.00    -0.163 NA
HETATM    3  N   UNL     1      42.607 -15.050   2.830  1.00  0.00    -0.238 N 
HETATM    4  C   UNL     1      42.284 -15.889   1.800  1.00  0.00     0.141 A 
HETATM    5  N   UNL     1      42.423 -17.232   1.919  1.00  0.00    -0.365 N 
HETATM    6  C   UNL     1      42.701 -17.842   3.217  1.00  0.00     0.118 C 
HETATM    7  C   UNL     1      43.642 -16.927   4.021  1.00  0.00     0.066 C 
HETATM    8  C   UNL     1      43.074 -15.499   4.129  1.00  0.00     0.221 C 
HETATM    9  C   UNL     1      41.870 -15.064   0.785  1.00  0.00     0.092 A 
HETATM   10 BR   UNL     1      41.275 -15.602  -0.909  1.00  0.00    -0.044 Br
HETATM   11  H   UNL     1      41.999 -17.852   1.227  1.00  0.00     0.162 HD
ENDROOT
BRANCH   1  12
HETATM   12  C   UNL     1      41.671 -12.467   0.601  1.00  0.00     0.273 C 
HETATM   13  N   UNL     1      40.319 -12.280   0.412  1.00  0.00    -0.353 N 
HETATM   14  H   UNL     1      39.712 -12.943   0.891  1.00  0.00     0.162 HD
HETATM   15  O   UNL     1      42.513 -11.651   0.242  1.00  0.00    -0.266 OA
BRANCH  13  16
HETATM   16  C   UNL     1      39.755 -11.030  -0.052  1.00  0.00     0.149 C 
BRANCH  16  17
HETATM   17  C   UNL     1      39.545 -11.040  -1.564  1.00  0.00     0.186 C 
BRANCH  17  18
HETATM   18  O   UNL     1      38.923 -12.272  -1.944  1.00  0.00    -0.394 OA
HETATM   19  C   UNL     1      37.504 -12.166  -1.921  1.00  0.00     0.201 C 
ENDBRANCH  17  18
ENDBRANCH  16  17
ENDBRANCH  13  16
ENDBRANCH   1  12
BRANCH   8  20
HETATM   20  C   UNL     1      41.950 -15.409   5.138  1.00  0.00     0.409 C 
HETATM   21  F   UNL     1      42.038 -16.339   6.114  1.00  0.00    -0.169 F 
HETATM   22  F   UNL     1      41.978 -14.198   5.754  1.00  0.00    -0.169 F 
HETATM   23  F   UNL     1      40.728 -15.522   4.573  1.00  0.00    -0.169 F 
ENDBRANCH   8  20
BRANCH   6  24
HETATM   24  C   UNL     1      43.311 -19.220   3.039  1.00  0.00    -0.035 A 
HETATM   25  C   UNL     1      43.063 -19.995   1.893  1.00  0.00     0.009 A 
HETATM   26  C   UNL     1      43.654 -21.251   1.741  1.00  0.00     0.001 A 
HETATM   27  C   UNL     1      44.507 -21.745   2.726  1.00  0.00     0.000 A 
HETATM   28  C   UNL     1      44.771 -20.984   3.863  1.00  0.00     0.001 A 
HETATM   29  C   UNL     1      44.178 -19.730   4.018  1.00  0.00     0.009 A 
ENDBRANCH   6  24
TORSDOF 6
ENDMDL
MODEL 10
REMARK VINA RESULT:      -7.2      4.238      5.529
REMARK  6 active torsions:
REMARK  status: ('A' for Active; 'I' for Inactive)
REMARK    1  A    between atoms: O_2  and  C_3 
REMARK    2  A    between atoms: C_3  and  C_4 
REMARK    3  A    between atoms: C_4  and  N_5 
REMARK       I    between atoms: N_5  and  C_6 
REMARK    4  A    between atoms: C_6  and  C_7 
REMARK    5  A    between atoms: C_12  and  C_13 
REMARK    6  A    between atoms: C_20  and  C_21 
ROOT
HETATM    1  C   UNL     1      40.184 -13.684   3.917  1.00  0.00     0.165 A 
HETATM    2  N   UNL     1      39.737 -14.340   2.815  1.00  0.00    -0.163 NA
HETATM    3  N   UNL     1      40.634 -15.325   2.641  1.00  0.00    -0.238 N 
HETATM    4  C   UNL     1      41.607 -15.376   3.600  1.00  0.00     0.141 A 
HETATM    5  N   UNL     1      42.548 -16.352   3.592  1.00  0.00    -0.365 N 
HETATM    6  C   UNL     1      42.693 -17.241   2.442  1.00  0.00     0.118 C 
HETATM    7  C   UNL     1      41.304 -17.548   1.854  1.00  0.00     0.066 C 
HETATM    8  C   UNL     1      40.537 -16.252   1.528  1.00  0.00     0.221 C 
HETATM    9  C   UNL     1      41.345 -14.317   4.431  1.00  0.00     0.092 A 
HETATM   10 BR   UNL     1      42.333 -13.826   5.946  1.00  0.00    -0.044 Br
HETATM   11  H   UNL     1      43.373 -16.270   4.187  1.00  0.00     0.162 HD
ENDROOT
BRANCH   1  12
HETATM   12  C   UNL     1      39.477 -12.492   4.419  1.00  0.00     0.273 C 
HETATM   13  N   UNL     1      39.206 -11.570   3.431  1.00  0.00    -0.353 N 
HETATM   14  H   UNL     1      39.374 -11.884   2.477  1.00  0.00     0.162 HD
HETATM   15  O   UNL     1      39.157 -12.327   5.591  1.00  0.00    -0.266 OA
BRANCH  13  16
HETATM   16  C   UNL     1      38.357 -10.417   3.644  1.00  0.00     0.149 C 
BRANCH  16  17
HETATM   17  C   UNL     1      37.418 -10.188   2.462  1.00  0.00     0.186 C 
BRANCH  17  18
HETATM   18  O   UNL     1      37.357 -11.382   1.674  1.00  0.00    -0.394 OA
HETATM   19  C   UNL     1      36.286 -11.333   0.738  1.00  0.00     0.201 C 
ENDBRANCH  17  18
ENDBRANCH  16  17
ENDBRANCH  13  16
ENDBRANCH   1  12
BRANCH   8  20
HETATM   20  C   UNL     1      41.044 -15.592   0.265  1.00  0.00     0.409 C 
HETATM   21  F   UNL     1      42.080 -14.754   0.484  1.00  0.00    -0.169 F 
HETATM   22  F   UNL     1      41.489 -16.538  -0.604  1.00  0.00    -0.169 F 
HETATM   23  F   UNL     1      40.085 -14.898  -0.386  1.00  0.00    -0.169 F 
ENDBRANCH   8  20
BRANCH   6  24
HETATM   24  C   UNL     1      43.404 -18.520   2.842  1.00  0.00    -0.035 A 
HETATM   25  C   UNL     1      43.581 -19.581   1.938  1.00  0.00     0.009 A 
HETATM   26  C   UNL     1      44.259 -20.739   2.322  1.00  0.00     0.001 A 
HETATM   27  C   UNL     1      44.776 -20.850   3.611  1.00  0.00     0.000 A 
HETATM   28  C   UNL     1      44.617 -19.803   4.516  1.00  0.00     0.001 A 
HETATM   29  C   UNL     1      43.937 -18.645   4.135  1.00  0.00     0.009 A 
ENDBRANCH   6  24
TORSDOF 6
ENDMDL
