MODEL 1
REMARK VINA RESULT:      -9.6      0.000      0.000
REMARK  5 active torsions:
REMARK  status: ('A' for Active; 'I' for Inactive)
REMARK    1  A    between atoms: C_7  and  N_8 
REMARK       I    between atoms: N_8  and  C_9 
REMARK       I    between atoms: C_9  and  N_10 
REMARK    2  A    between atoms: N_10  and  C_11 
REMARK    3  A    between atoms: C_18  and  C_19 
REMARK       I    between atoms: C_19  and  N_20 
REMARK    4  A    between atoms: N_20  and  C_21 
REMARK    5  A    between atoms: C_21  and  C_22 
ROOT
HETATM    1  C   UNL     1      43.183 -14.397   5.605  1.00  0.00     0.104 C 
HETATM    2  C   UNL     1      41.989 -14.979   6.409  1.00  0.00     0.150 C 
HETATM    3  N   UNL     1      41.820 -16.411   6.185  1.00  0.00    -0.354 N 
HETATM    4  C   UNL     1      42.384 -17.297   7.193  1.00  0.00     0.152 C 
HETATM    5  C   UNL     1      41.244 -16.949   5.052  1.00  0.00     0.220 C 
HETATM    6  O   UNL     1      41.183 -18.165   4.847  1.00  0.00    -0.273 OA
HETATM    7  C   UNL     1      40.699 -16.013   3.991  1.00  0.00     0.117 C 
HETATM    8  C   UNL     1      41.612 -15.678   2.800  1.00  0.00     0.086 C 
HETATM    9  C   UNL     1      41.726 -14.144   2.574  1.00  0.00     0.014 C 
HETATM   10  C   UNL     1      42.801 -13.308   3.289  1.00  0.00     0.003 C 
HETATM   11  C   UNL     1      42.732 -13.152   4.813  1.00  0.00     0.027 C 
ENDROOT
BRANCH   1  12
HETATM   12  N   UNL     1      44.295 -14.120   6.528  1.00  0.00    -0.337 N 
HETATM   13  C   UNL     1      44.467 -13.198   7.513  1.00  0.00     0.321 C 
HETATM   14  N   UNL     1      43.401 -12.408   7.803  1.00  0.00    -0.305 N 
HETATM   15  O   UNL     1      45.559 -13.195   8.068  1.00  0.00    -0.247 OA
HETATM   16  H   UNL     1      42.664 -12.362   7.119  1.00  0.00     0.171 HD
HETATM   17  H   UNL     1      45.165 -14.625   6.393  1.00  0.00     0.164 HD
BRANCH  14  18
HETATM   18  C   UNL     1      43.252 -11.574   8.907  1.00  0.00     0.094 A 
HETATM   19  C   UNL     1      42.494 -10.363   8.923  1.00  0.00     0.087 A 
HETATM   20  C   UNL     1      41.716  -9.743   7.827  1.00  0.00     0.075 C 
HETATM   21  N   UNL     1      42.507  -9.787  10.129  1.00  0.00    -0.131 NA
HETATM   22  O   UNL     1      43.273 -10.609  10.924  1.00  0.00    -0.216 OA
HETATM   23  C   UNL     1      43.713 -11.680  10.204  1.00  0.00     0.103 A 
HETATM   24  C   UNL     1      44.534 -12.628  10.981  1.00  0.00     0.081 C 
ENDBRANCH  14  18
ENDBRANCH   1  12
BRANCH   8  25
HETATM   25  C   UNL     1      42.951 -16.413   2.628  1.00  0.00     0.222 C 
HETATM   26  N   UNL     1      42.880 -17.728   2.243  1.00  0.00    -0.356 N 
HETATM   27  H   UNL     1      42.001 -18.237   2.313  1.00  0.00     0.162 HD
HETATM   28  O   UNL     1      44.029 -15.828   2.730  1.00  0.00    -0.273 OA
BRANCH  26  29
HETATM   29  C   UNL     1      44.063 -18.525   2.005  1.00  0.00     0.161 C 
BRANCH  29  30
HETATM   30  C   UNL     1      44.288 -19.561   3.075  1.00  0.00    -0.035 A 
HETATM   31  C   UNL     1      44.454 -20.915   2.752  1.00  0.00     0.051 A 
HETATM   32  C   UNL     1      44.646 -21.855   3.765  1.00  0.00     0.119 A 
HETATM   33  F   UNL     1      44.796 -23.145   3.440  1.00  0.00    -0.206 F 
HETATM   34  C   UNL     1      44.674 -21.481   5.101  1.00  0.00     0.084 A 
HETATM   35  C   UNL     1      44.504 -20.142   5.421  1.00  0.00     0.119 A 
HETATM   36  F   UNL     1      44.526 -19.760   6.703  1.00  0.00    -0.206 F 
HETATM   37  C   UNL     1      44.309 -19.186   4.427  1.00  0.00     0.051 A 
ENDBRANCH  29  30
ENDBRANCH  26  29
ENDBRANCH   8  25
TORSDOF 5
ENDMDL
MODEL 2
REMARK VINA RESULT:      -9.2      2.888      5.946
REMARK  5 active torsions:
REMARK  status: ('A' for Active; 'I' for Inactive)
REMARK    1  A    between atoms: C_7  and  N_8 
REMARK       I    between atoms: N_8  and  C_9 
REMARK       I    between atoms: C_9  and  N_10 
REMARK    2  A    between atoms: N_10  and  C_11 
REMARK    3  A    between atoms: C_18  and  C_19 
REMARK       I    between atoms: C_19  and  N_20 
REMARK    4  A    between atoms: N_20  and  C_21 
REMARK    5  A    between atoms: C_21  and  C_22 
ROOT
HETATM    1  C   UNL     1      41.928 -13.946   5.210  1.00  0.00     0.104 C 
HETATM    2  C   UNL     1      42.923 -13.608   6.353  1.00  0.00     0.150 C 
HETATM    3  N   UNL     1      44.112 -14.453   6.315  1.00  0.00    -0.354 N 
HETATM    4  C   UNL     1      45.295 -13.881   5.687  1.00  0.00     0.152 C 
HETATM    5  C   UNL     1      44.141 -15.760   6.756  1.00  0.00     0.220 C 
HETATM    6  O   UNL     1      45.136 -16.482   6.641  1.00  0.00    -0.273 OA
HETATM    7  C   UNL     1      42.888 -16.355   7.369  1.00  0.00     0.117 C 
HETATM    8  C   UNL     1      41.967 -17.176   6.452  1.00  0.00     0.086 C 
HETATM    9  C   UNL     1      40.492 -16.695   6.536  1.00  0.00     0.014 C 
HETATM   10  C   UNL     1      39.961 -15.577   5.620  1.00  0.00     0.003 C 
HETATM   11  C   UNL     1      40.511 -14.156   5.786  1.00  0.00     0.027 C 
ENDROOT
BRANCH   1  12
HETATM   12  N   UNL     1      41.984 -12.884   4.194  1.00  0.00    -0.337 N 
HETATM   13  C   UNL     1      41.875 -12.899   2.837  1.00  0.00     0.321 C 
HETATM   14  N   UNL     1      41.568 -14.091   2.262  1.00  0.00    -0.305 N 
HETATM   15  O   UNL     1      42.031 -11.825   2.269  1.00  0.00    -0.247 OA
HETATM   16  H   UNL     1      41.703 -14.918   2.820  1.00  0.00     0.171 HD
HETATM   17  H   UNL     1      42.238 -11.949   4.493  1.00  0.00     0.164 HD
BRANCH  14  18
HETATM   18  C   UNL     1      41.174 -14.309   0.946  1.00  0.00     0.094 A 
HETATM   19  C   UNL     1      41.539 -15.442   0.158  1.00  0.00     0.087 A 
HETATM   20  C   UNL     1      42.375 -16.604   0.537  1.00  0.00     0.075 C 
HETATM   21  N   UNL     1      40.990 -15.397  -1.060  1.00  0.00    -0.131 NA
HETATM   22  O   UNL     1      40.256 -14.234  -1.091  1.00  0.00    -0.216 OA
HETATM   23  C   UNL     1      40.354 -13.584   0.104  1.00  0.00     0.103 A 
HETATM   24  C   UNL     1      39.584 -12.328   0.169  1.00  0.00     0.081 C 
ENDBRANCH  14  18
ENDBRANCH   1  12
BRANCH   8  25
HETATM   25  C   UNL     1      42.411 -17.511   5.019  1.00  0.00     0.222 C 
HETATM   26  N   UNL     1      43.691 -17.982   4.871  1.00  0.00    -0.356 N 
HETATM   27  H   UNL     1      44.367 -17.876   5.624  1.00  0.00     0.162 HD
HETATM   28  O   UNL     1      41.630 -17.457   4.069  1.00  0.00    -0.273 OA
BRANCH  26  29
HETATM   29  C   UNL     1      44.223 -18.374   3.584  1.00  0.00     0.161 C 
BRANCH  29  30
HETATM   30  C   UNL     1      44.369 -19.868   3.450  1.00  0.00    -0.035 A 
HETATM   31  C   UNL     1      44.099 -20.518   2.239  1.00  0.00     0.051 A 
HETATM   32  C   UNL     1      44.228 -21.905   2.147  1.00  0.00     0.119 A 
HETATM   33  F   UNL     1      43.958 -22.512   0.984  1.00  0.00    -0.206 F 
HETATM   34  C   UNL     1      44.621 -22.667   3.239  1.00  0.00     0.084 A 
HETATM   35  C   UNL     1      44.884 -22.024   4.439  1.00  0.00     0.119 A 
HETATM   36  F   UNL     1      45.262 -22.739   5.504  1.00  0.00    -0.206 F 
HETATM   37  C   UNL     1      44.760 -20.641   4.555  1.00  0.00     0.051 A 
ENDBRANCH  29  30
ENDBRANCH  26  29
ENDBRANCH   8  25
TORSDOF 5
ENDMDL
MODEL 3
REMARK VINA RESULT:      -9.2      5.465      9.352
REMARK  5 active torsions:
REMARK  status: ('A' for Active; 'I' for Inactive)
REMARK    1  A    between atoms: C_7  and  N_8 
REMARK       I    between atoms: N_8  and  C_9 
REMARK       I    between atoms: C_9  and  N_10 
REMARK    2  A    between atoms: N_10  and  C_11 
REMARK    3  A    between atoms: C_18  and  C_19 
REMARK       I    between atoms: C_19  and  N_20 
REMARK    4  A    between atoms: N_20  and  C_21 
REMARK    5  A    between atoms: C_21  and  C_22 
ROOT
HETATM    1  C   UNL     1      39.195 -10.892  -0.508  1.00  0.00     0.104 C 
HETATM    2  C   UNL     1      40.604 -10.283  -0.272  1.00  0.00     0.150 C 
HETATM    3  N   UNL     1      41.590 -11.299   0.083  1.00  0.00    -0.354 N 
HETATM    4  C   UNL     1      42.441 -11.783  -0.995  1.00  0.00     0.152 C 
HETATM    5  C   UNL     1      41.690 -11.868   1.336  1.00  0.00     0.220 C 
HETATM    6  O   UNL     1      42.478 -12.783   1.594  1.00  0.00    -0.273 OA
HETATM    7  C   UNL     1      40.767 -11.383   2.437  1.00  0.00     0.117 C 
HETATM    8  C   UNL     1      39.478 -12.183   2.690  1.00  0.00     0.086 C 
HETATM    9  C   UNL     1      38.223 -11.267   2.700  1.00  0.00     0.014 C 
HETATM   10  C   UNL     1      37.453 -10.950   1.405  1.00  0.00     0.003 C 
HETATM   11  C   UNL     1      38.141 -10.120   0.315  1.00  0.00     0.027 C 
ENDROOT
BRANCH   1  12
HETATM   12  N   UNL     1      38.908 -10.896  -1.950  1.00  0.00    -0.337 N 
HETATM   13  C   UNL     1      38.928 -11.878  -2.892  1.00  0.00     0.321 C 
HETATM   14  N   UNL     1      39.172 -13.140  -2.453  1.00  0.00    -0.305 N 
HETATM   15  O   UNL     1      38.689 -11.531  -4.043  1.00  0.00    -0.247 OA
HETATM   16  H   UNL     1      39.578 -13.237  -1.537  1.00  0.00     0.171 HD
HETATM   17  H   UNL     1      38.741 -10.005  -2.407  1.00  0.00     0.164 HD
BRANCH  14  18
HETATM   18  C   UNL     1      39.009 -14.322  -3.169  1.00  0.00     0.094 A 
HETATM   19  C   UNL     1      40.008 -15.330  -3.325  1.00  0.00     0.087 A 
HETATM   20  C   UNL     1      41.385 -15.361  -2.781  1.00  0.00     0.075 C 
HETATM   21  N   UNL     1      39.560 -16.366  -4.040  1.00  0.00    -0.131 NA
HETATM   22  O   UNL     1      38.259 -16.056  -4.364  1.00  0.00    -0.216 OA
HETATM   23  C   UNL     1      37.921 -14.843  -3.841  1.00  0.00     0.103 A 
HETATM   24  C   UNL     1      36.534 -14.431  -4.126  1.00  0.00     0.081 C 
ENDBRANCH  14  18
ENDBRANCH   1  12
BRANCH   8  25
HETATM   25  C   UNL     1      39.246 -13.516   1.960  1.00  0.00     0.222 C 
HETATM   26  N   UNL     1      39.952 -14.597   2.424  1.00  0.00    -0.356 N 
HETATM   27  H   UNL     1      40.751 -14.462   3.040  1.00  0.00     0.162 HD
HETATM   28  O   UNL     1      38.399 -13.630   1.075  1.00  0.00    -0.273 OA
BRANCH  26  29
HETATM   29  C   UNL     1      39.797 -15.918   1.856  1.00  0.00     0.161 C 
BRANCH  29  30
HETATM   30  C   UNL     1      40.997 -16.797   2.101  1.00  0.00    -0.035 A 
HETATM   31  C   UNL     1      41.227 -17.378   3.355  1.00  0.00     0.051 A 
HETATM   32  C   UNL     1      42.354 -18.175   3.558  1.00  0.00     0.119 A 
HETATM   33  F   UNL     1      42.563 -18.717   4.765  1.00  0.00    -0.206 F 
HETATM   34  C   UNL     1      43.265 -18.409   2.538  1.00  0.00     0.084 A 
HETATM   35  C   UNL     1      43.041 -17.829   1.299  1.00  0.00     0.119 A 
HETATM   36  F   UNL     1      43.908 -18.041   0.302  1.00  0.00    -0.206 F 
HETATM   37  C   UNL     1      41.924 -17.028   1.073  1.00  0.00     0.051 A 
ENDBRANCH  29  30
ENDBRANCH  26  29
ENDBRANCH   8  25
TORSDOF 5
ENDMDL
MODEL 4
REMARK VINA RESULT:      -9.0      3.777      7.287
REMARK  5 active torsions:
REMARK  status: ('A' for Active; 'I' for Inactive)
REMARK    1  A    between atoms: C_7  and  N_8 
REMARK       I    between atoms: N_8  and  C_9 
REMARK       I    between atoms: C_9  and  N_10 
REMARK    2  A    between atoms: N_10  and  C_11 
REMARK    3  A    between atoms: C_18  and  C_19 
REMARK       I    between atoms: C_19  and  N_20 
REMARK    4  A    between atoms: N_20  and  C_21 
REMARK    5  A    between atoms: C_21  and  C_22 
ROOT
HETATM    1  C   UNL     1      40.309 -14.094   2.935  1.00  0.00     0.104 C 
HETATM    2  C   UNL     1      41.311 -13.895   1.765  1.00  0.00     0.150 C 
HETATM    3  N   UNL     1      42.284 -14.980   1.684  1.00  0.00    -0.354 N 
HETATM    4  C   UNL     1      42.008 -16.028   0.712  1.00  0.00     0.152 C 
HETATM    5  C   UNL     1      43.375 -15.098   2.521  1.00  0.00     0.220 C 
HETATM    6  O   UNL     1      44.141 -16.066   2.487  1.00  0.00    -0.273 OA
HETATM    7  C   UNL     1      43.625 -14.019   3.557  1.00  0.00     0.117 C 
HETATM    8  C   UNL     1      43.096 -14.261   4.980  1.00  0.00     0.086 C 
HETATM    9  C   UNL     1      42.250 -13.063   5.494  1.00  0.00     0.014 C 
HETATM   10  C   UNL     1      40.736 -12.983   5.233  1.00  0.00     0.003 C 
HETATM   11  C   UNL     1      40.236 -12.813   3.793  1.00  0.00     0.027 C 
ENDROOT
BRANCH   1  12
HETATM   12  N   UNL     1      39.004 -14.495   2.388  1.00  0.00    -0.337 N 
HETATM   13  C   UNL     1      38.403 -14.282   1.186  1.00  0.00     0.321 C 
HETATM   14  N   UNL     1      39.145 -13.655   0.235  1.00  0.00    -0.305 N 
HETATM   15  O   UNL     1      37.261 -14.709   1.067  1.00  0.00    -0.247 OA
HETATM   16  H   UNL     1      39.964 -13.159   0.545  1.00  0.00     0.171 HD
HETATM   17  H   UNL     1      38.342 -14.944   3.012  1.00  0.00     0.164 HD
BRANCH  14  18
HETATM   18  C   UNL     1      38.846 -13.541  -1.119  1.00  0.00     0.094 A 
HETATM   19  C   UNL     1      37.877 -12.651  -1.673  1.00  0.00     0.087 A 
HETATM   20  C   UNL     1      37.007 -11.678  -0.974  1.00  0.00     0.075 C 
HETATM   21  N   UNL     1      37.826 -12.740  -3.005  1.00  0.00    -0.131 NA
HETATM   22  O   UNL     1      38.762 -13.688  -3.348  1.00  0.00    -0.216 OA
HETATM   23  C   UNL     1      39.380 -14.164  -2.230  1.00  0.00     0.103 A 
HETATM   24  C   UNL     1      40.414 -15.180  -2.502  1.00  0.00     0.081 C 
ENDBRANCH  14  18
ENDBRANCH   1  12
BRANCH   8  25
HETATM   25  C   UNL     1      42.496 -15.626   5.354  1.00  0.00     0.222 C 
HETATM   26  N   UNL     1      43.378 -16.671   5.468  1.00  0.00    -0.356 N 
HETATM   27  H   UNL     1      44.319 -16.592   5.087  1.00  0.00     0.162 HD
HETATM   28  O   UNL     1      41.305 -15.755   5.635  1.00  0.00    -0.273 OA
BRANCH  26  29
HETATM   29  C   UNL     1      42.954 -17.998   5.854  1.00  0.00     0.161 C 
BRANCH  29  30
HETATM   30  C   UNL     1      43.539 -19.072   4.973  1.00  0.00    -0.035 A 
HETATM   31  C   UNL     1      44.303 -20.116   5.510  1.00  0.00     0.051 A 
HETATM   32  C   UNL     1      44.845 -21.088   4.669  1.00  0.00     0.119 A 
HETATM   33  F   UNL     1      45.579 -22.076   5.197  1.00  0.00    -0.206 F 
HETATM   34  C   UNL     1      44.646 -21.047   3.296  1.00  0.00     0.084 A 
HETATM   35  C   UNL     1      43.894 -20.010   2.763  1.00  0.00     0.119 A 
HETATM   36  F   UNL     1      43.691 -19.950   1.442  1.00  0.00    -0.206 F 
HETATM   37  C   UNL     1      43.345 -19.027   3.583  1.00  0.00     0.051 A 
ENDBRANCH  29  30
ENDBRANCH  26  29
ENDBRANCH   8  25
TORSDOF 5
ENDMDL
MODEL 5
REMARK VINA RESULT:      -9.0      4.267      7.236
REMARK  5 active torsions:
REMARK  status: ('A' for Active; 'I' for Inactive)
REMARK    1  A    between atoms: C_7  and  N_8 
REMARK       I    between atoms: N_8  and  C_9 
REMARK       I    between atoms: C_9  and  N_10 
REMARK    2  A    between atoms: N_10  and  C_11 
REMARK    3  A    between atoms: C_18  and  C_19 
REMARK       I    between atoms: C_19  and  N_20 
REMARK    4  A    between atoms: N_20  and  C_21 
REMARK    5  A    between atoms: C_21  and  C_22 
ROOT
HETATM    1  C   UNL     1      41.403 -12.781   1.764  1.00  0.00     0.104 C 
HETATM    2  C   UNL     1      41.548 -12.590   3.298  1.00  0.00     0.150 C 
HETATM    3  N   UNL     1      42.211 -13.725   3.933  1.00  0.00    -0.354 N 
HETATM    4  C   UNL     1      43.634 -13.576   4.205  1.00  0.00     0.152 C 
HETATM    5  C   UNL     1      41.589 -14.928   4.201  1.00  0.00     0.220 C 
HETATM    6  O   UNL     1      42.190 -15.901   4.666  1.00  0.00    -0.273 OA
HETATM    7  C   UNL     1      40.117 -15.080   3.873  1.00  0.00     0.117 C 
HETATM    8  C   UNL     1      39.750 -15.725   2.526  1.00  0.00     0.086 C 
HETATM    9  C   UNL     1      38.742 -14.855   1.725  1.00  0.00     0.014 C 
HETATM   10  C   UNL     1      39.223 -13.755   0.762  1.00  0.00     0.003 C 
HETATM   11  C   UNL     1      39.942 -12.527   1.334  1.00  0.00     0.027 C 
ENDROOT
BRANCH   1  12
HETATM   12  N   UNL     1      42.364 -11.906   1.076  1.00  0.00    -0.337 N 
HETATM   13  C   UNL     1      42.455 -11.464  -0.207  1.00  0.00     0.321 C 
HETATM   14  N   UNL     1      41.435 -11.795  -1.041  1.00  0.00    -0.305 N 
HETATM   15  O   UNL     1      43.434 -10.778  -0.477  1.00  0.00    -0.247 OA
HETATM   16  H   UNL     1      40.831 -12.547  -0.751  1.00  0.00     0.171 HD
HETATM   17  H   UNL     1      43.193 -11.615   1.584  1.00  0.00     0.164 HD
BRANCH  14  18
HETATM   18  C   UNL     1      41.183 -11.272  -2.305  1.00  0.00     0.094 A 
HETATM   19  C   UNL     1      40.948 -12.047  -3.481  1.00  0.00     0.087 A 
HETATM   20  C   UNL     1      40.910 -13.520  -3.628  1.00  0.00     0.075 C 
HETATM   21  N   UNL     1      40.707 -11.274  -4.545  1.00  0.00    -0.131 NA
HETATM   22  O   UNL     1      40.777  -9.979  -4.084  1.00  0.00    -0.216 OA
HETATM   23  C   UNL     1      41.052  -9.971  -2.748  1.00  0.00     0.103 A 
HETATM   24  C   UNL     1      41.132  -8.620  -2.160  1.00  0.00     0.081 C 
ENDBRANCH  14  18
ENDBRANCH   1  12
BRANCH   8  25
HETATM   25  C   UNL     1      40.849 -16.340   1.645  1.00  0.00     0.222 C 
HETATM   26  N   UNL     1      41.551 -17.387   2.185  1.00  0.00    -0.356 N 
HETATM   27  H   UNL     1      41.509 -17.571   3.186  1.00  0.00     0.162 HD
HETATM   28  O   UNL     1      41.023 -15.980   0.481  1.00  0.00    -0.273 OA
BRANCH  26  29
HETATM   29  C   UNL     1      42.583 -18.084   1.450  1.00  0.00     0.161 C 
BRANCH  29  30
HETATM   30  C   UNL     1      43.341 -19.065   2.305  1.00  0.00    -0.035 A 
HETATM   31  C   UNL     1      43.775 -18.723   3.593  1.00  0.00     0.051 A 
HETATM   32  C   UNL     1      44.488 -19.646   4.357  1.00  0.00     0.119 A 
HETATM   33  F   UNL     1      44.902 -19.300   5.583  1.00  0.00    -0.206 F 
HETATM   34  C   UNL     1      44.786 -20.911   3.869  1.00  0.00     0.084 A 
HETATM   35  C   UNL     1      44.362 -21.248   2.593  1.00  0.00     0.119 A 
HETATM   36  F   UNL     1      44.639 -22.461   2.102  1.00  0.00    -0.206 F 
HETATM   37  C   UNL     1      43.649 -20.342   1.810  1.00  0.00     0.051 A 
ENDBRANCH  29  30
ENDBRANCH  26  29
ENDBRANCH   8  25
TORSDOF 5
ENDMDL
MODEL 6
REMARK VINA RESULT:      -8.8      3.915      7.275
REMARK  5 active torsions:
REMARK  status: ('A' for Active; 'I' for Inactive)
REMARK    1  A    between atoms: C_7  and  N_8 
REMARK       I    between atoms: N_8  and  C_9 
REMARK       I    between atoms: C_9  and  N_10 
REMARK    2  A    between atoms: N_10  and  C_11 
REMARK    3  A    between atoms: C_18  and  C_19 
REMARK       I    between atoms: C_19  and  N_20 
REMARK    4  A    between atoms: N_20  and  C_21 
REMARK    5  A    between atoms: C_21  and  C_22 
ROOT
HETATM    1  C   UNL     1      40.096 -14.013   3.015  1.00  0.00     0.104 C 
HETATM    2  C   UNL     1      41.156 -13.682   1.929  1.00  0.00     0.150 C 
HETATM    3  N   UNL     1      42.206 -14.693   1.859  1.00  0.00    -0.354 N 
HETATM    4  C   UNL     1      42.069 -15.700   0.816  1.00  0.00     0.152 C 
HETATM    5  C   UNL     1      43.246 -14.786   2.762  1.00  0.00     0.220 C 
HETATM    6  O   UNL     1      44.079 -15.697   2.730  1.00  0.00    -0.273 OA
HETATM    7  C   UNL     1      43.351 -13.753   3.868  1.00  0.00     0.117 C 
HETATM    8  C   UNL     1      42.748 -14.111   5.236  1.00  0.00     0.086 C 
HETATM    9  C   UNL     1      41.789 -13.003   5.752  1.00  0.00     0.014 C 
HETATM   10  C   UNL     1      40.292 -13.009   5.392  1.00  0.00     0.003 C 
HETATM   11  C   UNL     1      39.877 -12.791   3.932  1.00  0.00     0.027 C 
ENDROOT
BRANCH   1  12
HETATM   12  N   UNL     1      38.861 -14.468   2.358  1.00  0.00    -0.337 N 
HETATM   13  C   UNL     1      38.224 -14.078   1.220  1.00  0.00     0.321 C 
HETATM   14  N   UNL     1      38.855 -13.149   0.455  1.00  0.00    -0.305 N 
HETATM   15  O   UNL     1      37.158 -14.632   0.979  1.00  0.00    -0.247 OA
HETATM   16  H   UNL     1      39.593 -12.621   0.890  1.00  0.00     0.171 HD
HETATM   17  H   UNL     1      38.280 -15.140   2.847  1.00  0.00     0.164 HD
BRANCH  14  18
HETATM   18  C   UNL     1      38.531 -12.776  -0.845  1.00  0.00     0.094 A 
HETATM   19  C   UNL     1      39.157 -13.285  -2.024  1.00  0.00     0.087 A 
HETATM   20  C   UNL     1      40.240 -14.288  -2.138  1.00  0.00     0.075 C 
HETATM   21  N   UNL     1      38.620 -12.767  -3.133  1.00  0.00    -0.131 NA
HETATM   22  O   UNL     1      37.634 -11.911  -2.702  1.00  0.00    -0.216 OA
HETATM   23  C   UNL     1      37.569 -11.918  -1.339  1.00  0.00     0.103 A 
HETATM   24  C   UNL     1      36.524 -11.037  -0.784  1.00  0.00     0.081 C 
ENDBRANCH  14  18
ENDBRANCH   1  12
BRANCH   8  25
HETATM   25  C   UNL     1      42.222 -15.532   5.495  1.00  0.00     0.222 C 
HETATM   26  N   UNL     1      43.167 -16.517   5.639  1.00  0.00    -0.356 N 
HETATM   27  H   UNL     1      44.128 -16.352   5.345  1.00  0.00     0.162 HD
HETATM   28  O   UNL     1      41.024 -15.759   5.666  1.00  0.00    -0.273 OA
BRANCH  26  29
HETATM   29  C   UNL     1      42.812 -17.888   5.927  1.00  0.00     0.161 C 
BRANCH  29  30
HETATM   30  C   UNL     1      43.448 -18.864   4.970  1.00  0.00    -0.035 A 
HETATM   31  C   UNL     1      43.261 -18.749   3.586  1.00  0.00     0.051 A 
HETATM   32  C   UNL     1      43.849 -19.676   2.724  1.00  0.00     0.119 A 
HETATM   33  F   UNL     1      43.654 -19.557   1.405  1.00  0.00    -0.206 F 
HETATM   34  C   UNL     1      44.622 -20.722   3.208  1.00  0.00     0.084 A 
HETATM   35  C   UNL     1      44.801 -20.839   4.578  1.00  0.00     0.119 A 
HETATM   36  F   UNL     1      45.542 -21.841   5.065  1.00  0.00    -0.206 F 
HETATM   37  C   UNL     1      44.223 -19.927   5.458  1.00  0.00     0.051 A 
ENDBRANCH  29  30
ENDBRANCH  26  29
ENDBRANCH   8  25
TORSDOF 5
ENDMDL
MODEL 7
REMARK VINA RESULT:      -8.6      4.277      8.929
REMARK  5 active torsions:
REMARK  status: ('A' for Active; 'I' for Inactive)
REMARK    1  A    between atoms: C_7  and  N_8 
REMARK       I    between atoms: N_8  and  C_9 
REMARK       I    between atoms: C_9  and  N_10 
REMARK    2  A    between atoms: N_10  and  C_11 
REMARK    3  A    between atoms: C_18  and  C_19 
REMARK       I    between atoms: C_19  and  N_20 
REMARK    4  A    between atoms: N_20  and  C_21 
REMARK    5  A    between atoms: C_21  and  C_22 
ROOT
HETATM    1  C   UNL     1      41.736 -14.447   2.695  1.00  0.00     0.104 C 
HETATM    2  C   UNL     1      40.269 -14.095   3.064  1.00  0.00     0.150 C 
HETATM    3  N   UNL     1      40.188 -13.229   4.236  1.00  0.00    -0.354 N 
HETATM    4  C   UNL     1      40.021 -11.805   3.980  1.00  0.00     0.152 C 
HETATM    5  C   UNL     1      40.347 -13.673   5.533  1.00  0.00     0.220 C 
HETATM    6  O   UNL     1      40.355 -12.911   6.504  1.00  0.00    -0.273 OA
HETATM    7  C   UNL     1      40.563 -15.154   5.779  1.00  0.00     0.117 C 
HETATM    8  C   UNL     1      42.012 -15.647   5.929  1.00  0.00     0.086 C 
HETATM    9  C   UNL     1      42.313 -16.849   4.992  1.00  0.00     0.014 C 
HETATM   10  C   UNL     1      42.818 -16.635   3.554  1.00  0.00     0.003 C 
HETATM   11  C   UNL     1      41.888 -15.974   2.529  1.00  0.00     0.027 C 
ENDROOT
BRANCH   1  12
HETATM   12  N   UNL     1      42.122 -13.696   1.491  1.00  0.00    -0.337 N 
HETATM   13  C   UNL     1      41.627 -13.669   0.223  1.00  0.00     0.321 C 
HETATM   14  N   UNL     1      40.502 -14.394  -0.010  1.00  0.00    -0.305 N 
HETATM   15  O   UNL     1      42.228 -12.962  -0.578  1.00  0.00    -0.247 OA
HETATM   16  H   UNL     1      40.263 -15.099   0.667  1.00  0.00     0.171 HD
HETATM   17  H   UNL     1      42.969 -13.139   1.526  1.00  0.00     0.164 HD
BRANCH  14  18
HETATM   18  C   UNL     1      39.687 -14.336  -1.135  1.00  0.00     0.094 A 
HETATM   19  C   UNL     1      38.393 -13.732  -1.180  1.00  0.00     0.087 A 
HETATM   20  C   UNL     1      37.652 -13.049  -0.095  1.00  0.00     0.075 C 
HETATM   21  N   UNL     1      37.856 -13.801  -2.401  1.00  0.00    -0.131 NA
HETATM   22  O   UNL     1      38.787 -14.450  -3.179  1.00  0.00    -0.216 OA
HETATM   23  C   UNL     1      39.885 -14.764  -2.433  1.00  0.00     0.103 A 
HETATM   24  C   UNL     1      40.948 -15.452  -3.189  1.00  0.00     0.081 C 
ENDBRANCH  14  18
ENDBRANCH   1  12
BRANCH   8  25
HETATM   25  C   UNL     1      43.165 -14.632   5.997  1.00  0.00     0.222 C 
HETATM   26  N   UNL     1      43.834 -14.548   7.192  1.00  0.00    -0.356 N 
HETATM   27  H   UNL     1      43.430 -14.948   8.036  1.00  0.00     0.162 HD
HETATM   28  O   UNL     1      43.534 -14.003   5.006  1.00  0.00    -0.273 OA
BRANCH  26  29
HETATM   29  C   UNL     1      44.965 -13.666   7.380  1.00  0.00     0.161 C 
BRANCH  29  30
HETATM   30  C   UNL     1      44.680 -12.563   8.366  1.00  0.00    -0.035 A 
HETATM   31  C   UNL     1      45.625 -12.192   9.333  1.00  0.00     0.051 A 
HETATM   32  C   UNL     1      45.329 -11.178  10.244  1.00  0.00     0.119 A 
HETATM   33  F   UNL     1      46.239 -10.840  11.166  1.00  0.00    -0.206 F 
HETATM   34  C   UNL     1      44.107 -10.519  10.219  1.00  0.00     0.084 A 
HETATM   35  C   UNL     1      43.171 -10.890   9.266  1.00  0.00     0.119 A 
HETATM   36  F   UNL     1      41.986 -10.269   9.225  1.00  0.00    -0.206 F 
HETATM   37  C   UNL     1      43.443 -11.901   8.347  1.00  0.00     0.051 A 
ENDBRANCH  29  30
ENDBRANCH  26  29
ENDBRANCH   8  25
TORSDOF 5
ENDMDL
MODEL 8
REMARK VINA RESULT:      -8.6      4.060      6.941
REMARK  5 active torsions:
REMARK  status: ('A' for Active; 'I' for Inactive)
REMARK    1  A    between atoms: C_7  and  N_8 
REMARK       I    between atoms: N_8  and  C_9 
REMARK       I    between atoms: C_9  and  N_10 
REMARK    2  A    between atoms: N_10  and  C_11 
REMARK    3  A    between atoms: C_18  and  C_19 
REMARK       I    between atoms: C_19  and  N_20 
REMARK    4  A    between atoms: N_20  and  C_21 
REMARK    5  A    between atoms: C_21  and  C_22 
ROOT
HETATM    1  C   UNL     1      41.243 -12.956   2.101  1.00  0.00     0.104 C 
HETATM    2  C   UNL     1      40.960 -12.621   3.591  1.00  0.00     0.150 C 
HETATM    3  N   UNL     1      41.746 -13.449   4.500  1.00  0.00    -0.354 N 
HETATM    4  C   UNL     1      42.961 -12.852   5.035  1.00  0.00     0.152 C 
HETATM    5  C   UNL     1      41.445 -14.763   4.799  1.00  0.00     0.220 C 
HETATM    6  O   UNL     1      42.168 -15.469   5.508  1.00  0.00    -0.273 OA
HETATM    7  C   UNL     1      40.198 -15.383   4.199  1.00  0.00     0.117 C 
HETATM    8  C   UNL     1      40.360 -16.203   2.909  1.00  0.00     0.086 C 
HETATM    9  C   UNL     1      39.368 -15.744   1.805  1.00  0.00     0.014 C 
HETATM   10  C   UNL     1      39.732 -14.620   0.818  1.00  0.00     0.003 C 
HETATM   11  C   UNL     1      39.916 -13.194   1.350  1.00  0.00     0.027 C 
ENDROOT
BRANCH   1  12
HETATM   12  N   UNL     1      42.053 -11.879   1.512  1.00  0.00    -0.337 N 
HETATM   13  C   UNL     1      42.198 -11.427   0.236  1.00  0.00     0.321 C 
HETATM   14  N   UNL     1      41.396 -11.988  -0.706  1.00  0.00    -0.305 N 
HETATM   15  O   UNL     1      43.016 -10.529   0.069  1.00  0.00    -0.247 OA
HETATM   16  H   UNL     1      40.953 -12.861  -0.470  1.00  0.00     0.171 HD
HETATM   17  H   UNL     1      42.720 -11.401   2.108  1.00  0.00     0.164 HD
BRANCH  14  18
HETATM   18  C   UNL     1      41.189 -11.537  -2.006  1.00  0.00     0.094 A 
HETATM   19  C   UNL     1      41.271 -12.350  -3.177  1.00  0.00     0.087 A 
HETATM   20  C   UNL     1      41.571 -13.796  -3.283  1.00  0.00     0.075 C 
HETATM   21  N   UNL     1      40.996 -11.653  -4.284  1.00  0.00    -0.131 NA
HETATM   22  O   UNL     1      40.729 -10.372  -3.857  1.00  0.00    -0.216 OA
HETATM   23  C   UNL     1      40.834 -10.298  -2.500  1.00  0.00     0.103 A 
HETATM   24  C   UNL     1      40.549  -8.960  -1.948  1.00  0.00     0.081 C 
ENDBRANCH  14  18
ENDBRANCH   1  12
BRANCH   8  25
HETATM   25  C   UNL     1      41.765 -16.511   2.366  1.00  0.00     0.222 C 
HETATM   26  N   UNL     1      42.520 -17.395   3.094  1.00  0.00    -0.356 N 
HETATM   27  H   UNL     1      42.258 -17.629   4.049  1.00  0.00     0.162 HD
HETATM   28  O   UNL     1      42.153 -16.068   1.286  1.00  0.00    -0.273 OA
BRANCH  26  29
HETATM   29  C   UNL     1      43.842 -17.805   2.675  1.00  0.00     0.161 C 
BRANCH  29  30
HETATM   30  C   UNL     1      44.070 -19.285   2.844  1.00  0.00    -0.035 A 
HETATM   31  C   UNL     1      43.852 -20.178   1.786  1.00  0.00     0.051 A 
HETATM   32  C   UNL     1      44.056 -21.545   1.975  1.00  0.00     0.119 A 
HETATM   33  F   UNL     1      43.836 -22.386   0.956  1.00  0.00    -0.206 F 
HETATM   34  C   UNL     1      44.473 -22.051   3.198  1.00  0.00     0.084 A 
HETATM   35  C   UNL     1      44.683 -21.168   4.246  1.00  0.00     0.119 A 
HETATM   36  F   UNL     1      45.084 -21.634   5.435  1.00  0.00    -0.206 F 
HETATM   37  C   UNL     1      44.484 -19.799   4.082  1.00  0.00     0.051 A 
ENDBRANCH  29  30
ENDBRANCH  26  29
ENDBRANCH   8  25
TORSDOF 5
ENDMDL
MODEL 9
REMARK VINA RESULT:      -8.6      4.503      6.970
REMARK  5 active torsions:
REMARK  status: ('A' for Active; 'I' for Inactive)
REMARK    1  A    between atoms: C_7  and  N_8 
REMARK       I    between atoms: N_8  and  C_9 
REMARK       I    between atoms: C_9  and  N_10 
REMARK    2  A    between atoms: N_10  and  C_11 
REMARK    3  A    between atoms: C_18  and  C_19 
REMARK       I    between atoms: C_19  and  N_20 
REMARK    4  A    between atoms: N_20  and  C_21 
REMARK    5  A    between atoms: C_21  and  C_22 
ROOT
HETATM    1  C   UNL     1      41.172 -12.536   1.792  1.00  0.00     0.104 C 
HETATM    2  C   UNL     1      41.192 -12.416   3.340  1.00  0.00     0.150 C 
HETATM    3  N   UNL     1      41.858 -13.551   3.972  1.00  0.00    -0.354 N 
HETATM    4  C   UNL     1      43.248 -13.353   4.360  1.00  0.00     0.152 C 
HETATM    5  C   UNL     1      41.276 -14.791   4.134  1.00  0.00     0.220 C 
HETATM    6  O   UNL     1      41.886 -15.759   4.599  1.00  0.00    -0.273 OA
HETATM    7  C   UNL     1      39.842 -14.992   3.686  1.00  0.00     0.117 C 
HETATM    8  C   UNL     1      39.609 -15.584   2.287  1.00  0.00     0.086 C 
HETATM    9  C   UNL     1      38.624 -14.720   1.451  1.00  0.00     0.014 C 
HETATM   10  C   UNL     1      39.123 -13.553   0.581  1.00  0.00     0.003 C 
HETATM   11  C   UNL     1      39.737 -12.325   1.263  1.00  0.00     0.027 C 
ENDROOT
BRANCH   1  12
HETATM   12  N   UNL     1      42.140 -11.587   1.223  1.00  0.00    -0.337 N 
HETATM   13  C   UNL     1      42.243 -10.995   0.002  1.00  0.00     0.321 C 
HETATM   14  N   UNL     1      41.231 -11.225  -0.875  1.00  0.00    -0.305 N 
HETATM   15  O   UNL     1      43.224 -10.283  -0.174  1.00  0.00    -0.247 OA
HETATM   16  H   UNL     1      40.625 -12.005  -0.683  1.00  0.00     0.171 HD
HETATM   17  H   UNL     1      42.963 -11.358   1.770  1.00  0.00     0.164 HD
BRANCH  14  18
HETATM   18  C   UNL     1      40.992 -10.555  -2.071  1.00  0.00     0.094 A 
HETATM   19  C   UNL     1      40.203  -9.371  -2.203  1.00  0.00     0.087 A 
HETATM   20  C   UNL     1      39.495  -8.607  -1.151  1.00  0.00     0.075 C 
HETATM   21  N   UNL     1      40.172  -8.935  -3.466  1.00  0.00    -0.131 NA
HETATM   22  O   UNL     1      40.940  -9.824  -4.183  1.00  0.00    -0.216 OA
HETATM   23  C   UNL     1      41.438 -10.787  -3.356  1.00  0.00     0.103 A 
HETATM   24  C   UNL     1      42.290 -11.780  -4.037  1.00  0.00     0.081 C 
ENDBRANCH  14  18
ENDBRANCH   1  12
BRANCH   8  25
HETATM   25  C   UNL     1      40.799 -16.105   1.465  1.00  0.00     0.222 C 
HETATM   26  N   UNL     1      41.509 -17.145   2.011  1.00  0.00    -0.356 N 
HETATM   27  H   UNL     1      41.402 -17.378   2.996  1.00  0.00     0.162 HD
HETATM   28  O   UNL     1      41.042 -15.682   0.336  1.00  0.00    -0.273 OA
BRANCH  26  29
HETATM   29  C   UNL     1      42.626 -17.757   1.326  1.00  0.00     0.161 C 
BRANCH  29  30
HETATM   30  C   UNL     1      43.346 -18.767   2.182  1.00  0.00    -0.035 A 
HETATM   31  C   UNL     1      43.507 -20.094   1.760  1.00  0.00     0.051 A 
HETATM   32  C   UNL     1      44.164 -21.012   2.579  1.00  0.00     0.119 A 
HETATM   33  F   UNL     1      44.303 -22.277   2.164  1.00  0.00    -0.206 F 
HETATM   34  C   UNL     1      44.668 -20.641   3.818  1.00  0.00     0.084 A 
HETATM   35  C   UNL     1      44.504 -19.330   4.238  1.00  0.00     0.119 A 
HETATM   36  F   UNL     1      44.981 -18.952   5.430  1.00  0.00    -0.206 F 
HETATM   37  C   UNL     1      43.850 -18.396   3.438  1.00  0.00     0.051 A 
ENDBRANCH  29  30
ENDBRANCH  26  29
ENDBRANCH   8  25
TORSDOF 5
ENDMDL
MODEL 10
REMARK VINA RESULT:      -8.5      2.662      3.846
REMARK  5 active torsions:
REMARK  status: ('A' for Active; 'I' for Inactive)
REMARK    1  A    between atoms: C_7  and  N_8 
REMARK       I    between atoms: N_8  and  C_9 
REMARK       I    between atoms: C_9  and  N_10 
REMARK    2  A    between atoms: N_10  and  C_11 
REMARK    3  A    between atoms: C_18  and  C_19 
REMARK       I    between atoms: C_19  and  N_20 
REMARK    4  A    between atoms: N_20  and  C_21 
REMARK    5  A    between atoms: C_21  and  C_22 
ROOT
HETATM    1  C   UNL     1      40.881 -13.028   5.511  1.00  0.00     0.104 C 
HETATM    2  C   UNL     1      40.546 -11.912   4.484  1.00  0.00     0.150 C 
HETATM    3  N   UNL     1      40.132 -12.458   3.195  1.00  0.00    -0.354 N 
HETATM    4  C   UNL     1      38.699 -12.530   2.950  1.00  0.00     0.152 C 
HETATM    5  C   UNL     1      41.009 -12.973   2.261  1.00  0.00     0.220 C 
HETATM    6  O   UNL     1      40.631 -13.502   1.212  1.00  0.00    -0.273 OA
HETATM    7  C   UNL     1      42.497 -12.929   2.550  1.00  0.00     0.117 C 
HETATM    8  C   UNL     1      43.141 -14.184   3.160  1.00  0.00     0.086 C 
HETATM    9  C   UNL     1      43.969 -13.849   4.431  1.00  0.00     0.014 C 
HETATM   10  C   UNL     1      43.321 -13.831   5.827  1.00  0.00     0.003 C 
HETATM   11  C   UNL     1      42.264 -12.766   6.144  1.00  0.00     0.027 C 
ENDROOT
BRANCH   1  12
HETATM   12  N   UNL     1      39.800 -13.107   6.505  1.00  0.00    -0.337 N 
HETATM   13  C   UNL     1      39.505 -12.366   7.608  1.00  0.00     0.321 C 
HETATM   14  N   UNL     1      40.279 -11.273   7.834  1.00  0.00    -0.305 N 
HETATM   15  O   UNL     1      38.545 -12.740   8.271  1.00  0.00    -0.247 OA
HETATM   16  H   UNL     1      41.161 -11.227   7.351  1.00  0.00     0.171 HD
HETATM   17  H   UNL     1      39.170 -13.901   6.464  1.00  0.00     0.164 HD
BRANCH  14  18
HETATM   18  C   UNL     1      40.032 -10.245   8.738  1.00  0.00     0.094 A 
HETATM   19  C   UNL     1      39.401  -9.004   8.416  1.00  0.00     0.087 A 
HETATM   20  C   UNL     1      38.877  -8.543   7.111  1.00  0.00     0.075 C 
HETATM   21  N   UNL     1      39.271  -8.221   9.491  1.00  0.00    -0.131 NA
HETATM   22  O   UNL     1      39.813  -8.934  10.536  1.00  0.00    -0.216 OA
HETATM   23  C   UNL     1      40.261 -10.144  10.096  1.00  0.00     0.103 A 
HETATM   24  C   UNL     1      40.848 -10.988  11.155  1.00  0.00     0.081 C 
ENDBRANCH  14  18
ENDBRANCH   1  12
BRANCH   8  25
HETATM   25  C   UNL     1      42.323 -15.478   3.298  1.00  0.00     0.222 C 
HETATM   26  N   UNL     1      42.597 -16.474   2.395  1.00  0.00    -0.356 N 
HETATM   27  H   UNL     1      43.125 -16.269   1.549  1.00  0.00     0.162 HD
HETATM   28  O   UNL     1      41.536 -15.651   4.229  1.00  0.00    -0.273 OA
BRANCH  26  29
HETATM   29  C   UNL     1      41.931 -17.757   2.437  1.00  0.00     0.161 C 
BRANCH  29  30
HETATM   30  C   UNL     1      42.874 -18.888   2.754  1.00  0.00    -0.035 A 
HETATM   31  C   UNL     1      43.587 -18.924   3.960  1.00  0.00     0.051 A 
HETATM   32  C   UNL     1      44.465 -19.976   4.221  1.00  0.00     0.119 A 
HETATM   33  F   UNL     1      45.144 -19.991   5.376  1.00  0.00    -0.206 F 
HETATM   34  C   UNL     1      44.655 -21.001   3.305  1.00  0.00     0.084 A 
HETATM   35  C   UNL     1      43.955 -20.963   2.109  1.00  0.00     0.119 A 
HETATM   36  F   UNL     1      44.124 -21.940   1.211  1.00  0.00    -0.206 F 
HETATM   37  C   UNL     1      43.073 -19.922   1.826  1.00  0.00     0.051 A 
ENDBRANCH  29  30
ENDBRANCH  26  29
ENDBRANCH   8  25
TORSDOF 5
ENDMDL
