MODEL 1
REMARK VINA RESULT:      -8.9      0.000      0.000
REMARK  8 active torsions:
REMARK  status: ('A' for Active; 'I' for Inactive)
REMARK    1  A    between atoms: N_4  and  C_5 
REMARK    2  A    between atoms: C_11  and  O_12 
REMARK    3  A    between atoms: C_13  and  C_14 
REMARK    4  A    between atoms: N_15  and  N_16 
REMARK       I    between atoms: N_16  and  C_17 
REMARK    5  A    between atoms: C_17  and  C_18 
REMARK    6  A    between atoms: C_18  and  C_19 
REMARK    7  A    between atoms: C_19  and  N_20 
REMARK       I    between atoms: N_20  and  C_21 
REMARK    8  A    between atoms: C_21  and  C_22 
ROOT
HETATM    1  C   UNL     1      41.787 -15.480   5.729  1.00  0.00     0.156 C 
HETATM    2  N   UNL     1      40.611 -15.048   5.399  1.00  0.00    -0.184 NA
ENDROOT
BRANCH   2   3
HETATM    3  N   UNL     1      39.945 -14.267   6.317  1.00  0.00    -0.247 N 
HETATM    4  C   UNL     1      40.004 -12.875   6.356  1.00  0.00     0.239 C 
HETATM    5  O   UNL     1      40.707 -12.174   5.633  1.00  0.00    -0.272 OA
HETATM    6  H   UNL     1      39.116 -14.712   6.702  1.00  0.00     0.192 HD
BRANCH   4   7
HETATM    7  C   UNL     1      39.133 -12.303   7.453  1.00  0.00     0.124 C 
BRANCH   7   8
HETATM    8  C   UNL     1      39.694 -10.981   7.965  1.00  0.00     0.132 C 
BRANCH   8   9
HETATM    9  N   UNL     1      40.890 -11.133   8.779  1.00  0.00    -0.356 N 
HETATM   10  C   UNL     1      42.076 -10.505   8.459  1.00  0.00     0.251 C 
HETATM   11  O   UNL     1      42.179  -9.691   7.546  1.00  0.00    -0.268 OA
HETATM   12  H   UNL     1      40.936 -11.964   9.352  1.00  0.00     0.162 HD
BRANCH  10  13
HETATM   13  C   UNL     1      43.273 -10.886   9.264  1.00  0.00     0.032 A 
HETATM   14  C   UNL     1      44.241 -11.785   8.794  1.00  0.00     0.017 A 
HETATM   15  C   UNL     1      45.350 -12.099   9.585  1.00  0.00     0.001 A 
HETATM   16  C   UNL     1      45.491 -11.529  10.850  1.00  0.00     0.000 A 
HETATM   17  C   UNL     1      44.522 -10.651  11.332  1.00  0.00     0.001 A 
HETATM   18  C   UNL     1      43.415 -10.332  10.543  1.00  0.00     0.017 A 
ENDBRANCH  10  13
ENDBRANCH   8   9
ENDBRANCH   7   8
ENDBRANCH   4   7
ENDBRANCH   2   3
BRANCH   1  19
HETATM   19  C   UNL     1      42.539 -16.281   4.792  1.00  0.00     0.062 C 
HETATM   20  C   UNL     1      43.182 -15.934   3.579  1.00  0.00     0.067 C 
HETATM   21  C   UNL     1      43.260 -14.603   2.926  1.00  0.00     0.073 C 
HETATM   22  N   UNL     1      43.809 -16.980   3.027  1.00  0.00    -0.169 NA
HETATM   23  N   UNL     1      43.478 -18.040   3.810  1.00  0.00    -0.210 N 
HETATM   24  C   UNL     1      42.829 -17.620   4.971  1.00  0.00     0.177 C 
BRANCH  23  25
HETATM   25  C   UNL     1      43.797 -19.365   3.388  1.00  0.00     0.061 A 
HETATM   26  C   UNL     1      43.296 -19.833   2.163  1.00  0.00     0.031 A 
HETATM   27  C   UNL     1      43.595 -21.125   1.726  1.00  0.00     0.002 A 
HETATM   28  C   UNL     1      44.381 -21.964   2.513  1.00  0.00     0.000 A 
HETATM   29  C   UNL     1      44.857 -21.519   3.745  1.00  0.00     0.002 A 
HETATM   30  C   UNL     1      44.562 -20.226   4.188  1.00  0.00     0.031 A 
ENDBRANCH  23  25
BRANCH  24  31
HETATM   31  O   UNL     1      42.577 -18.389   6.034  1.00  0.00    -0.344 OA
HETATM   32  H   UNL     1      43.344 -18.341   6.635  1.00  0.00     0.219 HD
ENDBRANCH  24  31
ENDBRANCH   1  19
TORSDOF 8
ENDMDL
MODEL 2
REMARK VINA RESULT:      -8.9      2.747      3.715
REMARK  8 active torsions:
REMARK  status: ('A' for Active; 'I' for Inactive)
REMARK    1  A    between atoms: N_4  and  C_5 
REMARK    2  A    between atoms: C_11  and  O_12 
REMARK    3  A    between atoms: C_13  and  C_14 
REMARK    4  A    between atoms: N_15  and  N_16 
REMARK       I    between atoms: N_16  and  C_17 
REMARK    5  A    between atoms: C_17  and  C_18 
REMARK    6  A    between atoms: C_18  and  C_19 
REMARK    7  A    between atoms: C_19  and  N_20 
REMARK       I    between atoms: N_20  and  C_21 
REMARK    8  A    between atoms: C_21  and  C_22 
ROOT
HETATM    1  C   UNL     1      43.526 -15.666   6.763  1.00  0.00     0.156 C 
HETATM    2  N   UNL     1      44.567 -14.895   6.747  1.00  0.00    -0.184 NA
ENDROOT
BRANCH   2   3
HETATM    3  N   UNL     1      44.642 -13.917   7.711  1.00  0.00    -0.247 N 
HETATM    4  C   UNL     1      45.631 -12.936   7.762  1.00  0.00     0.239 C 
HETATM    5  O   UNL     1      46.596 -12.861   7.006  1.00  0.00    -0.272 OA
HETATM    6  H   UNL     1      43.746 -13.701   8.141  1.00  0.00     0.192 HD
BRANCH   4   7
HETATM    7  C   UNL     1      45.420 -11.980   8.917  1.00  0.00     0.124 C 
BRANCH   7   8
HETATM    8  C   UNL     1      43.942 -11.649   9.090  1.00  0.00     0.132 C 
BRANCH   8   9
HETATM    9  N   UNL     1      43.684 -10.677  10.142  1.00  0.00    -0.356 N 
HETATM   10  C   UNL     1      43.541 -11.051  11.463  1.00  0.00     0.251 C 
HETATM   11  O   UNL     1      43.734 -12.195  11.861  1.00  0.00    -0.268 OA
HETATM   12  H   UNL     1      43.263  -9.807   9.849  1.00  0.00     0.162 HD
BRANCH  10  13
HETATM   13  C   UNL     1      43.097  -9.990  12.413  1.00  0.00     0.032 A 
HETATM   14  C   UNL     1      42.917 -10.234  13.783  1.00  0.00     0.017 A 
HETATM   15  C   UNL     1      42.511  -9.200  14.631  1.00  0.00     0.001 A 
HETATM   16  C   UNL     1      42.270  -7.926  14.117  1.00  0.00     0.000 A 
HETATM   17  C   UNL     1      42.426  -7.682  12.754  1.00  0.00     0.001 A 
HETATM   18  C   UNL     1      42.837  -8.711  11.904  1.00  0.00     0.017 A 
ENDBRANCH  10  13
ENDBRANCH   8   9
ENDBRANCH   7   8
ENDBRANCH   4   7
ENDBRANCH   2   3
BRANCH   1  19
HETATM   19  C   UNL     1      43.411 -16.726   5.788  1.00  0.00     0.062 C 
HETATM   20  C   UNL     1      42.515 -16.900   4.706  1.00  0.00     0.067 C 
HETATM   21  C   UNL     1      41.414 -16.005   4.269  1.00  0.00     0.073 C 
HETATM   22  N   UNL     1      42.776 -18.016   4.014  1.00  0.00    -0.169 NA
HETATM   23  N   UNL     1      43.764 -18.638   4.709  1.00  0.00    -0.210 N 
HETATM   24  C   UNL     1      44.270 -17.805   5.709  1.00  0.00     0.177 C 
BRANCH  23  25
HETATM   25  C   UNL     1      44.140 -19.972   4.375  1.00  0.00     0.061 A 
HETATM   26  C   UNL     1      44.119 -20.374   3.030  1.00  0.00     0.031 A 
HETATM   27  C   UNL     1      44.485 -21.673   2.676  1.00  0.00     0.002 A 
HETATM   28  C   UNL     1      44.858 -22.587   3.661  1.00  0.00     0.000 A 
HETATM   29  C   UNL     1      44.852 -22.206   5.001  1.00  0.00     0.002 A 
HETATM   30  C   UNL     1      44.488 -20.905   5.362  1.00  0.00     0.031 A 
ENDBRANCH  23  25
BRANCH  24  31
HETATM   31  O   UNL     1      45.383 -18.035   6.411  1.00  0.00    -0.344 OA
HETATM   32  H   UNL     1      45.870 -17.194   6.498  1.00  0.00     0.219 HD
ENDBRANCH  24  31
ENDBRANCH   1  19
TORSDOF 8
ENDMDL
MODEL 3
REMARK VINA RESULT:      -8.7      1.530      1.929
REMARK  8 active torsions:
REMARK  status: ('A' for Active; 'I' for Inactive)
REMARK    1  A    between atoms: N_4  and  C_5 
REMARK    2  A    between atoms: C_11  and  O_12 
REMARK    3  A    between atoms: C_13  and  C_14 
REMARK    4  A    between atoms: N_15  and  N_16 
REMARK       I    between atoms: N_16  and  C_17 
REMARK    5  A    between atoms: C_17  and  C_18 
REMARK    6  A    between atoms: C_18  and  C_19 
REMARK    7  A    between atoms: C_19  and  N_20 
REMARK       I    between atoms: N_20  and  C_21 
REMARK    8  A    between atoms: C_21  and  C_22 
ROOT
HETATM    1  C   UNL     1      41.546 -15.231   4.994  1.00  0.00     0.156 C 
HETATM    2  N   UNL     1      40.407 -15.218   5.612  1.00  0.00    -0.184 NA
ENDROOT
BRANCH   2   3
HETATM    3  N   UNL     1      40.159 -14.160   6.456  1.00  0.00    -0.247 N 
HETATM    4  C   UNL     1      39.585 -12.953   6.058  1.00  0.00     0.239 C 
HETATM    5  O   UNL     1      39.298 -12.650   4.903  1.00  0.00    -0.272 OA
HETATM    6  H   UNL     1      40.045 -14.435   7.428  1.00  0.00     0.192 HD
BRANCH   4   7
HETATM    7  C   UNL     1      39.405 -12.003   7.223  1.00  0.00     0.124 C 
BRANCH   7   8
HETATM    8  C   UNL     1      40.683 -11.216   7.490  1.00  0.00     0.132 C 
BRANCH   8   9
HETATM    9  N   UNL     1      40.916 -10.947   8.901  1.00  0.00    -0.356 N 
HETATM   10  C   UNL     1      42.166 -10.617   9.385  1.00  0.00     0.251 C 
HETATM   11  O   UNL     1      43.134 -10.415   8.660  1.00  0.00    -0.268 OA
HETATM   12  H   UNL     1      40.250 -11.348   9.546  1.00  0.00     0.162 HD
BRANCH  10  13
HETATM   13  C   UNL     1      42.310 -10.547  10.868  1.00  0.00     0.032 A 
HETATM   14  C   UNL     1      41.356 -11.085  11.743  1.00  0.00     0.017 A 
HETATM   15  C   UNL     1      41.547 -11.002  13.126  1.00  0.00     0.001 A 
HETATM   16  C   UNL     1      42.680 -10.372  13.640  1.00  0.00     0.000 A 
HETATM   17  C   UNL     1      43.621  -9.816  12.776  1.00  0.00     0.001 A 
HETATM   18  C   UNL     1      43.437  -9.901  11.395  1.00  0.00     0.017 A 
ENDBRANCH  10  13
ENDBRANCH   8   9
ENDBRANCH   7   8
ENDBRANCH   4   7
ENDBRANCH   2   3
BRANCH   1  19
HETATM   19  C   UNL     1      41.844 -16.305   4.077  1.00  0.00     0.062 C 
HETATM   20  C   UNL     1      41.289 -16.632   2.816  1.00  0.00     0.067 C 
HETATM   21  C   UNL     1      40.213 -15.929   2.073  1.00  0.00     0.073 C 
HETATM   22  N   UNL     1      41.884 -17.699   2.268  1.00  0.00    -0.169 NA
HETATM   23  N   UNL     1      42.746 -18.147   3.218  1.00  0.00    -0.210 N 
HETATM   24  C   UNL     1      42.849 -17.234   4.269  1.00  0.00     0.177 C 
BRANCH  23  25
HETATM   25  C   UNL     1      43.393 -19.408   3.056  1.00  0.00     0.061 A 
HETATM   26  C   UNL     1      43.130 -20.170   1.907  1.00  0.00     0.031 A 
HETATM   27  C   UNL     1      43.753 -21.406   1.723  1.00  0.00     0.002 A 
HETATM   28  C   UNL     1      44.627 -21.899   2.690  1.00  0.00     0.000 A 
HETATM   29  C   UNL     1      44.870 -21.163   3.848  1.00  0.00     0.002 A 
HETATM   30  C   UNL     1      44.251 -19.924   4.038  1.00  0.00     0.031 A 
ENDBRANCH  23  25
BRANCH  24  31
HETATM   31  O   UNL     1      43.769 -17.276   5.236  1.00  0.00    -0.344 OA
HETATM   32  H   UNL     1      43.825 -18.192   5.567  1.00  0.00     0.219 HD
ENDBRANCH  24  31
ENDBRANCH   1  19
TORSDOF 8
ENDMDL
MODEL 4
REMARK VINA RESULT:      -8.6      4.484      8.426
REMARK  8 active torsions:
REMARK  status: ('A' for Active; 'I' for Inactive)
REMARK    1  A    between atoms: N_4  and  C_5 
REMARK    2  A    between atoms: C_11  and  O_12 
REMARK    3  A    between atoms: C_13  and  C_14 
REMARK    4  A    between atoms: N_15  and  N_16 
REMARK       I    between atoms: N_16  and  C_17 
REMARK    5  A    between atoms: C_17  and  C_18 
REMARK    6  A    between atoms: C_18  and  C_19 
REMARK    7  A    between atoms: C_19  and  N_20 
REMARK       I    between atoms: N_20  and  C_21 
REMARK    8  A    between atoms: C_21  and  C_22 
ROOT
HETATM    1  C   UNL     1      42.045 -13.687   2.057  1.00  0.00     0.156 C 
HETATM    2  N   UNL     1      42.359 -14.846   2.542  1.00  0.00    -0.184 NA
ENDROOT
BRANCH   2   3
HETATM    3  N   UNL     1      42.733 -14.897   3.865  1.00  0.00    -0.247 N 
HETATM    4  C   UNL     1      42.100 -15.675   4.833  1.00  0.00     0.239 C 
HETATM    5  O   UNL     1      41.092 -16.353   4.650  1.00  0.00    -0.272 OA
HETATM    6  H   UNL     1      43.709 -14.660   4.019  1.00  0.00     0.192 HD
BRANCH   4   7
HETATM    7  C   UNL     1      42.767 -15.548   6.185  1.00  0.00     0.124 C 
BRANCH   7   8
HETATM    8  C   UNL     1      43.292 -16.896   6.666  1.00  0.00     0.132 C 
BRANCH   8   9
HETATM    9  N   UNL     1      43.227 -17.940   5.655  1.00  0.00    -0.356 N 
HETATM   10  C   UNL     1      44.346 -18.645   5.261  1.00  0.00     0.251 C 
HETATM   11  O   UNL     1      45.439 -18.529   5.806  1.00  0.00    -0.268 OA
HETATM   12  H   UNL     1      42.450 -17.888   5.012  1.00  0.00     0.162 HD
BRANCH  10  13
HETATM   13  C   UNL     1      44.182 -19.557   4.091  1.00  0.00     0.032 A 
HETATM   14  C   UNL     1      44.732 -20.847   4.060  1.00  0.00     0.017 A 
HETATM   15  C   UNL     1      44.539 -21.664   2.942  1.00  0.00     0.001 A 
HETATM   16  C   UNL     1      43.811 -21.196   1.849  1.00  0.00     0.000 A 
HETATM   17  C   UNL     1      43.280 -19.907   1.865  1.00  0.00     0.001 A 
HETATM   18  C   UNL     1      43.467 -19.089   2.981  1.00  0.00     0.017 A 
ENDBRANCH  10  13
ENDBRANCH   8   9
ENDBRANCH   7   8
ENDBRANCH   4   7
ENDBRANCH   2   3
BRANCH   1  19
HETATM   19  C   UNL     1      41.620 -13.583   0.680  1.00  0.00     0.062 C 
HETATM   20  C   UNL     1      41.817 -12.560  -0.278  1.00  0.00     0.067 C 
HETATM   21  C   UNL     1      42.543 -11.275  -0.118  1.00  0.00     0.073 C 
HETATM   22  N   UNL     1      41.287 -12.877  -1.465  1.00  0.00    -0.169 NA
HETATM   23  N   UNL     1      40.637 -14.052  -1.258  1.00  0.00    -0.210 N 
HETATM   24  C   UNL     1      40.945 -14.577  -0.002  1.00  0.00     0.177 C 
BRANCH  23  25
HETATM   25  C   UNL     1      39.769 -14.575  -2.262  1.00  0.00     0.061 A 
HETATM   26  C   UNL     1      38.462 -14.076  -2.365  1.00  0.00     0.031 A 
HETATM   27  C   UNL     1      37.593 -14.569  -3.341  1.00  0.00     0.002 A 
HETATM   28  C   UNL     1      38.016 -15.573  -4.210  1.00  0.00     0.000 A 
HETATM   29  C   UNL     1      39.303 -16.096  -4.094  1.00  0.00     0.002 A 
HETATM   30  C   UNL     1      40.178 -15.606  -3.120  1.00  0.00     0.031 A 
ENDBRANCH  23  25
BRANCH  24  31
HETATM   31  O   UNL     1      40.648 -15.813   0.410  1.00  0.00    -0.344 OA
HETATM   32  H   UNL     1      39.771 -16.051   0.054  1.00  0.00     0.219 HD
ENDBRANCH  24  31
ENDBRANCH   1  19
TORSDOF 8
ENDMDL
MODEL 5
REMARK VINA RESULT:      -8.6      4.405      8.220
REMARK  8 active torsions:
REMARK  status: ('A' for Active; 'I' for Inactive)
REMARK    1  A    between atoms: N_4  and  C_5 
REMARK    2  A    between atoms: C_11  and  O_12 
REMARK    3  A    between atoms: C_13  and  C_14 
REMARK    4  A    between atoms: N_15  and  N_16 
REMARK       I    between atoms: N_16  and  C_17 
REMARK    5  A    between atoms: C_17  and  C_18 
REMARK    6  A    between atoms: C_18  and  C_19 
REMARK    7  A    between atoms: C_19  and  N_20 
REMARK       I    between atoms: N_20  and  C_21 
REMARK    8  A    between atoms: C_21  and  C_22 
ROOT
HETATM    1  C   UNL     1      41.766 -16.309   3.492  1.00  0.00     0.156 C 
HETATM    2  N   UNL     1      41.523 -15.754   4.637  1.00  0.00    -0.184 NA
ENDROOT
BRANCH   2   3
HETATM    3  N   UNL     1      41.701 -16.525   5.762  1.00  0.00    -0.247 N 
HETATM    4  C   UNL     1      42.871 -16.554   6.520  1.00  0.00     0.239 C 
HETATM    5  O   UNL     1      43.909 -15.958   6.245  1.00  0.00    -0.272 OA
HETATM    6  H   UNL     1      40.832 -16.762   6.234  1.00  0.00     0.192 HD
BRANCH   4   7
HETATM    7  C   UNL     1      42.745 -17.469   7.719  1.00  0.00     0.124 C 
BRANCH   7   8
HETATM    8  C   UNL     1      43.768 -18.598   7.656  1.00  0.00     0.132 C 
BRANCH   8   9
HETATM    9  N   UNL     1      43.688 -19.388   6.438  1.00  0.00    -0.356 N 
HETATM   10  C   UNL     1      44.654 -19.317   5.455  1.00  0.00     0.251 C 
HETATM   11  O   UNL     1      45.696 -18.681   5.583  1.00  0.00    -0.268 OA
HETATM   12  H   UNL     1      42.765 -19.701   6.170  1.00  0.00     0.162 HD
BRANCH  10  13
HETATM   13  C   UNL     1      44.364 -20.034   4.179  1.00  0.00     0.032 A 
HETATM   14  C   UNL     1      43.721 -19.414   3.098  1.00  0.00     0.017 A 
HETATM   15  C   UNL     1      43.484 -20.130   1.920  1.00  0.00     0.001 A 
HETATM   16  C   UNL     1      43.874 -21.465   1.821  1.00  0.00     0.000 A 
HETATM   17  C   UNL     1      44.494 -22.093   2.900  1.00  0.00     0.001 A 
HETATM   18  C   UNL     1      44.737 -21.381   4.076  1.00  0.00     0.017 A 
ENDBRANCH  10  13
ENDBRANCH   8   9
ENDBRANCH   7   8
ENDBRANCH   4   7
ENDBRANCH   2   3
BRANCH   1  19
HETATM   19  C   UNL     1      41.619 -15.535   2.281  1.00  0.00     0.062 C 
HETATM   20  C   UNL     1      42.036 -14.220   1.963  1.00  0.00     0.067 C 
HETATM   21  C   UNL     1      42.763 -13.251   2.821  1.00  0.00     0.073 C 
HETATM   22  N   UNL     1      41.734 -13.890   0.702  1.00  0.00    -0.169 NA
HETATM   23  N   UNL     1      41.013 -14.940   0.227  1.00  0.00    -0.210 N 
HETATM   24  C   UNL     1      41.054 -16.015   1.116  1.00  0.00     0.177 C 
BRANCH  23  25
HETATM   25  C   UNL     1      40.338 -14.834  -1.025  1.00  0.00     0.061 A 
HETATM   26  C   UNL     1      40.892 -15.452  -2.157  1.00  0.00     0.031 A 
HETATM   27  C   UNL     1      40.250 -15.366  -3.393  1.00  0.00     0.002 A 
HETATM   28  C   UNL     1      39.061 -14.649  -3.515  1.00  0.00     0.000 A 
HETATM   29  C   UNL     1      38.521 -14.006  -2.403  1.00  0.00     0.002 A 
HETATM   30  C   UNL     1      39.158 -14.090  -1.162  1.00  0.00     0.031 A 
ENDBRANCH  23  25
BRANCH  24  31
HETATM   31  O   UNL     1      40.637 -17.255   0.843  1.00  0.00    -0.344 OA
HETATM   32  H   UNL     1      41.385 -17.753   0.465  1.00  0.00     0.219 HD
ENDBRANCH  24  31
ENDBRANCH   1  19
TORSDOF 8
ENDMDL
MODEL 6
REMARK VINA RESULT:      -8.4      4.343      8.513
REMARK  8 active torsions:
REMARK  status: ('A' for Active; 'I' for Inactive)
REMARK    1  A    between atoms: N_4  and  C_5 
REMARK    2  A    between atoms: C_11  and  O_12 
REMARK    3  A    between atoms: C_13  and  C_14 
REMARK    4  A    between atoms: N_15  and  N_16 
REMARK       I    between atoms: N_16  and  C_17 
REMARK    5  A    between atoms: C_17  and  C_18 
REMARK    6  A    between atoms: C_18  and  C_19 
REMARK    7  A    between atoms: C_19  and  N_20 
REMARK       I    between atoms: N_20  and  C_21 
REMARK    8  A    between atoms: C_21  and  C_22 
ROOT
HETATM    1  C   UNL     1      41.769 -16.860   3.965  1.00  0.00     0.156 C 
HETATM    2  N   UNL     1      41.799 -16.106   5.018  1.00  0.00    -0.184 NA
ENDROOT
BRANCH   2   3
HETATM    3  N   UNL     1      42.119 -16.705   6.215  1.00  0.00    -0.247 N 
HETATM    4  C   UNL     1      43.315 -16.500   6.901  1.00  0.00     0.239 C 
HETATM    5  O   UNL     1      44.259 -15.826   6.498  1.00  0.00    -0.272 OA
HETATM    6  H   UNL     1      41.307 -16.981   6.760  1.00  0.00     0.192 HD
BRANCH   4   7
HETATM    7  C   UNL     1      43.356 -17.267   8.205  1.00  0.00     0.124 C 
BRANCH   7   8
HETATM    8  C   UNL     1      44.218 -18.518   8.079  1.00  0.00     0.132 C 
BRANCH   8   9
HETATM    9  N   UNL     1      44.265 -19.058   6.729  1.00  0.00    -0.356 N 
HETATM   10  C   UNL     1      44.007 -20.388   6.465  1.00  0.00     0.251 C 
HETATM   11  O   UNL     1      43.611 -21.177   7.316  1.00  0.00    -0.268 OA
HETATM   12  H   UNL     1      44.827 -18.545   6.064  1.00  0.00     0.162 HD
BRANCH  10  13
HETATM   13  C   UNL     1      44.267 -20.855   5.071  1.00  0.00     0.032 A 
HETATM   14  C   UNL     1      44.276 -19.981   3.974  1.00  0.00     0.017 A 
HETATM   15  C   UNL     1      44.537 -20.470   2.691  1.00  0.00     0.001 A 
HETATM   16  C   UNL     1      44.776 -21.829   2.495  1.00  0.00     0.000 A 
HETATM   17  C   UNL     1      44.748 -22.706   3.577  1.00  0.00     0.001 A 
HETATM   18  C   UNL     1      44.492 -22.222   4.862  1.00  0.00     0.017 A 
ENDBRANCH  10  13
ENDBRANCH   8   9
ENDBRANCH   7   8
ENDBRANCH   4   7
ENDBRANCH   2   3
BRANCH   1  19
HETATM   19  C   UNL     1      41.464 -16.276   2.680  1.00  0.00     0.062 C 
HETATM   20  C   UNL     1      42.044 -16.481   1.405  1.00  0.00     0.067 C 
HETATM   21  C   UNL     1      43.162 -17.385   1.036  1.00  0.00     0.073 C 
HETATM   22  N   UNL     1      41.433 -15.762   0.456  1.00  0.00    -0.169 NA
HETATM   23  N   UNL     1      40.531 -14.994   1.122  1.00  0.00    -0.210 N 
HETATM   24  C   UNL     1      40.426 -15.392   2.455  1.00  0.00     0.177 C 
BRANCH  23  25
HETATM   25  C   UNL     1      39.851 -13.941   0.442  1.00  0.00     0.061 A 
HETATM   26  C   UNL     1      40.536 -12.746   0.170  1.00  0.00     0.031 A 
HETATM   27  C   UNL     1      39.894 -11.701  -0.496  1.00  0.00     0.002 A 
HETATM   28  C   UNL     1      38.561 -11.832  -0.881  1.00  0.00     0.000 A 
HETATM   29  C   UNL     1      37.864 -13.002  -0.588  1.00  0.00     0.002 A 
HETATM   30  C   UNL     1      38.502 -14.054   0.077  1.00  0.00     0.031 A 
ENDBRANCH  23  25
BRANCH  24  31
HETATM   31  O   UNL     1      39.478 -14.989   3.306  1.00  0.00    -0.344 OA
HETATM   32  H   UNL     1      39.852 -14.994   4.207  1.00  0.00     0.219 HD
ENDBRANCH  24  31
ENDBRANCH   1  19
TORSDOF 8
ENDMDL
MODEL 7
REMARK VINA RESULT:      -8.2      4.024      8.207
REMARK  8 active torsions:
REMARK  status: ('A' for Active; 'I' for Inactive)
REMARK    1  A    between atoms: N_4  and  C_5 
REMARK    2  A    between atoms: C_11  and  O_12 
REMARK    3  A    between atoms: C_13  and  C_14 
REMARK    4  A    between atoms: N_15  and  N_16 
REMARK       I    between atoms: N_16  and  C_17 
REMARK    5  A    between atoms: C_17  and  C_18 
REMARK    6  A    between atoms: C_18  and  C_19 
REMARK    7  A    between atoms: C_19  and  N_20 
REMARK       I    between atoms: N_20  and  C_21 
REMARK    8  A    between atoms: C_21  and  C_22 
ROOT
HETATM    1  C   UNL     1      42.637 -14.566   2.669  1.00  0.00     0.156 C 
HETATM    2  N   UNL     1      43.446 -13.648   3.095  1.00  0.00    -0.184 NA
ENDROOT
BRANCH   2   3
HETATM    3  N   UNL     1      43.953 -13.793   4.366  1.00  0.00    -0.247 N 
HETATM    4  C   UNL     1      43.183 -14.080   5.492  1.00  0.00     0.239 C 
HETATM    5  O   UNL     1      41.958 -14.167   5.511  1.00  0.00    -0.272 OA
HETATM    6  H   UNL     1      44.930 -14.071   4.383  1.00  0.00     0.192 HD
BRANCH   4   7
HETATM    7  C   UNL     1      44.033 -14.218   6.737  1.00  0.00     0.124 C 
BRANCH   7   8
HETATM    8  C   UNL     1      44.219 -15.684   7.114  1.00  0.00     0.132 C 
BRANCH   8   9
HETATM    9  N   UNL     1      44.007 -16.601   6.005  1.00  0.00    -0.356 N 
HETATM   10  C   UNL     1      44.413 -17.919   6.060  1.00  0.00     0.251 C 
HETATM   11  O   UNL     1      44.869 -18.439   7.072  1.00  0.00    -0.268 OA
HETATM   12  H   UNL     1      43.893 -16.179   5.094  1.00  0.00     0.162 HD
BRANCH  10  13
HETATM   13  C   UNL     1      44.305 -18.704   4.795  1.00  0.00     0.032 A 
HETATM   14  C   UNL     1      43.653 -18.209   3.656  1.00  0.00     0.017 A 
HETATM   15  C   UNL     1      43.592 -18.982   2.493  1.00  0.00     0.001 A 
HETATM   16  C   UNL     1      44.165 -20.253   2.465  1.00  0.00     0.000 A 
HETATM   17  C   UNL     1      44.795 -20.759   3.600  1.00  0.00     0.001 A 
HETATM   18  C   UNL     1      44.863 -19.989   4.763  1.00  0.00     0.017 A 
ENDBRANCH  10  13
ENDBRANCH   8   9
ENDBRANCH   7   8
ENDBRANCH   4   7
ENDBRANCH   2   3
BRANCH   1  19
HETATM   19  C   UNL     1      42.097 -14.475   1.333  1.00  0.00     0.062 C 
HETATM   20  C   UNL     1      41.478 -15.448   0.513  1.00  0.00     0.067 C 
HETATM   21  C   UNL     1      41.207 -16.875   0.820  1.00  0.00     0.073 C 
HETATM   22  N   UNL     1      41.081 -14.936  -0.659  1.00  0.00    -0.169 NA
HETATM   23  N   UNL     1      41.545 -13.659  -0.660  1.00  0.00    -0.210 N 
HETATM   24  C   UNL     1      42.038 -13.307   0.597  1.00  0.00     0.177 C 
BRANCH  23  25
HETATM   25  C   UNL     1      41.492 -12.882  -1.855  1.00  0.00     0.061 A 
HETATM   26  C   UNL     1      40.261 -12.714  -2.508  1.00  0.00     0.031 A 
HETATM   27  C   UNL     1      40.181 -11.956  -3.678  1.00  0.00     0.002 A 
HETATM   28  C   UNL     1      41.329 -11.374  -4.214  1.00  0.00     0.000 A 
HETATM   29  C   UNL     1      42.560 -11.561  -3.588  1.00  0.00     0.002 A 
HETATM   30  C   UNL     1      42.647 -12.318  -2.416  1.00  0.00     0.031 A 
ENDBRANCH  23  25
BRANCH  24  31
HETATM   31  O   UNL     1      42.356 -12.066   0.979  1.00  0.00    -0.344 OA
HETATM   32  H   UNL     1      41.884 -11.871   1.810  1.00  0.00     0.219 HD
ENDBRANCH  24  31
ENDBRANCH   1  19
TORSDOF 8
ENDMDL
MODEL 8
REMARK VINA RESULT:      -8.2      6.202     10.099
REMARK  8 active torsions:
REMARK  status: ('A' for Active; 'I' for Inactive)
REMARK    1  A    between atoms: N_4  and  C_5 
REMARK    2  A    between atoms: C_11  and  O_12 
REMARK    3  A    between atoms: C_13  and  C_14 
REMARK    4  A    between atoms: N_15  and  N_16 
REMARK       I    between atoms: N_16  and  C_17 
REMARK    5  A    between atoms: C_17  and  C_18 
REMARK    6  A    between atoms: C_18  and  C_19 
REMARK    7  A    between atoms: C_19  and  N_20 
REMARK       I    between atoms: N_20  and  C_21 
REMARK    8  A    between atoms: C_21  and  C_22 
ROOT
HETATM    1  C   UNL     1      40.893 -13.920  -0.289  1.00  0.00     0.156 C 
HETATM    2  N   UNL     1      40.884 -15.127   0.181  1.00  0.00    -0.184 NA
ENDROOT
BRANCH   2   3
HETATM    3  N   UNL     1      41.531 -15.345   1.376  1.00  0.00    -0.247 N 
HETATM    4  C   UNL     1      40.899 -15.382   2.618  1.00  0.00     0.239 C 
HETATM    5  O   UNL     1      39.708 -15.156   2.815  1.00  0.00    -0.272 OA
HETATM    6  H   UNL     1      42.402 -15.860   1.277  1.00  0.00     0.192 HD
BRANCH   4   7
HETATM    7  C   UNL     1      41.873 -15.680   3.738  1.00  0.00     0.124 C 
BRANCH   7   8
HETATM    8  C   UNL     1      43.274 -15.932   3.193  1.00  0.00     0.132 C 
BRANCH   8   9
HETATM    9  N   UNL     1      43.727 -17.304   3.366  1.00  0.00    -0.356 N 
HETATM   10  C   UNL     1      43.662 -18.229   2.344  1.00  0.00     0.251 C 
HETATM   11  O   UNL     1      43.332 -17.941   1.198  1.00  0.00    -0.268 OA
HETATM   12  H   UNL     1      43.748 -17.649   4.315  1.00  0.00     0.162 HD
BRANCH  10  13
HETATM   13  C   UNL     1      43.984 -19.642   2.700  1.00  0.00     0.032 A 
HETATM   14  C   UNL     1      44.583 -19.992   3.919  1.00  0.00     0.017 A 
HETATM   15  C   UNL     1      44.853 -21.333   4.207  1.00  0.00     0.001 A 
HETATM   16  C   UNL     1      44.541 -22.326   3.279  1.00  0.00     0.000 A 
HETATM   17  C   UNL     1      43.966 -21.982   2.057  1.00  0.00     0.001 A 
HETATM   18  C   UNL     1      43.690 -20.645   1.767  1.00  0.00     0.017 A 
ENDBRANCH  10  13
ENDBRANCH   8   9
ENDBRANCH   7   8
ENDBRANCH   4   7
ENDBRANCH   2   3
BRANCH   1  19
HETATM   19  C   UNL     1      40.206 -13.633  -1.526  1.00  0.00     0.062 C 
HETATM   20  C   UNL     1      40.679 -13.101  -2.750  1.00  0.00     0.067 C 
HETATM   21  C   UNL     1      42.060 -12.683  -3.100  1.00  0.00     0.073 C 
HETATM   22  N   UNL     1      39.711 -13.029  -3.672  1.00  0.00    -0.169 NA
HETATM   23  N   UNL     1      38.578 -13.399  -3.021  1.00  0.00    -0.210 N 
HETATM   24  C   UNL     1      38.873 -13.911  -1.757  1.00  0.00     0.177 C 
BRANCH  23  25
HETATM   25  C   UNL     1      37.307 -13.226  -3.647  1.00  0.00     0.061 A 
HETATM   26  C   UNL     1      36.706 -14.320  -4.288  1.00  0.00     0.031 A 
HETATM   27  C   UNL     1      35.462 -14.178  -4.906  1.00  0.00     0.002 A 
HETATM   28  C   UNL     1      34.817 -12.943  -4.904  1.00  0.00     0.000 A 
HETATM   29  C   UNL     1      35.421 -11.844  -4.296  1.00  0.00     0.002 A 
HETATM   30  C   UNL     1      36.666 -11.980  -3.674  1.00  0.00     0.031 A 
ENDBRANCH  23  25
BRANCH  24  31
HETATM   31  O   UNL     1      38.010 -14.558  -0.969  1.00  0.00    -0.344 OA
HETATM   32  H   UNL     1      38.468 -15.326  -0.578  1.00  0.00     0.219 HD
ENDBRANCH  24  31
ENDBRANCH   1  19
TORSDOF 8
ENDMDL
MODEL 9
REMARK VINA RESULT:      -8.2      1.727      2.151
REMARK  8 active torsions:
REMARK  status: ('A' for Active; 'I' for Inactive)
REMARK    1  A    between atoms: N_4  and  C_5 
REMARK    2  A    between atoms: C_11  and  O_12 
REMARK    3  A    between atoms: C_13  and  C_14 
REMARK    4  A    between atoms: N_15  and  N_16 
REMARK       I    between atoms: N_16  and  C_17 
REMARK    5  A    between atoms: C_17  and  C_18 
REMARK    6  A    between atoms: C_18  and  C_19 
REMARK    7  A    between atoms: C_19  and  N_20 
REMARK       I    between atoms: N_20  and  C_21 
REMARK    8  A    between atoms: C_21  and  C_22 
ROOT
HETATM    1  C   UNL     1      39.939 -14.049   4.692  1.00  0.00     0.156 C 
HETATM    2  N   UNL     1      40.139 -14.051   5.973  1.00  0.00    -0.184 NA
ENDROOT
BRANCH   2   3
HETATM    3  N   UNL     1      39.559 -13.040   6.703  1.00  0.00    -0.247 N 
HETATM    4  C   UNL     1      40.115 -11.772   6.871  1.00  0.00     0.239 C 
HETATM    5  O   UNL     1      41.215 -11.419   6.456  1.00  0.00    -0.272 OA
HETATM    6  H   UNL     1      38.549 -13.123   6.780  1.00  0.00     0.192 HD
BRANCH   4   7
HETATM    7  C   UNL     1      39.222 -10.868   7.693  1.00  0.00     0.124 C 
BRANCH   7   8
HETATM    8  C   UNL     1      39.602 -10.918   9.169  1.00  0.00     0.132 C 
BRANCH   8   9
HETATM    9  N   UNL     1      40.983 -11.311   9.400  1.00  0.00    -0.356 N 
HETATM   10  C   UNL     1      41.980 -10.381   9.620  1.00  0.00     0.251 C 
HETATM   11  O   UNL     1      41.761  -9.181   9.750  1.00  0.00    -0.268 OA
HETATM   12  H   UNL     1      41.254 -12.218   9.048  1.00  0.00     0.162 HD
BRANCH  10  13
HETATM   13  C   UNL     1      43.379 -10.898   9.660  1.00  0.00     0.032 A 
HETATM   14  C   UNL     1      43.879 -11.791   8.701  1.00  0.00     0.017 A 
HETATM   15  C   UNL     1      45.202 -12.235   8.779  1.00  0.00     0.001 A 
HETATM   16  C   UNL     1      46.026 -11.803   9.818  1.00  0.00     0.000 A 
HETATM   17  C   UNL     1      45.529 -10.933  10.787  1.00  0.00     0.001 A 
HETATM   18  C   UNL     1      44.209 -10.483  10.710  1.00  0.00     0.017 A 
ENDBRANCH  10  13
ENDBRANCH   8   9
ENDBRANCH   7   8
ENDBRANCH   4   7
ENDBRANCH   2   3
BRANCH   1  19
HETATM   19  C   UNL     1      40.503 -15.103   3.883  1.00  0.00     0.062 C 
HETATM   20  C   UNL     1      40.127 -15.602   2.613  1.00  0.00     0.067 C 
HETATM   21  C   UNL     1      39.010 -15.156   1.742  1.00  0.00     0.073 C 
HETATM   22  N   UNL     1      40.947 -16.573   2.192  1.00  0.00    -0.169 NA
HETATM   23  N   UNL     1      41.791 -16.796   3.234  1.00  0.00    -0.210 N 
HETATM   24  C   UNL     1      41.638 -15.817   4.217  1.00  0.00     0.177 C 
BRANCH  23  25
HETATM   25  C   UNL     1      42.664 -17.923   3.215  1.00  0.00     0.061 A 
HETATM   26  C   UNL     1      43.490 -18.168   4.324  1.00  0.00     0.031 A 
HETATM   27  C   UNL     1      44.352 -19.266   4.332  1.00  0.00     0.002 A 
HETATM   28  C   UNL     1      44.410 -20.117   3.230  1.00  0.00     0.000 A 
HETATM   29  C   UNL     1      43.617 -19.864   2.114  1.00  0.00     0.002 A 
HETATM   30  C   UNL     1      42.750 -18.767   2.099  1.00  0.00     0.031 A 
ENDBRANCH  23  25
BRANCH  24  31
HETATM   31  O   UNL     1      42.464 -15.630   5.251  1.00  0.00    -0.344 OA
HETATM   32  H   UNL     1      42.213 -16.250   5.960  1.00  0.00     0.219 HD
ENDBRANCH  24  31
ENDBRANCH   1  19
TORSDOF 8
ENDMDL
MODEL 10
REMARK VINA RESULT:      -8.1      2.182     10.165
REMARK  8 active torsions:
REMARK  status: ('A' for Active; 'I' for Inactive)
REMARK    1  A    between atoms: N_4  and  C_5 
REMARK    2  A    between atoms: C_11  and  O_12 
REMARK    3  A    between atoms: C_13  and  C_14 
REMARK    4  A    between atoms: N_15  and  N_16 
REMARK       I    between atoms: N_16  and  C_17 
REMARK    5  A    between atoms: C_17  and  C_18 
REMARK    6  A    between atoms: C_18  and  C_19 
REMARK    7  A    between atoms: C_19  and  N_20 
REMARK       I    between atoms: N_20  and  C_21 
REMARK    8  A    between atoms: C_21  and  C_22 
ROOT
HETATM    1  C   UNL     1      41.682 -10.977   6.663  1.00  0.00     0.156 C 
HETATM    2  N   UNL     1      41.977 -12.214   6.417  1.00  0.00    -0.184 NA
ENDROOT
BRANCH   2   3
HETATM    3  N   UNL     1      42.352 -12.530   5.131  1.00  0.00    -0.247 N 
HETATM    4  C   UNL     1      43.005 -13.707   4.768  1.00  0.00     0.239 C 
HETATM    5  O   UNL     1      43.394 -14.572   5.548  1.00  0.00    -0.272 OA
HETATM    6  H   UNL     1      41.792 -12.066   4.420  1.00  0.00     0.192 HD
BRANCH   4   7
HETATM    7  C   UNL     1      43.247 -13.781   3.275  1.00  0.00     0.124 C 
BRANCH   7   8
HETATM    8  C   UNL     1      42.486 -14.947   2.655  1.00  0.00     0.132 C 
BRANCH   8   9
HETATM    9  N   UNL     1      43.173 -16.223   2.781  1.00  0.00    -0.356 N 
HETATM   10  C   UNL     1      42.551 -17.419   2.488  1.00  0.00     0.251 C 
HETATM   11  O   UNL     1      41.430 -17.490   1.995  1.00  0.00    -0.268 OA
HETATM   12  H   UNL     1      43.962 -16.243   3.412  1.00  0.00     0.162 HD
BRANCH  10  13
HETATM   13  C   UNL     1      43.300 -18.664   2.833  1.00  0.00     0.032 A 
HETATM   14  C   UNL     1      44.003 -18.808   4.037  1.00  0.00     0.017 A 
HETATM   15  C   UNL     1      44.678 -20.001   4.315  1.00  0.00     0.001 A 
HETATM   16  C   UNL     1      44.666 -21.045   3.391  1.00  0.00     0.000 A 
HETATM   17  C   UNL     1      43.987 -20.899   2.182  1.00  0.00     0.001 A 
HETATM   18  C   UNL     1      43.307 -19.712   1.903  1.00  0.00     0.017 A 
ENDBRANCH  10  13
ENDBRANCH   8   9
ENDBRANCH   7   8
ENDBRANCH   4   7
ENDBRANCH   2   3
BRANCH   1  19
HETATM   19  C   UNL     1      41.308 -10.588   8.002  1.00  0.00     0.062 C 
HETATM   20  C   UNL     1      40.195  -9.855   8.480  1.00  0.00     0.067 C 
HETATM   21  C   UNL     1      39.074  -9.270   7.703  1.00  0.00     0.073 C 
HETATM   22  N   UNL     1      40.203  -9.746   9.815  1.00  0.00    -0.169 NA
HETATM   23  N   UNL     1      41.380 -10.301  10.206  1.00  0.00    -0.210 N 
HETATM   24  C   UNL     1      42.002 -10.952   9.140  1.00  0.00     0.177 C 
BRANCH  23  25
HETATM   25  C   UNL     1      41.821 -10.161  11.555  1.00  0.00     0.061 A 
HETATM   26  C   UNL     1      43.068  -9.570  11.809  1.00  0.00     0.031 A 
HETATM   27  C   UNL     1      43.523  -9.418  13.121  1.00  0.00     0.002 A 
HETATM   28  C   UNL     1      42.746  -9.869  14.186  1.00  0.00     0.000 A 
HETATM   29  C   UNL     1      41.520 -10.485  13.941  1.00  0.00     0.002 A 
HETATM   30  C   UNL     1      41.058 -10.639  12.630  1.00  0.00     0.031 A 
ENDBRANCH  23  25
BRANCH  24  31
HETATM   31  O   UNL     1      43.049 -11.775   9.247  1.00  0.00    -0.344 OA
HETATM   32  H   UNL     1      42.761 -12.578   9.720  1.00  0.00     0.219 HD
ENDBRANCH  24  31
ENDBRANCH   1  19
TORSDOF 8
ENDMDL
