MODEL 1
REMARK VINA RESULT:      -9.2      0.000      0.000
REMARK  6 active torsions:
REMARK  status: ('A' for Active; 'I' for Inactive)
REMARK    1  A    between atoms: C_2  and  O_3 
REMARK    2  A    between atoms: C_2  and  C_4 
REMARK    3  A    between atoms: C_6  and  N_7 
REMARK       I    between atoms: N_7  and  C_8 
REMARK    4  A    between atoms: C_8  and  C_9 
REMARK    5  A    between atoms: C_12  and  C_13 
REMARK    6  A    between atoms: C_18  and  C_19 
ROOT
HETATM    1  C   UNL     1      41.126 -14.312   2.272  1.00  0.00     0.096 C 
HETATM    2  C   UNL     1      41.455 -15.193   3.286  1.00  0.00     0.138 C 
HETATM    3  N   UNL     1      42.607 -14.695   3.854  1.00  0.00    -0.240 N 
HETATM    4  C   UNL     1      43.316 -15.320   4.956  1.00  0.00     0.221 C 
HETATM    5  C   UNL     1      42.406 -16.350   5.652  1.00  0.00     0.066 C 
HETATM    6  C   UNL     1      41.670 -17.228   4.630  1.00  0.00     0.118 C 
HETATM    7  N   UNL     1      40.899 -16.358   3.726  1.00  0.00    -0.365 N 
HETATM    8  N   UNL     1      43.136 -13.668   3.172  1.00  0.00    -0.181 NA
HETATM    9  C   UNL     1      42.223 -13.420   2.229  1.00  0.00     0.160 C 
HETATM   10  H   UNL     1      40.326 -16.898   3.074  1.00  0.00     0.161 HD
ENDROOT
BRANCH   1  11
HETATM   11  C   UNL     1      39.963 -14.288   1.402  1.00  0.00     0.261 C 
HETATM   12  N   UNL     1      40.165 -13.568   0.239  1.00  0.00    -0.323 N 
HETATM   13  H   UNL     1      41.106 -13.211   0.109  1.00  0.00     0.169 HD
HETATM   14  O   UNL     1      38.951 -14.911   1.701  1.00  0.00    -0.267 OA
BRANCH  12  15
HETATM   15  C   UNL     1      39.276 -13.412  -0.843  1.00  0.00     0.035 A 
HETATM   16  C   UNL     1      38.950 -14.437  -1.737  1.00  0.00     0.039 A 
HETATM   17  C   UNL     1      38.079 -14.208  -2.818  1.00  0.00    -0.028 A 
HETATM   18  C   UNL     1      37.543 -12.925  -2.997  1.00  0.00     0.010 A 
HETATM   19  C   UNL     1      37.848 -11.903  -2.101  1.00  0.00     0.003 A 
HETATM   20  C   UNL     1      38.705 -12.148  -1.026  1.00  0.00     0.029 A 
BRANCH  17  21
HETATM   21  C   UNL     1      37.772 -15.333  -3.785  1.00  0.00     0.147 C 
HETATM   22  C   UNL     1      39.023 -16.110  -4.169  1.00  0.00     0.044 C 
BRANCH  21  23
HETATM   23  O   UNL     1      37.164 -14.823  -4.971  1.00  0.00    -0.391 OA
HETATM   24  H   UNL     1      36.948 -13.892  -4.794  1.00  0.00     0.210 HD
ENDBRANCH  21  23
ENDBRANCH  17  21
ENDBRANCH  12  15
ENDBRANCH   1  11
BRANCH   4  25
HETATM   25  C   UNL     1      43.787 -14.301   5.970  1.00  0.00     0.409 C 
HETATM   26  F   UNL     1      44.959 -13.716   5.652  1.00  0.00    -0.169 F 
HETATM   27  F   UNL     1      42.870 -13.330   6.185  1.00  0.00    -0.169 F 
HETATM   28  F   UNL     1      43.985 -14.912   7.170  1.00  0.00    -0.169 F 
ENDBRANCH   4  25
BRANCH   6  29
HETATM   29  C   UNL     1      42.599 -18.201   3.912  1.00  0.00    -0.035 A 
HETATM   30  C   UNL     1      43.536 -18.927   4.673  1.00  0.00     0.009 A 
HETATM   31  C   UNL     1      44.436 -19.806   4.066  1.00  0.00     0.001 A 
HETATM   32  C   UNL     1      44.411 -19.985   2.687  1.00  0.00     0.000 A 
HETATM   33  C   UNL     1      43.486 -19.289   1.917  1.00  0.00     0.001 A 
HETATM   34  C   UNL     1      42.587 -18.406   2.523  1.00  0.00     0.009 A 
ENDBRANCH   6  29
TORSDOF 6
ENDMDL
MODEL 2
REMARK VINA RESULT:      -9.1      1.353      1.648
REMARK  6 active torsions:
REMARK  status: ('A' for Active; 'I' for Inactive)
REMARK    1  A    between atoms: C_2  and  O_3 
REMARK    2  A    between atoms: C_2  and  C_4 
REMARK    3  A    between atoms: C_6  and  N_7 
REMARK       I    between atoms: N_7  and  C_8 
REMARK    4  A    between atoms: C_8  and  C_9 
REMARK    5  A    between atoms: C_12  and  C_13 
REMARK    6  A    between atoms: C_18  and  C_19 
ROOT
HETATM    1  C   UNL     1      42.011 -14.628   2.618  1.00  0.00     0.096 C 
HETATM    2  C   UNL     1      42.116 -15.611   3.585  1.00  0.00     0.138 C 
HETATM    3  N   UNL     1      43.162 -15.227   4.395  1.00  0.00    -0.240 N 
HETATM    4  C   UNL     1      43.635 -15.984   5.541  1.00  0.00     0.221 C 
HETATM    5  C   UNL     1      42.576 -17.021   5.961  1.00  0.00     0.066 C 
HETATM    6  C   UNL     1      42.008 -17.765   4.744  1.00  0.00     0.118 C 
HETATM    7  N   UNL     1      41.448 -16.780   3.805  1.00  0.00    -0.365 N 
HETATM    8  N   UNL     1      43.844 -14.174   3.921  1.00  0.00    -0.181 NA
HETATM    9  C   UNL     1      43.129 -13.795   2.858  1.00  0.00     0.160 C 
HETATM   10  H   UNL     1      40.984 -17.229   3.013  1.00  0.00     0.161 HD
ENDROOT
BRANCH   1  11
HETATM   11  C   UNL     1      41.028 -14.467   1.560  1.00  0.00     0.261 C 
HETATM   12  N   UNL     1      41.565 -13.967   0.388  1.00  0.00    -0.323 N 
HETATM   13  H   UNL     1      42.572 -13.845   0.391  1.00  0.00     0.169 HD
HETATM   14  O   UNL     1      39.865 -14.810   1.736  1.00  0.00    -0.267 OA
BRANCH  12  15
HETATM   15  C   UNL     1      40.908 -13.765  -0.842  1.00  0.00     0.035 A 
HETATM   16  C   UNL     1      40.507 -14.802  -1.690  1.00  0.00     0.039 A 
HETATM   17  C   UNL     1      39.883 -14.533  -2.923  1.00  0.00    -0.028 A 
HETATM   18  C   UNL     1      39.675 -13.199  -3.299  1.00  0.00     0.010 A 
HETATM   19  C   UNL     1      40.054 -12.160  -2.452  1.00  0.00     0.003 A 
HETATM   20  C   UNL     1      40.661 -12.444  -1.227  1.00  0.00     0.029 A 
BRANCH  17  21
HETATM   21  C   UNL     1      39.491 -15.680  -3.830  1.00  0.00     0.147 C 
HETATM   22  C   UNL     1      38.032 -15.595  -4.257  1.00  0.00     0.044 C 
BRANCH  21  23
HETATM   23  O   UNL     1      39.709 -16.932  -3.180  1.00  0.00    -0.391 OA
HETATM   24  H   UNL     1      40.626 -17.189  -3.375  1.00  0.00     0.210 HD
ENDBRANCH  21  23
ENDBRANCH  17  21
ENDBRANCH  12  15
ENDBRANCH   1  11
BRANCH   4  25
HETATM   25  C   UNL     1      43.949 -15.083   6.716  1.00  0.00     0.409 C 
HETATM   26  F   UNL     1      45.232 -14.671   6.760  1.00  0.00    -0.169 F 
HETATM   27  F   UNL     1      43.149 -13.993   6.756  1.00  0.00    -0.169 F 
HETATM   28  F   UNL     1      43.731 -15.760   7.878  1.00  0.00    -0.169 F 
ENDBRANCH   4  25
BRANCH   6  29
HETATM   29  C   UNL     1      43.017 -18.719   4.114  1.00  0.00    -0.035 A 
HETATM   30  C   UNL     1      42.946 -18.958   2.728  1.00  0.00     0.009 A 
HETATM   31  C   UNL     1      43.820 -19.849   2.101  1.00  0.00     0.001 A 
HETATM   32  C   UNL     1      44.789 -20.512   2.846  1.00  0.00     0.000 A 
HETATM   33  C   UNL     1      44.886 -20.283   4.214  1.00  0.00     0.001 A 
HETATM   34  C   UNL     1      44.010 -19.394   4.843  1.00  0.00     0.009 A 
ENDBRANCH   6  29
TORSDOF 6
ENDMDL
MODEL 3
REMARK VINA RESULT:      -9.1      3.232      8.172
REMARK  6 active torsions:
REMARK  status: ('A' for Active; 'I' for Inactive)
REMARK    1  A    between atoms: C_2  and  O_3 
REMARK    2  A    between atoms: C_2  and  C_4 
REMARK    3  A    between atoms: C_6  and  N_7 
REMARK       I    between atoms: N_7  and  C_8 
REMARK    4  A    between atoms: C_8  and  C_9 
REMARK    5  A    between atoms: C_12  and  C_13 
REMARK    6  A    between atoms: C_18  and  C_19 
ROOT
HETATM    1  C   UNL     1      41.415 -15.901   1.729  1.00  0.00     0.096 C 
HETATM    2  C   UNL     1      41.175 -14.945   0.759  1.00  0.00     0.138 C 
HETATM    3  N   UNL     1      40.032 -14.287   1.157  1.00  0.00    -0.240 N 
HETATM    4  C   UNL     1      39.406 -13.206   0.418  1.00  0.00     0.221 C 
HETATM    5  C   UNL     1      40.392 -12.636  -0.619  1.00  0.00     0.066 C 
HETATM    6  C   UNL     1      41.113 -13.757  -1.381  1.00  0.00     0.118 C 
HETATM    7  N   UNL     1      41.800 -14.625  -0.410  1.00  0.00    -0.365 N 
HETATM    8  N   UNL     1      39.426 -14.861   2.208  1.00  0.00    -0.181 NA
HETATM    9  C   UNL     1      40.280 -15.823   2.570  1.00  0.00     0.160 C 
HETATM   10  H   UNL     1      42.363 -15.343  -0.871  1.00  0.00     0.161 HD
ENDROOT
BRANCH   1  11
HETATM   11  C   UNL     1      42.531 -16.820   1.873  1.00  0.00     0.261 C 
HETATM   12  N   UNL     1      42.525 -17.503   3.075  1.00  0.00    -0.323 N 
HETATM   13  H   UNL     1      41.718 -17.331   3.666  1.00  0.00     0.169 HD
HETATM   14  O   UNL     1      43.334 -16.969   0.959  1.00  0.00    -0.267 OA
BRANCH  12  15
HETATM   15  C   UNL     1      43.412 -18.513   3.497  1.00  0.00     0.035 A 
HETATM   16  C   UNL     1      43.681 -19.670   2.759  1.00  0.00     0.039 A 
HETATM   17  C   UNL     1      44.554 -20.658   3.251  1.00  0.00    -0.028 A 
HETATM   18  C   UNL     1      45.150 -20.473   4.506  1.00  0.00     0.010 A 
HETATM   19  C   UNL     1      44.902 -19.314   5.239  1.00  0.00     0.003 A 
HETATM   20  C   UNL     1      44.042 -18.337   4.733  1.00  0.00     0.029 A 
BRANCH  17  21
HETATM   21  C   UNL     1      44.798 -21.913   2.440  1.00  0.00     0.147 C 
HETATM   22  C   UNL     1      43.817 -22.044   1.283  1.00  0.00     0.044 C 
BRANCH  21  23
HETATM   23  O   UNL     1      44.693 -23.073   3.266  1.00  0.00    -0.391 OA
HETATM   24  H   UNL     1      43.754 -23.322   3.276  1.00  0.00     0.210 HD
ENDBRANCH  21  23
ENDBRANCH  17  21
ENDBRANCH  12  15
ENDBRANCH   1  11
BRANCH   4  25
HETATM   25  C   UNL     1      38.943 -12.094   1.334  1.00  0.00     0.409 C 
HETATM   26  F   UNL     1      37.706 -12.280   1.835  1.00  0.00    -0.169 F 
HETATM   27  F   UNL     1      39.795 -11.891   2.365  1.00  0.00    -0.169 F 
HETATM   28  F   UNL     1      38.897 -10.924   0.640  1.00  0.00    -0.169 F 
ENDBRANCH   4  25
BRANCH   6  29
HETATM   29  C   UNL     1      40.192 -14.506  -2.338  1.00  0.00    -0.035 A 
HETATM   30  C   UNL     1      40.570 -15.791  -2.773  1.00  0.00     0.009 A 
HETATM   31  C   UNL     1      39.785 -16.509  -3.678  1.00  0.00     0.001 A 
HETATM   32  C   UNL     1      38.599 -15.962  -4.157  1.00  0.00     0.000 A 
HETATM   33  C   UNL     1      38.200 -14.700  -3.732  1.00  0.00     0.001 A 
HETATM   34  C   UNL     1      38.987 -13.979  -2.829  1.00  0.00     0.009 A 
ENDBRANCH   6  29
TORSDOF 6
ENDMDL
MODEL 4
REMARK VINA RESULT:      -9.0      4.960      8.553
REMARK  6 active torsions:
REMARK  status: ('A' for Active; 'I' for Inactive)
REMARK    1  A    between atoms: C_2  and  O_3 
REMARK    2  A    between atoms: C_2  and  C_4 
REMARK    3  A    between atoms: C_6  and  N_7 
REMARK       I    between atoms: N_7  and  C_8 
REMARK    4  A    between atoms: C_8  and  C_9 
REMARK    5  A    between atoms: C_12  and  C_13 
REMARK    6  A    between atoms: C_18  and  C_19 
ROOT
HETATM    1  C   UNL     1      42.664 -16.386   5.470  1.00  0.00     0.096 C 
HETATM    2  C   UNL     1      43.027 -16.925   4.249  1.00  0.00     0.138 C 
HETATM    3  N   UNL     1      41.846 -17.224   3.607  1.00  0.00    -0.240 N 
HETATM    4  C   UNL     1      41.757 -17.828   2.289  1.00  0.00     0.221 C 
HETATM    5  C   UNL     1      43.107 -17.705   1.561  1.00  0.00     0.066 C 
HETATM    6  C   UNL     1      44.278 -18.072   2.484  1.00  0.00     0.118 C 
HETATM    7  N   UNL     1      44.231 -17.207   3.674  1.00  0.00    -0.365 N 
HETATM    8  N   UNL     1      40.764 -17.084   4.389  1.00  0.00    -0.181 NA
HETATM    9  C   UNL     1      41.259 -16.550   5.509  1.00  0.00     0.160 C 
HETATM   10  H   UNL     1      45.037 -17.356   4.286  1.00  0.00     0.161 HD
ENDROOT
BRANCH   1  11
HETATM   11  C   UNL     1      43.493 -15.811   6.515  1.00  0.00     0.261 C 
HETATM   12  N   UNL     1      43.763 -14.469   6.322  1.00  0.00    -0.323 N 
HETATM   13  H   UNL     1      43.300 -14.044   5.526  1.00  0.00     0.169 HD
HETATM   14  O   UNL     1      43.839 -16.489   7.476  1.00  0.00    -0.267 OA
BRANCH  12  15
HETATM   15  C   UNL     1      44.466 -13.600   7.180  1.00  0.00     0.035 A 
HETATM   16  C   UNL     1      43.863 -12.854   8.198  1.00  0.00     0.039 A 
HETATM   17  C   UNL     1      44.617 -11.978   9.001  1.00  0.00    -0.028 A 
HETATM   18  C   UNL     1      45.992 -11.853   8.761  1.00  0.00     0.010 A 
HETATM   19  C   UNL     1      46.605 -12.607   7.762  1.00  0.00     0.003 A 
HETATM   20  C   UNL     1      45.845 -13.480   6.981  1.00  0.00     0.029 A 
BRANCH  17  21
HETATM   21  C   UNL     1      43.926 -11.162  10.072  1.00  0.00     0.147 C 
HETATM   22  C   UNL     1      44.916 -10.572  11.067  1.00  0.00     0.044 C 
BRANCH  21  23
HETATM   23  O   UNL     1      42.982 -11.963  10.783  1.00  0.00    -0.391 OA
HETATM   24  H   UNL     1      42.355 -11.348  11.200  1.00  0.00     0.210 HD
ENDBRANCH  21  23
ENDBRANCH  17  21
ENDBRANCH  12  15
ENDBRANCH   1  11
BRANCH   4  25
HETATM   25  C   UNL     1      40.673 -17.185   1.450  1.00  0.00     0.409 C 
HETATM   26  F   UNL     1      40.639 -15.840   1.540  1.00  0.00    -0.169 F 
HETATM   27  F   UNL     1      40.768 -17.523   0.144  1.00  0.00    -0.169 F 
HETATM   28  F   UNL     1      39.454 -17.622   1.872  1.00  0.00    -0.169 F 
ENDBRANCH   4  25
BRANCH   6  29
HETATM   29  C   UNL     1      44.332 -19.562   2.802  1.00  0.00    -0.035 A 
HETATM   30  C   UNL     1      43.932 -20.479   1.810  1.00  0.00     0.009 A 
HETATM   31  C   UNL     1      43.927 -21.854   2.057  1.00  0.00     0.001 A 
HETATM   32  C   UNL     1      44.331 -22.341   3.295  1.00  0.00     0.000 A 
HETATM   33  C   UNL     1      44.741 -21.455   4.285  1.00  0.00     0.001 A 
HETATM   34  C   UNL     1      44.744 -20.078   4.041  1.00  0.00     0.009 A 
ENDBRANCH   6  29
TORSDOF 6
ENDMDL
MODEL 5
REMARK VINA RESULT:      -8.7      3.667      8.455
REMARK  6 active torsions:
REMARK  status: ('A' for Active; 'I' for Inactive)
REMARK    1  A    between atoms: C_2  and  O_3 
REMARK    2  A    between atoms: C_2  and  C_4 
REMARK    3  A    between atoms: C_6  and  N_7 
REMARK       I    between atoms: N_7  and  C_8 
REMARK    4  A    between atoms: C_8  and  C_9 
REMARK    5  A    between atoms: C_12  and  C_13 
REMARK    6  A    between atoms: C_18  and  C_19 
ROOT
HETATM    1  C   UNL     1      41.828 -14.611   0.598  1.00  0.00     0.096 C 
HETATM    2  C   UNL     1      41.778 -14.259  -0.738  1.00  0.00     0.138 C 
HETATM    3  N   UNL     1      41.766 -12.881  -0.761  1.00  0.00    -0.240 N 
HETATM    4  C   UNL     1      41.703 -12.080  -1.971  1.00  0.00     0.221 C 
HETATM    5  C   UNL     1      42.061 -12.943  -3.194  1.00  0.00     0.066 C 
HETATM    6  C   UNL     1      41.350 -14.303  -3.149  1.00  0.00     0.118 C 
HETATM    7  N   UNL     1      41.707 -14.982  -1.892  1.00  0.00    -0.365 N 
HETATM    8  N   UNL     1      41.626 -12.330   0.454  1.00  0.00    -0.181 NA
HETATM    9  C   UNL     1      41.691 -13.379   1.279  1.00  0.00     0.160 C 
HETATM   10  H   UNL     1      41.322 -15.929  -1.847  1.00  0.00     0.161 HD
ENDROOT
BRANCH   1  11
HETATM   11  C   UNL     1      41.951 -15.923   1.209  1.00  0.00     0.261 C 
HETATM   12  N   UNL     1      42.999 -16.012   2.107  1.00  0.00    -0.323 N 
HETATM   13  H   UNL     1      43.499 -15.145   2.275  1.00  0.00     0.169 HD
HETATM   14  O   UNL     1      41.139 -16.805   0.954  1.00  0.00    -0.267 OA
BRANCH  12  15
HETATM   15  C   UNL     1      43.345 -17.108   2.922  1.00  0.00     0.035 A 
HETATM   16  C   UNL     1      43.822 -18.326   2.427  1.00  0.00     0.039 A 
HETATM   17  C   UNL     1      44.120 -19.395   3.292  1.00  0.00    -0.028 A 
HETATM   18  C   UNL     1      43.923 -19.227   4.670  1.00  0.00     0.010 A 
HETATM   19  C   UNL     1      43.467 -18.010   5.173  1.00  0.00     0.003 A 
HETATM   20  C   UNL     1      43.186 -16.955   4.303  1.00  0.00     0.029 A 
BRANCH  17  21
HETATM   21  C   UNL     1      44.603 -20.710   2.719  1.00  0.00     0.147 C 
HETATM   22  C   UNL     1      43.629 -21.279   1.698  1.00  0.00     0.044 C 
BRANCH  21  23
HETATM   23  O   UNL     1      44.794 -21.670   3.758  1.00  0.00    -0.391 OA
HETATM   24  H   UNL     1      45.699 -22.010   3.658  1.00  0.00     0.210 HD
ENDBRANCH  21  23
ENDBRANCH  17  21
ENDBRANCH  12  15
ENDBRANCH   1  11
BRANCH   4  25
HETATM   25  C   UNL     1      42.636 -10.891  -1.905  1.00  0.00     0.409 C 
HETATM   26  F   UNL     1      42.086  -9.797  -1.339  1.00  0.00    -0.169 F 
HETATM   27  F   UNL     1      43.786 -11.176  -1.252  1.00  0.00    -0.169 F 
HETATM   28  F   UNL     1      42.993 -10.524  -3.166  1.00  0.00    -0.169 F 
ENDBRANCH   4  25
BRANCH   6  29
HETATM   29  C   UNL     1      39.848 -14.190  -3.388  1.00  0.00    -0.035 A 
HETATM   30  C   UNL     1      39.121 -15.362  -3.677  1.00  0.00     0.009 A 
HETATM   31  C   UNL     1      37.750 -15.315  -3.941  1.00  0.00     0.001 A 
HETATM   32  C   UNL     1      37.076 -14.099  -3.911  1.00  0.00     0.000 A 
HETATM   33  C   UNL     1      37.772 -12.931  -3.615  1.00  0.00     0.001 A 
HETATM   34  C   UNL     1      39.144 -12.976  -3.354  1.00  0.00     0.009 A 
ENDBRANCH   6  29
TORSDOF 6
ENDMDL
MODEL 6
REMARK VINA RESULT:      -8.6      3.589      8.692
REMARK  6 active torsions:
REMARK  status: ('A' for Active; 'I' for Inactive)
REMARK    1  A    between atoms: C_2  and  O_3 
REMARK    2  A    between atoms: C_2  and  C_4 
REMARK    3  A    between atoms: C_6  and  N_7 
REMARK       I    between atoms: N_7  and  C_8 
REMARK    4  A    between atoms: C_8  and  C_9 
REMARK    5  A    between atoms: C_12  and  C_13 
REMARK    6  A    between atoms: C_18  and  C_19 
ROOT
HETATM    1  C   UNL     1      41.636 -14.569   0.658  1.00  0.00     0.096 C 
HETATM    2  C   UNL     1      41.626 -14.235  -0.684  1.00  0.00     0.138 C 
HETATM    3  N   UNL     1      41.671 -12.858  -0.727  1.00  0.00    -0.240 N 
HETATM    4  C   UNL     1      41.663 -12.073  -1.948  1.00  0.00     0.221 C 
HETATM    5  C   UNL     1      42.010 -12.968  -3.152  1.00  0.00     0.066 C 
HETATM    6  C   UNL     1      41.243 -14.297  -3.101  1.00  0.00     0.118 C 
HETATM    7  N   UNL     1      41.548 -14.972  -1.829  1.00  0.00    -0.365 N 
HETATM    8  N   UNL     1      41.530 -12.284   0.478  1.00  0.00    -0.181 NA
HETATM    9  C   UNL     1      41.536 -13.322   1.319  1.00  0.00     0.160 C 
HETATM   10  H   UNL     1      41.124 -15.901  -1.778  1.00  0.00     0.161 HD
ENDROOT
BRANCH   1  11
HETATM   11  C   UNL     1      41.694 -15.875   1.290  1.00  0.00     0.261 C 
HETATM   12  N   UNL     1      42.964 -16.222   1.713  1.00  0.00    -0.323 N 
HETATM   13  H   UNL     1      43.670 -15.504   1.593  1.00  0.00     0.169 HD
HETATM   14  O   UNL     1      40.672 -16.532   1.452  1.00  0.00    -0.267 OA
BRANCH  12  15
HETATM   15  C   UNL     1      43.350 -17.375   2.425  1.00  0.00     0.035 A 
HETATM   16  C   UNL     1      43.427 -17.440   3.819  1.00  0.00     0.039 A 
HETATM   17  C   UNL     1      43.851 -18.613   4.470  1.00  0.00    -0.028 A 
HETATM   18  C   UNL     1      44.209 -19.726   3.696  1.00  0.00     0.010 A 
HETATM   19  C   UNL     1      44.117 -19.676   2.307  1.00  0.00     0.003 A 
HETATM   20  C   UNL     1      43.683 -18.508   1.676  1.00  0.00     0.029 A 
BRANCH  17  21
HETATM   21  C   UNL     1      43.953 -18.637   5.981  1.00  0.00     0.147 C 
HETATM   22  C   UNL     1      45.247 -18.007   6.474  1.00  0.00     0.044 C 
BRANCH  21  23
HETATM   23  O   UNL     1      43.878 -19.977   6.467  1.00  0.00    -0.391 OA
HETATM   24  H   UNL     1      42.933 -20.189   6.553  1.00  0.00     0.210 HD
ENDBRANCH  21  23
ENDBRANCH  17  21
ENDBRANCH  12  15
ENDBRANCH   1  11
BRANCH   4  25
HETATM   25  C   UNL     1      42.642 -10.921  -1.880  1.00  0.00     0.409 C 
HETATM   26  F   UNL     1      42.137  -9.808  -1.312  1.00  0.00    -0.169 F 
HETATM   27  F   UNL     1      43.780 -11.253  -1.230  1.00  0.00    -0.169 F 
HETATM   28  F   UNL     1      43.012 -10.566  -3.142  1.00  0.00    -0.169 F 
ENDBRANCH   4  25
BRANCH   6  29
HETATM   29  C   UNL     1      39.752 -14.128  -3.372  1.00  0.00    -0.035 A 
HETATM   30  C   UNL     1      38.991 -15.268  -3.697  1.00  0.00     0.009 A 
HETATM   31  C   UNL     1      37.629 -15.169  -3.990  1.00  0.00     0.001 A 
HETATM   32  C   UNL     1      36.997 -13.931  -3.954  1.00  0.00     0.000 A 
HETATM   33  C   UNL     1      37.726 -12.793  -3.623  1.00  0.00     0.001 A 
HETATM   34  C   UNL     1      39.090 -12.891  -3.333  1.00  0.00     0.009 A 
ENDBRANCH   6  29
TORSDOF 6
ENDMDL
MODEL 7
REMARK VINA RESULT:      -8.5      4.422      8.805
REMARK  6 active torsions:
REMARK  status: ('A' for Active; 'I' for Inactive)
REMARK    1  A    between atoms: C_2  and  O_3 
REMARK    2  A    between atoms: C_2  and  C_4 
REMARK    3  A    between atoms: C_6  and  N_7 
REMARK       I    between atoms: N_7  and  C_8 
REMARK    4  A    between atoms: C_8  and  C_9 
REMARK    5  A    between atoms: C_12  and  C_13 
REMARK    6  A    between atoms: C_18  and  C_19 
ROOT
HETATM    1  C   UNL     1      42.603 -14.242   5.442  1.00  0.00     0.096 C 
HETATM    2  C   UNL     1      42.707 -14.791   4.176  1.00  0.00     0.138 C 
HETATM    3  N   UNL     1      41.419 -15.098   3.795  1.00  0.00    -0.240 N 
HETATM    4  C   UNL     1      41.062 -15.712   2.529  1.00  0.00     0.221 C 
HETATM    5  C   UNL     1      42.232 -15.593   1.536  1.00  0.00     0.066 C 
HETATM    6  C   UNL     1      43.569 -15.951   2.200  1.00  0.00     0.118 C 
HETATM    7  N   UNL     1      43.768 -15.076   3.367  1.00  0.00    -0.365 N 
HETATM    8  N   UNL     1      40.523 -14.953   4.782  1.00  0.00    -0.181 NA
HETATM    9  C   UNL     1      41.237 -14.409   5.772  1.00  0.00     0.160 C 
HETATM   10  H   UNL     1      44.683 -15.219   3.801  1.00  0.00     0.161 HD
ENDROOT
BRANCH   1  11
HETATM   11  C   UNL     1      43.628 -13.658   6.289  1.00  0.00     0.261 C 
HETATM   12  N   UNL     1      43.118 -12.820   7.264  1.00  0.00    -0.323 N 
HETATM   13  H   UNL     1      42.106 -12.773   7.308  1.00  0.00     0.169 HD
HETATM   14  O   UNL     1      44.805 -13.961   6.138  1.00  0.00    -0.267 OA
BRANCH  12  15
HETATM   15  C   UNL     1      43.826 -12.159   8.288  1.00  0.00     0.035 A 
HETATM   16  C   UNL     1      43.239 -11.264   9.187  1.00  0.00     0.039 A 
HETATM   17  C   UNL     1      44.008 -10.612  10.169  1.00  0.00    -0.028 A 
HETATM   18  C   UNL     1      45.386 -10.865  10.230  1.00  0.00     0.010 A 
HETATM   19  C   UNL     1      45.975 -11.770   9.350  1.00  0.00     0.003 A 
HETATM   20  C   UNL     1      45.197 -12.418   8.388  1.00  0.00     0.029 A 
BRANCH  17  21
HETATM   21  C   UNL     1      43.346  -9.624  11.106  1.00  0.00     0.147 C 
HETATM   22  C   UNL     1      43.517 -10.021  12.565  1.00  0.00     0.044 C 
BRANCH  21  23
HETATM   23  O   UNL     1      41.952  -9.517  10.818  1.00  0.00    -0.391 OA
HETATM   24  H   UNL     1      41.498 -10.144  11.407  1.00  0.00     0.210 HD
ENDBRANCH  21  23
ENDBRANCH  17  21
ENDBRANCH  12  15
ENDBRANCH   1  11
BRANCH   4  25
HETATM   25  C   UNL     1      39.826 -15.078   1.927  1.00  0.00     0.409 C 
HETATM   26  F   UNL     1      39.477 -13.910   2.503  1.00  0.00    -0.169 F 
HETATM   27  F   UNL     1      39.950 -14.877   0.596  1.00  0.00    -0.169 F 
HETATM   28  F   UNL     1      38.763 -15.913   2.091  1.00  0.00    -0.169 F 
ENDBRANCH   4  25
BRANCH   6  29
HETATM   29  C   UNL     1      43.693 -17.438   2.512  1.00  0.00    -0.035 A 
HETATM   30  C   UNL     1      43.548 -18.363   1.459  1.00  0.00     0.009 A 
HETATM   31  C   UNL     1      43.616 -19.739   1.691  1.00  0.00     0.001 A 
HETATM   32  C   UNL     1      43.840 -20.218   2.977  1.00  0.00     0.000 A 
HETATM   33  C   UNL     1      43.999 -19.323   4.029  1.00  0.00     0.001 A 
HETATM   34  C   UNL     1      43.928 -17.946   3.800  1.00  0.00     0.009 A 
ENDBRANCH   6  29
TORSDOF 6
ENDMDL
MODEL 8
REMARK VINA RESULT:      -8.4      1.941      2.679
REMARK  6 active torsions:
REMARK  status: ('A' for Active; 'I' for Inactive)
REMARK    1  A    between atoms: C_2  and  O_3 
REMARK    2  A    between atoms: C_2  and  C_4 
REMARK    3  A    between atoms: C_6  and  N_7 
REMARK       I    between atoms: N_7  and  C_8 
REMARK    4  A    between atoms: C_8  and  C_9 
REMARK    5  A    between atoms: C_12  and  C_13 
REMARK    6  A    between atoms: C_18  and  C_19 
ROOT
HETATM    1  C   UNL     1      41.196 -14.323   3.029  1.00  0.00     0.096 C 
HETATM    2  C   UNL     1      41.557 -15.311   3.927  1.00  0.00     0.138 C 
HETATM    3  N   UNL     1      42.730 -14.880   4.505  1.00  0.00    -0.240 N 
HETATM    4  C   UNL     1      43.475 -15.624   5.506  1.00  0.00     0.221 C 
HETATM    5  C   UNL     1      42.586 -16.724   6.114  1.00  0.00     0.066 C 
HETATM    6  C   UNL     1      41.811 -17.483   5.027  1.00  0.00     0.118 C 
HETATM    7  N   UNL     1      41.013 -16.518   4.254  1.00  0.00    -0.365 N 
HETATM    8  N   UNL     1      43.239 -13.783   3.923  1.00  0.00    -0.181 NA
HETATM    9  C   UNL     1      42.295 -13.431   3.046  1.00  0.00     0.160 C 
HETATM   10  H   UNL     1      40.414 -16.982   3.567  1.00  0.00     0.161 HD
ENDROOT
BRANCH   1  11
HETATM   11  C   UNL     1      40.004 -14.202   2.208  1.00  0.00     0.261 C 
HETATM   12  N   UNL     1      39.879 -12.964   1.604  1.00  0.00    -0.323 N 
HETATM   13  H   UNL     1      40.657 -12.331   1.752  1.00  0.00     0.169 HD
HETATM   14  O   UNL     1      39.252 -15.159   2.062  1.00  0.00    -0.267 OA
BRANCH  12  15
HETATM   15  C   UNL     1      38.889 -12.547   0.693  1.00  0.00     0.035 A 
HETATM   16  C   UNL     1      37.601 -12.152   1.069  1.00  0.00     0.039 A 
HETATM   17  C   UNL     1      36.646 -11.775   0.106  1.00  0.00    -0.028 A 
HETATM   18  C   UNL     1      37.001 -11.811  -1.250  1.00  0.00     0.010 A 
HETATM   19  C   UNL     1      38.288 -12.185  -1.632  1.00  0.00     0.003 A 
HETATM   20  C   UNL     1      39.228 -12.545  -0.664  1.00  0.00     0.029 A 
BRANCH  17  21
HETATM   21  C   UNL     1      35.252 -11.384   0.546  1.00  0.00     0.147 C 
HETATM   22  C   UNL     1      34.544 -10.531  -0.497  1.00  0.00     0.044 C 
BRANCH  21  23
HETATM   23  O   UNL     1      35.299 -10.662   1.777  1.00  0.00    -0.391 OA
HETATM   24  H   UNL     1      34.489 -10.892   2.264  1.00  0.00     0.210 HD
ENDBRANCH  21  23
ENDBRANCH  17  21
ENDBRANCH  12  15
ENDBRANCH   1  11
BRANCH   4  25
HETATM   25  C   UNL     1      43.985 -14.723   6.609  1.00  0.00     0.409 C 
HETATM   26  F   UNL     1      45.243 -14.279   6.414  1.00  0.00    -0.169 F 
HETATM   27  F   UNL     1      43.183 -13.653   6.811  1.00  0.00    -0.169 F 
HETATM   28  F   UNL     1      44.007 -15.412   7.784  1.00  0.00    -0.169 F 
ENDBRANCH   4  25
BRANCH   6  29
HETATM   29  C   UNL     1      42.710 -18.370   4.174  1.00  0.00    -0.035 A 
HETATM   30  C   UNL     1      43.706 -19.135   4.812  1.00  0.00     0.009 A 
HETATM   31  C   UNL     1      44.582 -19.939   4.078  1.00  0.00     0.001 A 
HETATM   32  C   UNL     1      44.474 -20.002   2.693  1.00  0.00     0.000 A 
HETATM   33  C   UNL     1      43.489 -19.265   2.043  1.00  0.00     0.001 A 
HETATM   34  C   UNL     1      42.614 -18.458   2.776  1.00  0.00     0.009 A 
ENDBRANCH   6  29
TORSDOF 6
ENDMDL
MODEL 9
REMARK VINA RESULT:      -8.2      4.148      8.583
REMARK  6 active torsions:
REMARK  status: ('A' for Active; 'I' for Inactive)
REMARK    1  A    between atoms: C_2  and  O_3 
REMARK    2  A    between atoms: C_2  and  C_4 
REMARK    3  A    between atoms: C_6  and  N_7 
REMARK       I    between atoms: N_7  and  C_8 
REMARK    4  A    between atoms: C_8  and  C_9 
REMARK    5  A    between atoms: C_12  and  C_13 
REMARK    6  A    between atoms: C_18  and  C_19 
ROOT
HETATM    1  C   UNL     1      41.073 -15.437   0.689  1.00  0.00     0.096 C 
HETATM    2  C   UNL     1      39.893 -14.785   0.381  1.00  0.00     0.138 C 
HETATM    3  N   UNL     1      40.191 -13.950  -0.673  1.00  0.00    -0.240 N 
HETATM    4  C   UNL     1      39.238 -13.059  -1.311  1.00  0.00     0.221 C 
HETATM    5  C   UNL     1      37.802 -13.469  -0.938  1.00  0.00     0.066 C 
HETATM    6  C   UNL     1      37.676 -13.762   0.564  1.00  0.00     0.118 C 
HETATM    7  N   UNL     1      38.642 -14.813   0.924  1.00  0.00    -0.365 N 
HETATM    8  N   UNL     1      41.503 -13.885  -0.946  1.00  0.00    -0.181 NA
HETATM    9  C   UNL     1      42.033 -14.807  -0.138  1.00  0.00     0.160 C 
HETATM   10  H   UNL     1      38.544 -15.103   1.900  1.00  0.00     0.161 HD
ENDROOT
BRANCH   1  11
HETATM   11  C   UNL     1      41.327 -16.494   1.652  1.00  0.00     0.261 C 
HETATM   12  N   UNL     1      42.657 -16.868   1.715  1.00  0.00    -0.323 N 
HETATM   13  H   UNL     1      43.288 -16.319   1.141  1.00  0.00     0.169 HD
HETATM   14  O   UNL     1      40.418 -16.931   2.349  1.00  0.00    -0.267 OA
BRANCH  12  15
HETATM   15  C   UNL     1      43.249 -17.801   2.589  1.00  0.00     0.035 A 
HETATM   16  C   UNL     1      43.656 -19.081   2.202  1.00  0.00     0.039 A 
HETATM   17  C   UNL     1      44.213 -19.979   3.132  1.00  0.00    -0.028 A 
HETATM   18  C   UNL     1      44.347 -19.574   4.468  1.00  0.00     0.010 A 
HETATM   19  C   UNL     1      43.961 -18.293   4.858  1.00  0.00     0.003 A 
HETATM   20  C   UNL     1      43.421 -17.410   3.921  1.00  0.00     0.029 A 
BRANCH  17  21
HETATM   21  C   UNL     1      44.614 -21.369   2.685  1.00  0.00     0.147 C 
HETATM   22  C   UNL     1      43.720 -21.887   1.567  1.00  0.00     0.044 C 
BRANCH  21  23
HETATM   23  O   UNL     1      44.559 -22.283   3.780  1.00  0.00    -0.391 OA
HETATM   24  H   UNL     1      44.561 -23.176   3.396  1.00  0.00     0.210 HD
ENDBRANCH  21  23
ENDBRANCH  17  21
ENDBRANCH  12  15
ENDBRANCH   1  11
BRANCH   4  25
HETATM   25  C   UNL     1      39.387 -13.066  -2.818  1.00  0.00     0.409 C 
HETATM   26  F   UNL     1      40.342 -12.232  -3.275  1.00  0.00    -0.169 F 
HETATM   27  F   UNL     1      39.633 -14.304  -3.303  1.00  0.00    -0.169 F 
HETATM   28  F   UNL     1      38.222 -12.655  -3.390  1.00  0.00    -0.169 F 
ENDBRANCH   4  25
BRANCH   6  29
HETATM   29  C   UNL     1      37.778 -12.505   1.420  1.00  0.00    -0.035 A 
HETATM   30  C   UNL     1      38.691 -12.491   2.493  1.00  0.00     0.009 A 
HETATM   31  C   UNL     1      38.803 -11.381   3.334  1.00  0.00     0.001 A 
HETATM   32  C   UNL     1      38.012 -10.258   3.112  1.00  0.00     0.000 A 
HETATM   33  C   UNL     1      37.113 -10.245   2.051  1.00  0.00     0.001 A 
HETATM   34  C   UNL     1      36.998 -11.357   1.212  1.00  0.00     0.009 A 
ENDBRANCH   6  29
TORSDOF 6
ENDMDL
MODEL 10
REMARK VINA RESULT:      -8.2      3.329      8.483
REMARK  6 active torsions:
REMARK  status: ('A' for Active; 'I' for Inactive)
REMARK    1  A    between atoms: C_2  and  O_3 
REMARK    2  A    between atoms: C_2  and  C_4 
REMARK    3  A    between atoms: C_6  and  N_7 
REMARK       I    between atoms: N_7  and  C_8 
REMARK    4  A    between atoms: C_8  and  C_9 
REMARK    5  A    between atoms: C_12  and  C_13 
REMARK    6  A    between atoms: C_18  and  C_19 
ROOT
HETATM    1  C   UNL     1      41.022 -15.575   1.591  1.00  0.00     0.096 C 
HETATM    2  C   UNL     1      40.793 -14.650   0.588  1.00  0.00     0.138 C 
HETATM    3  N   UNL     1      39.606 -14.031   0.914  1.00  0.00    -0.240 N 
HETATM    4  C   UNL     1      38.976 -12.992   0.120  1.00  0.00     0.221 C 
HETATM    5  C   UNL     1      39.989 -12.405  -0.880  1.00  0.00     0.066 C 
HETATM    6  C   UNL     1      40.791 -13.512  -1.580  1.00  0.00     0.118 C 
HETATM    7  N   UNL     1      41.463 -14.329  -0.556  1.00  0.00    -0.365 N 
HETATM    8  N   UNL     1      38.972 -14.606   1.947  1.00  0.00    -0.181 NA
HETATM    9  C   UNL     1      39.844 -15.525   2.373  1.00  0.00     0.160 C 
HETATM   10  H   UNL     1      42.076 -15.033  -0.972  1.00  0.00     0.161 HD
ENDROOT
BRANCH   1  11
HETATM   11  C   UNL     1      42.165 -16.443   1.811  1.00  0.00     0.261 C 
HETATM   12  N   UNL     1      41.913 -17.461   2.713  1.00  0.00    -0.323 N 
HETATM   13  H   UNL     1      40.957 -17.513   3.049  1.00  0.00     0.169 HD
HETATM   14  O   UNL     1      43.205 -16.271   1.186  1.00  0.00    -0.267 OA
BRANCH  12  15
HETATM   15  C   UNL     1      42.773 -18.512   3.089  1.00  0.00     0.035 A 
HETATM   16  C   UNL     1      43.226 -18.717   4.395  1.00  0.00     0.039 A 
HETATM   17  C   UNL     1      44.111 -19.767   4.701  1.00  0.00    -0.028 A 
HETATM   18  C   UNL     1      44.545 -20.610   3.667  1.00  0.00     0.010 A 
HETATM   19  C   UNL     1      44.083 -20.424   2.366  1.00  0.00     0.003 A 
HETATM   20  C   UNL     1      43.196 -19.384   2.081  1.00  0.00     0.029 A 
BRANCH  17  21
HETATM   21  C   UNL     1      44.607 -19.941   6.120  1.00  0.00     0.147 C 
HETATM   22  C   UNL     1      43.716 -20.877   6.924  1.00  0.00     0.044 C 
BRANCH  21  23
HETATM   23  O   UNL     1      44.672 -18.680   6.787  1.00  0.00    -0.391 OA
HETATM   24  H   UNL     1      44.916 -18.867   7.709  1.00  0.00     0.210 HD
ENDBRANCH  21  23
ENDBRANCH  17  21
ENDBRANCH  12  15
ENDBRANCH   1  11
BRANCH   4  25
HETATM   25  C   UNL     1      38.424 -11.881   0.986  1.00  0.00     0.409 C 
HETATM   26  F   UNL     1      38.377 -10.681   0.371  1.00  0.00    -0.169 F 
HETATM   27  F   UNL     1      37.190 -12.164   1.460  1.00  0.00    -0.169 F 
HETATM   28  F   UNL     1      39.224 -11.715   2.075  1.00  0.00    -0.169 F 
ENDBRANCH   4  25
BRANCH   6  29
HETATM   29  C   UNL     1      39.949 -14.317  -2.563  1.00  0.00    -0.035 A 
HETATM   30  C   UNL     1      38.727 -13.776  -3.007  1.00  0.00     0.009 A 
HETATM   31  C   UNL     1      37.897 -14.484  -3.880  1.00  0.00     0.001 A 
HETATM   32  C   UNL     1      38.277 -15.742  -4.336  1.00  0.00     0.000 A 
HETATM   33  C   UNL     1      39.486 -16.290  -3.921  1.00  0.00     0.001 A 
HETATM   34  C   UNL     1      40.316 -15.584  -3.044  1.00  0.00     0.009 A 
ENDBRANCH   6  29
TORSDOF 6
ENDMDL
