MODEL 1
REMARK VINA RESULT:      -9.1      0.000      0.000
REMARK  6 active torsions:
REMARK  status: ('A' for Active; 'I' for Inactive)
REMARK    1  A    between atoms: O_2  and  C_3 
REMARK    2  A    between atoms: C_6  and  C_7 
REMARK    3  A    between atoms: C_11  and  C_12 
REMARK       I    between atoms: C_12  and  N_13 
REMARK    4  A    between atoms: N_13  and  N_14 
REMARK       I    between atoms: N_14  and  C_15 
REMARK    5  A    between atoms: C_15  and  C_16 
REMARK    6  A    between atoms: C_16  and  C_17 
ROOT
HETATM    1  C   UNL     1      43.647 -13.973   7.008  1.00  0.00     0.288 C 
HETATM    2  N   UNL     1      44.284 -13.545   8.153  1.00  0.00    -0.262 N 
HETATM    3  O   UNL     1      43.059 -13.196   6.259  1.00  0.00    -0.264 OA
HETATM    4  H   UNL     1      44.664 -14.182   8.849  1.00  0.00     0.190 HD
ENDROOT
BRANCH   1   5
HETATM    5  C   UNL     1      43.715 -15.388   6.761  1.00  0.00     0.121 A 
HETATM    6  N   UNL     1      43.437 -16.305   7.735  1.00  0.00    -0.272 N 
HETATM    7  N   UNL     1      43.532 -17.581   7.333  1.00  0.00    -0.174 NA
HETATM    8  H   UNL     1      43.168 -16.112   8.696  1.00  0.00     0.189 HD
HETATM    9  C   UNL     1      43.909 -17.506   6.046  1.00  0.00     0.089 A 
HETATM   10  C   UNL     1      44.029 -16.143   5.649  1.00  0.00     0.071 A 
BRANCH   9  11
HETATM   11  C   UNL     1      44.129 -18.704   5.232  1.00  0.00    -0.005 A 
HETATM   12  C   UNL     1      44.479 -19.921   5.835  1.00  0.00     0.016 A 
HETATM   13  C   UNL     1      44.668 -21.080   5.070  1.00  0.00     0.037 A 
HETATM   14  C   UNL     1      44.514 -21.037   3.686  1.00  0.00     0.068 A 
HETATM   15  C   UNL     1      44.184 -19.826   3.076  1.00  0.00     0.037 A 
HETATM   16  C   UNL     1      43.991 -18.669   3.838  1.00  0.00     0.016 A 
BRANCH  14  17
HETATM   17  O   UNL     1      44.662 -22.089   2.825  1.00  0.00    -0.356 OA
HETATM   18  C   UNL     1      44.110 -21.935   1.524  1.00  0.00     0.210 C 
ENDBRANCH  14  17
ENDBRANCH   9  11
ENDBRANCH   1   5
BRANCH   2  19
HETATM   19  N   UNL     1      44.126 -12.217   8.564  1.00  0.00    -0.267 N 
HETATM   20  C   UNL     1      44.175 -11.949   9.915  1.00  0.00     0.240 C 
HETATM   21  O   UNL     1      44.439 -12.816  10.749  1.00  0.00    -0.272 OA
HETATM   22  H   UNL     1      43.858 -11.536   7.853  1.00  0.00     0.190 HD
BRANCH  20  23
HETATM   23  C   UNL     1      43.888 -10.510  10.285  1.00  0.00     0.144 C 
BRANCH  23  24
HETATM   24  C   UNL     1      43.035 -10.396  11.524  1.00  0.00    -0.028 A 
HETATM   25  C   UNL     1      41.643 -10.580  11.509  1.00  0.00     0.040 A 
HETATM   26 CL   UNL     1      40.792 -10.971  10.057  1.00  0.00    -0.084 Cl
HETATM   27  C   UNL     1      40.896 -10.449  12.683  1.00  0.00     0.024 A 
HETATM   28  C   UNL     1      41.524 -10.122  13.884  1.00  0.00     0.002 A 
HETATM   29  C   UNL     1      42.901  -9.921  13.911  1.00  0.00     0.001 A 
HETATM   30  C   UNL     1      43.651 -10.053  12.741  1.00  0.00     0.009 A 
ENDBRANCH  23  24
ENDBRANCH  20  23
ENDBRANCH   2  19
TORSDOF 6
ENDMDL
MODEL 2
REMARK VINA RESULT:      -8.6      3.251     10.690
REMARK  6 active torsions:
REMARK  status: ('A' for Active; 'I' for Inactive)
REMARK    1  A    between atoms: O_2  and  C_3 
REMARK    2  A    between atoms: C_6  and  C_7 
REMARK    3  A    between atoms: C_11  and  C_12 
REMARK       I    between atoms: C_12  and  N_13 
REMARK    4  A    between atoms: N_13  and  N_14 
REMARK       I    between atoms: N_14  and  C_15 
REMARK    5  A    between atoms: C_15  and  C_16 
REMARK    6  A    between atoms: C_16  and  C_17 
ROOT
HETATM    1  C   UNL     1      45.122 -13.552   7.425  1.00  0.00     0.288 C 
HETATM    2  N   UNL     1      44.321 -14.662   7.591  1.00  0.00    -0.262 N 
HETATM    3  O   UNL     1      45.940 -13.468   6.511  1.00  0.00    -0.264 OA
HETATM    4  H   UNL     1      43.734 -14.805   8.409  1.00  0.00     0.190 HD
ENDROOT
BRANCH   1   5
HETATM    5  C   UNL     1      44.937 -12.511   8.398  1.00  0.00     0.121 A 
HETATM    6  N   UNL     1      45.926 -11.615   8.693  1.00  0.00    -0.272 N 
HETATM    7  N   UNL     1      45.583 -10.699   9.612  1.00  0.00    -0.174 NA
HETATM    8  H   UNL     1      46.858 -11.580   8.290  1.00  0.00     0.189 HD
HETATM    9  C   UNL     1      44.323 -11.014   9.953  1.00  0.00     0.089 A 
HETATM   10  C   UNL     1      43.881 -12.144   9.207  1.00  0.00     0.071 A 
BRANCH   9  11
HETATM   11  C   UNL     1      43.574 -10.242  10.949  1.00  0.00    -0.005 A 
HETATM   12  C   UNL     1      43.992 -10.212  12.288  1.00  0.00     0.016 A 
HETATM   13  C   UNL     1      43.299  -9.458  13.245  1.00  0.00     0.037 A 
HETATM   14  C   UNL     1      42.172  -8.727  12.876  1.00  0.00     0.068 A 
HETATM   15  C   UNL     1      41.739  -8.766  11.551  1.00  0.00     0.037 A 
HETATM   16  C   UNL     1      42.431  -9.514  10.592  1.00  0.00     0.016 A 
BRANCH  14  17
HETATM   17  O   UNL     1      41.411  -7.948  13.704  1.00  0.00    -0.356 OA
HETATM   18  C   UNL     1      40.001  -8.116  13.623  1.00  0.00     0.210 C 
ENDBRANCH  14  17
ENDBRANCH   9  11
ENDBRANCH   1   5
BRANCH   2  19
HETATM   19  N   UNL     1      44.551 -15.792   6.799  1.00  0.00    -0.267 N 
HETATM   20  C   UNL     1      43.824 -16.930   7.073  1.00  0.00     0.240 C 
HETATM   21  O   UNL     1      42.931 -16.954   7.921  1.00  0.00    -0.272 OA
HETATM   22  H   UNL     1      45.331 -15.753   6.144  1.00  0.00     0.190 HD
BRANCH  20  23
HETATM   23  C   UNL     1      44.206 -18.139   6.245  1.00  0.00     0.144 C 
BRANCH  23  24
HETATM   24  C   UNL     1      43.534 -18.143   4.894  1.00  0.00    -0.028 A 
HETATM   25  C   UNL     1      43.865 -19.060   3.883  1.00  0.00     0.040 A 
HETATM   26 CL   UNL     1      45.068 -20.278   4.115  1.00  0.00    -0.084 Cl
HETATM   27  C   UNL     1      43.222 -19.012   2.642  1.00  0.00     0.024 A 
HETATM   28  C   UNL     1      42.251 -18.044   2.390  1.00  0.00     0.002 A 
HETATM   29  C   UNL     1      41.925 -17.118   3.377  1.00  0.00     0.001 A 
HETATM   30  C   UNL     1      42.563 -17.165   4.618  1.00  0.00     0.009 A 
ENDBRANCH  23  24
ENDBRANCH  20  23
ENDBRANCH   2  19
TORSDOF 6
ENDMDL
MODEL 3
REMARK VINA RESULT:      -8.4      2.108      2.272
REMARK  6 active torsions:
REMARK  status: ('A' for Active; 'I' for Inactive)
REMARK    1  A    between atoms: O_2  and  C_3 
REMARK    2  A    between atoms: C_6  and  C_7 
REMARK    3  A    between atoms: C_11  and  C_12 
REMARK       I    between atoms: C_12  and  N_13 
REMARK    4  A    between atoms: N_13  and  N_14 
REMARK       I    between atoms: N_14  and  C_15 
REMARK    5  A    between atoms: C_15  and  C_16 
REMARK    6  A    between atoms: C_16  and  C_17 
ROOT
HETATM    1  C   UNL     1      41.971 -12.757   5.346  1.00  0.00     0.288 C 
HETATM    2  N   UNL     1      42.138 -12.747   6.714  1.00  0.00    -0.262 N 
HETATM    3  O   UNL     1      41.757 -11.728   4.706  1.00  0.00    -0.264 OA
HETATM    4  H   UNL     1      42.187 -13.595   7.273  1.00  0.00     0.190 HD
ENDROOT
BRANCH   1   5
HETATM    5  C   UNL     1      42.057 -14.051   4.726  1.00  0.00     0.121 A 
HETATM    6  N   UNL     1      41.080 -14.520   3.895  1.00  0.00    -0.272 N 
HETATM    7  N   UNL     1      41.324 -15.738   3.389  1.00  0.00    -0.174 NA
HETATM    8  H   UNL     1      40.221 -14.043   3.632  1.00  0.00     0.189 HD
HETATM    9  C   UNL     1      42.502 -16.099   3.923  1.00  0.00     0.089 A 
HETATM   10  C   UNL     1      42.997 -15.061   4.764  1.00  0.00     0.071 A 
BRANCH   9  11
HETATM   11  C   UNL     1      43.129 -17.388   3.619  1.00  0.00    -0.005 A 
HETATM   12  C   UNL     1      43.795 -18.110   4.620  1.00  0.00     0.016 A 
HETATM   13  C   UNL     1      44.377 -19.355   4.348  1.00  0.00     0.037 A 
HETATM   14  C   UNL     1      44.307 -19.895   3.066  1.00  0.00     0.068 A 
HETATM   15  C   UNL     1      43.663 -19.174   2.059  1.00  0.00     0.037 A 
HETATM   16  C   UNL     1      43.077 -17.933   2.329  1.00  0.00     0.016 A 
BRANCH  14  17
HETATM   17  O   UNL     1      44.824 -21.097   2.667  1.00  0.00    -0.356 OA
HETATM   18  C   UNL     1      44.057 -21.846   1.734  1.00  0.00     0.210 C 
ENDBRANCH  14  17
ENDBRANCH   9  11
ENDBRANCH   1   5
BRANCH   2  19
HETATM   19  N   UNL     1      41.901 -11.563   7.420  1.00  0.00    -0.267 N 
HETATM   20  C   UNL     1      42.803 -11.203   8.397  1.00  0.00     0.240 C 
HETATM   21  O   UNL     1      43.841 -11.834   8.601  1.00  0.00    -0.272 OA
HETATM   22  H   UNL     1      41.008 -11.096   7.263  1.00  0.00     0.190 HD
BRANCH  20  23
HETATM   23  C   UNL     1      42.420  -9.970   9.188  1.00  0.00     0.144 C 
BRANCH  23  24
HETATM   24  C   UNL     1      42.433 -10.217  10.677  1.00  0.00    -0.028 A 
HETATM   25  C   UNL     1      41.365 -10.826  11.356  1.00  0.00     0.040 A 
HETATM   26 CL   UNL     1      39.945 -11.360  10.529  1.00  0.00    -0.084 Cl
HETATM   27  C   UNL     1      41.421 -11.019  12.739  1.00  0.00     0.024 A 
HETATM   28  C   UNL     1      42.535 -10.598  13.464  1.00  0.00     0.002 A 
HETATM   29  C   UNL     1      43.594  -9.978  12.807  1.00  0.00     0.001 A 
HETATM   30  C   UNL     1      43.542  -9.786  11.425  1.00  0.00     0.009 A 
ENDBRANCH  23  24
ENDBRANCH  20  23
ENDBRANCH   2  19
TORSDOF 6
ENDMDL
MODEL 4
REMARK VINA RESULT:      -8.4      1.807      2.364
REMARK  6 active torsions:
REMARK  status: ('A' for Active; 'I' for Inactive)
REMARK    1  A    between atoms: O_2  and  C_3 
REMARK    2  A    between atoms: C_6  and  C_7 
REMARK    3  A    between atoms: C_11  and  C_12 
REMARK       I    between atoms: C_12  and  N_13 
REMARK    4  A    between atoms: N_13  and  N_14 
REMARK       I    between atoms: N_14  and  C_15 
REMARK    5  A    between atoms: C_15  and  C_16 
REMARK    6  A    between atoms: C_16  and  C_17 
ROOT
HETATM    1  C   UNL     1      44.568 -12.980   8.380  1.00  0.00     0.288 C 
HETATM    2  N   UNL     1      43.566 -12.154   8.843  1.00  0.00    -0.262 N 
HETATM    3  O   UNL     1      45.725 -12.895   8.789  1.00  0.00    -0.264 OA
HETATM    4  H   UNL     1      42.638 -12.121   8.429  1.00  0.00     0.190 HD
ENDROOT
BRANCH   1   5
HETATM    5  C   UNL     1      44.165 -13.936   7.386  1.00  0.00     0.121 A 
HETATM    6  N   UNL     1      43.139 -13.687   6.519  1.00  0.00    -0.272 N 
HETATM    7  N   UNL     1      42.903 -14.678   5.646  1.00  0.00    -0.174 NA
HETATM    8  H   UNL     1      42.565 -12.849   6.477  1.00  0.00     0.189 HD
HETATM    9  C   UNL     1      43.796 -15.629   5.960  1.00  0.00     0.089 A 
HETATM   10  C   UNL     1      44.611 -15.197   7.046  1.00  0.00     0.071 A 
BRANCH   9  11
HETATM   11  C   UNL     1      43.867 -16.898   5.229  1.00  0.00    -0.005 A 
HETATM   12  C   UNL     1      43.328 -17.007   3.939  1.00  0.00     0.016 A 
HETATM   13  C   UNL     1      43.412 -18.207   3.219  1.00  0.00     0.037 A 
HETATM   14  C   UNL     1      44.032 -19.319   3.784  1.00  0.00     0.068 A 
HETATM   15  C   UNL     1      44.554 -19.224   5.075  1.00  0.00     0.037 A 
HETATM   16  C   UNL     1      44.476 -18.026   5.793  1.00  0.00     0.016 A 
BRANCH  14  17
HETATM   17  O   UNL     1      44.187 -20.542   3.193  1.00  0.00    -0.356 OA
HETATM   18  C   UNL     1      43.571 -20.724   1.925  1.00  0.00     0.210 C 
ENDBRANCH  14  17
ENDBRANCH   9  11
ENDBRANCH   1   5
BRANCH   2  19
HETATM   19  N   UNL     1      43.898 -11.084   9.681  1.00  0.00    -0.267 N 
HETATM   20  C   UNL     1      42.924 -10.600  10.526  1.00  0.00     0.240 C 
HETATM   21  O   UNL     1      41.816 -11.131  10.628  1.00  0.00    -0.272 OA
HETATM   22  H   UNL     1      44.803 -10.638   9.533  1.00  0.00     0.190 HD
BRANCH  20  23
HETATM   23  C   UNL     1      43.326  -9.376  11.321  1.00  0.00     0.144 C 
BRANCH  23  24
HETATM   24  C   UNL     1      42.572  -9.263  12.623  1.00  0.00    -0.028 A 
HETATM   25  C   UNL     1      41.470  -8.409  12.793  1.00  0.00     0.040 A 
HETATM   26 CL   UNL     1      40.877  -7.421  11.506  1.00  0.00    -0.084 Cl
HETATM   27  C   UNL     1      40.815  -8.331  14.025  1.00  0.00     0.024 A 
HETATM   28  C   UNL     1      41.254  -9.095  15.105  1.00  0.00     0.002 A 
HETATM   29  C   UNL     1      42.355  -9.934  14.956  1.00  0.00     0.001 A 
HETATM   30  C   UNL     1      43.011 -10.016  13.726  1.00  0.00     0.009 A 
ENDBRANCH  23  24
ENDBRANCH  20  23
ENDBRANCH   2  19
TORSDOF 6
ENDMDL
MODEL 5
REMARK VINA RESULT:      -8.2      8.996     12.389
REMARK  6 active torsions:
REMARK  status: ('A' for Active; 'I' for Inactive)
REMARK    1  A    between atoms: O_2  and  C_3 
REMARK    2  A    between atoms: C_6  and  C_7 
REMARK    3  A    between atoms: C_11  and  C_12 
REMARK       I    between atoms: C_12  and  N_13 
REMARK    4  A    between atoms: N_13  and  N_14 
REMARK       I    between atoms: N_14  and  C_15 
REMARK    5  A    between atoms: C_15  and  C_16 
REMARK    6  A    between atoms: C_16  and  C_17 
ROOT
HETATM    1  C   UNL     1      41.324 -15.116  -0.529  1.00  0.00     0.288 C 
HETATM    2  N   UNL     1      41.937 -16.350  -0.514  1.00  0.00    -0.262 N 
HETATM    3  O   UNL     1      41.608 -14.236   0.282  1.00  0.00    -0.264 OA
HETATM    4  H   UNL     1      41.629 -17.130  -1.090  1.00  0.00     0.190 HD
ENDROOT
BRANCH   1   5
HETATM    5  C   UNL     1      40.329 -14.937  -1.551  1.00  0.00     0.121 A 
HETATM    6  N   UNL     1      40.349 -15.656  -2.711  1.00  0.00    -0.272 N 
HETATM    7  N   UNL     1      39.340 -15.378  -3.550  1.00  0.00    -0.174 NA
HETATM    8  H   UNL     1      41.031 -16.360  -2.982  1.00  0.00     0.189 HD
HETATM    9  C   UNL     1      38.634 -14.420  -2.928  1.00  0.00     0.089 A 
HETATM   10  C   UNL     1      39.222 -14.120  -1.665  1.00  0.00     0.071 A 
BRANCH   9  11
HETATM   11  C   UNL     1      37.432 -13.831  -3.525  1.00  0.00    -0.005 A 
HETATM   12  C   UNL     1      36.622 -14.585  -4.386  1.00  0.00     0.016 A 
HETATM   13  C   UNL     1      35.457 -14.042  -4.944  1.00  0.00     0.037 A 
HETATM   14  C   UNL     1      35.087 -12.732  -4.651  1.00  0.00     0.068 A 
HETATM   15  C   UNL     1      35.897 -11.968  -3.809  1.00  0.00     0.037 A 
HETATM   16  C   UNL     1      37.059 -12.509  -3.248  1.00  0.00     0.016 A 
BRANCH  14  17
HETATM   17  O   UNL     1      33.978 -12.083  -5.120  1.00  0.00    -0.356 OA
HETATM   18  C   UNL     1      32.776 -12.251  -4.378  1.00  0.00     0.210 C 
ENDBRANCH  14  17
ENDBRANCH   9  11
ENDBRANCH   1   5
BRANCH   2  19
HETATM   19  N   UNL     1      42.791 -16.674   0.545  1.00  0.00    -0.267 N 
HETATM   20  C   UNL     1      42.273 -17.408   1.590  1.00  0.00     0.240 C 
HETATM   21  O   UNL     1      41.125 -17.855   1.576  1.00  0.00    -0.272 OA
HETATM   22  H   UNL     1      43.716 -16.244   0.549  1.00  0.00     0.190 HD
BRANCH  20  23
HETATM   23  C   UNL     1      43.227 -17.624   2.746  1.00  0.00     0.144 C 
BRANCH  23  24
HETATM   24  C   UNL     1      43.670 -19.062   2.862  1.00  0.00    -0.028 A 
HETATM   25  C   UNL     1      44.376 -19.554   3.971  1.00  0.00     0.040 A 
HETATM   26 CL   UNL     1      44.784 -18.544   5.312  1.00  0.00    -0.084 Cl
HETATM   27  C   UNL     1      44.776 -20.893   4.023  1.00  0.00     0.024 A 
HETATM   28  C   UNL     1      44.487 -21.755   2.966  1.00  0.00     0.002 A 
HETATM   29  C   UNL     1      43.801 -21.277   1.852  1.00  0.00     0.001 A 
HETATM   30  C   UNL     1      43.399 -19.941   1.798  1.00  0.00     0.009 A 
ENDBRANCH  23  24
ENDBRANCH  20  23
ENDBRANCH   2  19
TORSDOF 6
ENDMDL
MODEL 6
REMARK VINA RESULT:      -8.2      2.232      2.781
REMARK  6 active torsions:
REMARK  status: ('A' for Active; 'I' for Inactive)
REMARK    1  A    between atoms: O_2  and  C_3 
REMARK    2  A    between atoms: C_6  and  C_7 
REMARK    3  A    between atoms: C_11  and  C_12 
REMARK       I    between atoms: C_12  and  N_13 
REMARK    4  A    between atoms: N_13  and  N_14 
REMARK       I    between atoms: N_14  and  C_15 
REMARK    5  A    between atoms: C_15  and  C_16 
REMARK    6  A    between atoms: C_16  and  C_17 
ROOT
HETATM    1  C   UNL     1      42.236 -12.846   5.284  1.00  0.00     0.288 C 
HETATM    2  N   UNL     1      42.503 -12.780   6.635  1.00  0.00    -0.262 N 
HETATM    3  O   UNL     1      41.701 -11.918   4.679  1.00  0.00    -0.264 OA
HETATM    4  H   UNL     1      42.825 -13.579   7.176  1.00  0.00     0.190 HD
ENDROOT
BRANCH   1   5
HETATM    5  C   UNL     1      42.620 -14.072   4.641  1.00  0.00     0.121 A 
HETATM    6  N   UNL     1      42.742 -14.168   3.284  1.00  0.00    -0.272 N 
HETATM    7  N   UNL     1      43.124 -15.378   2.849  1.00  0.00    -0.174 NA
HETATM    8  H   UNL     1      42.582 -13.431   2.603  1.00  0.00     0.189 HD
HETATM    9  C   UNL     1      43.240 -16.120   3.962  1.00  0.00     0.089 A 
HETATM   10  C   UNL     1      42.937 -15.331   5.110  1.00  0.00     0.071 A 
BRANCH   9  11
HETATM   11  C   UNL     1      43.642 -17.528   3.917  1.00  0.00    -0.005 A 
HETATM   12  C   UNL     1      43.638 -18.232   2.704  1.00  0.00     0.016 A 
HETATM   13  C   UNL     1      44.044 -19.571   2.643  1.00  0.00     0.037 A 
HETATM   14  C   UNL     1      44.456 -20.230   3.799  1.00  0.00     0.068 A 
HETATM   15  C   UNL     1      44.446 -19.543   5.014  1.00  0.00     0.037 A 
HETATM   16  C   UNL     1      44.045 -18.204   5.076  1.00  0.00     0.016 A 
BRANCH  14  17
HETATM   17  O   UNL     1      44.881 -21.527   3.880  1.00  0.00    -0.356 OA
HETATM   18  C   UNL     1      44.905 -22.114   5.175  1.00  0.00     0.210 C 
ENDBRANCH  14  17
ENDBRANCH   9  11
ENDBRANCH   1   5
BRANCH   2  19
HETATM   19  N   UNL     1      42.011 -11.700   7.375  1.00  0.00    -0.267 N 
HETATM   20  C   UNL     1      42.824 -11.160   8.347  1.00  0.00     0.240 C 
HETATM   21  O   UNL     1      43.984 -11.537   8.519  1.00  0.00    -0.272 OA
HETATM   22  H   UNL     1      41.031 -11.450   7.242  1.00  0.00     0.190 HD
BRANCH  20  23
HETATM   23  C   UNL     1      42.181 -10.068   9.175  1.00  0.00     0.144 C 
BRANCH  23  24
HETATM   24  C   UNL     1      41.721 -10.566  10.523  1.00  0.00    -0.028 A 
HETATM   25  C   UNL     1      42.572 -10.645  11.636  1.00  0.00     0.040 A 
HETATM   26 CL   UNL     1      44.228 -10.157  11.553  1.00  0.00    -0.084 Cl
HETATM   27  C   UNL     1      42.099 -11.128  12.860  1.00  0.00     0.024 A 
HETATM   28  C   UNL     1      40.776 -11.549  12.987  1.00  0.00     0.002 A 
HETATM   29  C   UNL     1      39.925 -11.492  11.887  1.00  0.00     0.001 A 
HETATM   30  C   UNL     1      40.393 -11.008  10.664  1.00  0.00     0.009 A 
ENDBRANCH  23  24
ENDBRANCH  20  23
ENDBRANCH   2  19
TORSDOF 6
ENDMDL
MODEL 7
REMARK VINA RESULT:      -8.1      2.374      2.697
REMARK  6 active torsions:
REMARK  status: ('A' for Active; 'I' for Inactive)
REMARK    1  A    between atoms: O_2  and  C_3 
REMARK    2  A    between atoms: C_6  and  C_7 
REMARK    3  A    between atoms: C_11  and  C_12 
REMARK       I    between atoms: C_12  and  N_13 
REMARK    4  A    between atoms: N_13  and  N_14 
REMARK       I    between atoms: N_14  and  C_15 
REMARK    5  A    between atoms: C_15  and  C_16 
REMARK    6  A    between atoms: C_16  and  C_17 
ROOT
HETATM    1  C   UNL     1      40.715 -12.729   6.031  1.00  0.00     0.288 C 
HETATM    2  N   UNL     1      41.708 -12.250   6.858  1.00  0.00    -0.262 N 
HETATM    3  O   UNL     1      39.642 -12.144   5.892  1.00  0.00    -0.264 OA
HETATM    4  H   UNL     1      42.546 -12.781   7.085  1.00  0.00     0.190 HD
ENDROOT
BRANCH   1   5
HETATM    5  C   UNL     1      41.021 -13.959   5.353  1.00  0.00     0.121 A 
HETATM    6  N   UNL     1      40.250 -14.430   4.329  1.00  0.00    -0.272 N 
HETATM    7  N   UNL     1      40.685 -15.582   3.796  1.00  0.00    -0.174 NA
HETATM    8  H   UNL     1      39.414 -13.998   3.946  1.00  0.00     0.189 HD
HETATM    9  C   UNL     1      41.776 -15.898   4.512  1.00  0.00     0.089 A 
HETATM   10  C   UNL     1      42.023 -14.898   5.496  1.00  0.00     0.071 A 
BRANCH   9  11
HETATM   11  C   UNL     1      42.556 -17.109   4.242  1.00  0.00    -0.005 A 
HETATM   12  C   UNL     1      42.314 -17.870   3.089  1.00  0.00     0.016 A 
HETATM   13  C   UNL     1      43.070 -19.016   2.807  1.00  0.00     0.037 A 
HETATM   14  C   UNL     1      44.077 -19.421   3.679  1.00  0.00     0.068 A 
HETATM   15  C   UNL     1      44.311 -18.681   4.839  1.00  0.00     0.037 A 
HETATM   16  C   UNL     1      43.562 -17.534   5.120  1.00  0.00     0.016 A 
BRANCH  14  17
HETATM   17  O   UNL     1      44.889 -20.511   3.523  1.00  0.00    -0.356 OA
HETATM   18  C   UNL     1      44.473 -21.490   2.579  1.00  0.00     0.210 C 
ENDBRANCH  14  17
ENDBRANCH   9  11
ENDBRANCH   1   5
BRANCH   2  19
HETATM   19  N   UNL     1      41.436 -11.156   7.686  1.00  0.00    -0.267 N 
HETATM   20  C   UNL     1      42.423 -10.740   8.552  1.00  0.00     0.240 C 
HETATM   21  O   UNL     1      43.550 -11.238   8.554  1.00  0.00    -0.272 OA
HETATM   22  H   UNL     1      40.478 -10.804   7.696  1.00  0.00     0.190 HD
BRANCH  20  23
HETATM   23  C   UNL     1      42.015  -9.623   9.489  1.00  0.00     0.144 C 
BRANCH  23  24
HETATM   24  C   UNL     1      42.200  -9.995  10.939  1.00  0.00    -0.028 A 
HETATM   25  C   UNL     1      41.300 -10.819  11.635  1.00  0.00     0.040 A 
HETATM   26 CL   UNL     1      39.904 -11.491  10.871  1.00  0.00    -0.084 Cl
HETATM   27  C   UNL     1      41.510 -11.121  12.983  1.00  0.00     0.024 A 
HETATM   28  C   UNL     1      42.612 -10.597  13.659  1.00  0.00     0.002 A 
HETATM   29  C   UNL     1      43.503  -9.766  12.986  1.00  0.00     0.001 A 
HETATM   30  C   UNL     1      43.298  -9.464  11.639  1.00  0.00     0.009 A 
ENDBRANCH  23  24
ENDBRANCH  20  23
ENDBRANCH   2  19
TORSDOF 6
ENDMDL
MODEL 8
REMARK VINA RESULT:      -8.0      8.649     12.262
REMARK  6 active torsions:
REMARK  status: ('A' for Active; 'I' for Inactive)
REMARK    1  A    between atoms: O_2  and  C_3 
REMARK    2  A    between atoms: C_6  and  C_7 
REMARK    3  A    between atoms: C_11  and  C_12 
REMARK       I    between atoms: C_12  and  N_13 
REMARK    4  A    between atoms: N_13  and  N_14 
REMARK       I    between atoms: N_14  and  C_15 
REMARK    5  A    between atoms: C_15  and  C_16 
REMARK    6  A    between atoms: C_16  and  C_17 
ROOT
HETATM    1  C   UNL     1      41.196 -15.168   0.067  1.00  0.00     0.288 C 
HETATM    2  N   UNL     1      42.003 -16.277   0.204  1.00  0.00    -0.262 N 
HETATM    3  O   UNL     1      40.451 -14.787   0.968  1.00  0.00    -0.264 OA
HETATM    4  H   UNL     1      42.527 -16.681  -0.569  1.00  0.00     0.190 HD
ENDROOT
BRANCH   1   5
HETATM    5  C   UNL     1      41.283 -14.497  -1.202  1.00  0.00     0.121 A 
HETATM    6  N   UNL     1      41.516 -15.178  -2.363  1.00  0.00    -0.272 N 
HETATM    7  N   UNL     1      41.552 -14.404  -3.458  1.00  0.00    -0.174 NA
HETATM    8  H   UNL     1      41.654 -16.180  -2.466  1.00  0.00     0.189 HD
HETATM    9  C   UNL     1      41.355 -13.157  -3.000  1.00  0.00     0.089 A 
HETATM   10  C   UNL     1      41.175 -13.176  -1.587  1.00  0.00     0.071 A 
BRANCH   9  11
HETATM   11  C   UNL     1      41.325 -11.998  -3.897  1.00  0.00    -0.005 A 
HETATM   12  C   UNL     1      40.102 -11.473  -4.342  1.00  0.00     0.016 A 
HETATM   13  C   UNL     1      40.059 -10.350  -5.179  1.00  0.00     0.037 A 
HETATM   14  C   UNL     1      41.241  -9.738  -5.588  1.00  0.00     0.068 A 
HETATM   15  C   UNL     1      42.462 -10.264  -5.164  1.00  0.00     0.037 A 
HETATM   16  C   UNL     1      42.508 -11.382  -4.325  1.00  0.00     0.016 A 
BRANCH  14  17
HETATM   17  O   UNL     1      41.342  -8.637  -6.395  1.00  0.00    -0.356 OA
HETATM   18  C   UNL     1      42.636  -8.326  -6.894  1.00  0.00     0.210 C 
ENDBRANCH  14  17
ENDBRANCH   9  11
ENDBRANCH   1   5
BRANCH   2  19
HETATM   19  N   UNL     1      41.859 -17.088   1.333  1.00  0.00    -0.267 N 
HETATM   20  C   UNL     1      42.941 -17.219   2.176  1.00  0.00     0.240 C 
HETATM   21  O   UNL     1      43.983 -16.581   2.014  1.00  0.00    -0.272 OA
HETATM   22  H   UNL     1      41.004 -17.640   1.407  1.00  0.00     0.190 HD
BRANCH  20  23
HETATM   23  C   UNL     1      42.742 -18.197   3.315  1.00  0.00     0.144 C 
BRANCH  23  24
HETATM   24  C   UNL     1      43.422 -19.519   3.060  1.00  0.00    -0.028 A 
HETATM   25  C   UNL     1      44.428 -20.031   3.895  1.00  0.00     0.040 A 
HETATM   26 CL   UNL     1      44.960 -19.185   5.304  1.00  0.00    -0.084 Cl
HETATM   27  C   UNL     1      45.037 -21.256   3.606  1.00  0.00     0.024 A 
HETATM   28  C   UNL     1      44.659 -21.980   2.475  1.00  0.00     0.002 A 
HETATM   29  C   UNL     1      43.675 -21.477   1.630  1.00  0.00     0.001 A 
HETATM   30  C   UNL     1      43.063 -20.255   1.917  1.00  0.00     0.009 A 
ENDBRANCH  23  24
ENDBRANCH  20  23
ENDBRANCH   2  19
TORSDOF 6
ENDMDL
MODEL 9
REMARK VINA RESULT:      -7.8      8.008     10.222
REMARK  6 active torsions:
REMARK  status: ('A' for Active; 'I' for Inactive)
REMARK    1  A    between atoms: O_2  and  C_3 
REMARK    2  A    between atoms: C_6  and  C_7 
REMARK    3  A    between atoms: C_11  and  C_12 
REMARK       I    between atoms: C_12  and  N_13 
REMARK    4  A    between atoms: N_13  and  N_14 
REMARK       I    between atoms: N_14  and  C_15 
REMARK    5  A    between atoms: C_15  and  C_16 
REMARK    6  A    between atoms: C_16  and  C_17 
ROOT
HETATM    1  C   UNL     1      41.275 -14.615  -0.223  1.00  0.00     0.288 C 
HETATM    2  N   UNL     1      40.262 -14.682  -1.155  1.00  0.00    -0.262 N 
HETATM    3  O   UNL     1      41.896 -13.576  -0.006  1.00  0.00    -0.264 OA
HETATM    4  H   UNL     1      39.825 -15.556  -1.439  1.00  0.00     0.190 HD
ENDROOT
BRANCH   1   5
HETATM    5  C   UNL     1      41.555 -15.844   0.468  1.00  0.00     0.121 A 
HETATM    6  N   UNL     1      40.666 -16.881   0.487  1.00  0.00    -0.272 N 
HETATM    7  N   UNL     1      41.090 -17.959   1.163  1.00  0.00    -0.174 NA
HETATM    8  H   UNL     1      39.750 -16.908   0.046  1.00  0.00     0.189 HD
HETATM    9  C   UNL     1      42.302 -17.614   1.628  1.00  0.00     0.089 A 
HETATM   10  C   UNL     1      42.631 -16.294   1.207  1.00  0.00     0.071 A 
BRANCH   9  11
HETATM   11  C   UNL     1      43.112 -18.532   2.434  1.00  0.00    -0.005 A 
HETATM   12  C   UNL     1      43.501 -18.183   3.736  1.00  0.00     0.016 A 
HETATM   13  C   UNL     1      44.255 -19.061   4.525  1.00  0.00     0.037 A 
HETATM   14  C   UNL     1      44.637 -20.302   4.020  1.00  0.00     0.068 A 
HETATM   15  C   UNL     1      44.271 -20.650   2.720  1.00  0.00     0.037 A 
HETATM   16  C   UNL     1      43.514 -19.776   1.931  1.00  0.00     0.016 A 
BRANCH  14  17
HETATM   17  O   UNL     1      45.365 -21.252   4.682  1.00  0.00    -0.356 OA
HETATM   18  C   UNL     1      44.763 -22.532   4.830  1.00  0.00     0.210 C 
ENDBRANCH  14  17
ENDBRANCH   9  11
ENDBRANCH   1   5
BRANCH   2  19
HETATM   19  N   UNL     1      40.035 -13.586  -1.994  1.00  0.00    -0.267 N 
HETATM   20  C   UNL     1      40.650 -13.578  -3.226  1.00  0.00     0.240 C 
HETATM   21  O   UNL     1      41.311 -14.533  -3.639  1.00  0.00    -0.272 OA
HETATM   22  H   UNL     1      39.528 -12.793  -1.600  1.00  0.00     0.190 HD
BRANCH  20  23
HETATM   23  C   UNL     1      40.443 -12.312  -4.029  1.00  0.00     0.144 C 
BRANCH  23  24
HETATM   24  C   UNL     1      41.010 -11.096  -3.339  1.00  0.00    -0.028 A 
HETATM   25  C   UNL     1      40.207 -10.045  -2.866  1.00  0.00     0.040 A 
HETATM   26 CL   UNL     1      38.487 -10.071  -3.027  1.00  0.00    -0.084 Cl
HETATM   27  C   UNL     1      40.784  -8.933  -2.246  1.00  0.00     0.024 A 
HETATM   28  C   UNL     1      42.168  -8.849  -2.099  1.00  0.00     0.002 A 
HETATM   29  C   UNL     1      42.978  -9.875  -2.577  1.00  0.00     0.001 A 
HETATM   30  C   UNL     1      42.405 -10.988  -3.195  1.00  0.00     0.009 A 
ENDBRANCH  23  24
ENDBRANCH  20  23
ENDBRANCH   2  19
TORSDOF 6
ENDMDL
MODEL 10
REMARK VINA RESULT:      -7.8      8.662     11.429
REMARK  6 active torsions:
REMARK  status: ('A' for Active; 'I' for Inactive)
REMARK    1  A    between atoms: O_2  and  C_3 
REMARK    2  A    between atoms: C_6  and  C_7 
REMARK    3  A    between atoms: C_11  and  C_12 
REMARK       I    between atoms: C_12  and  N_13 
REMARK    4  A    between atoms: N_13  and  N_14 
REMARK       I    between atoms: N_14  and  C_15 
REMARK    5  A    between atoms: C_15  and  C_16 
REMARK    6  A    between atoms: C_16  and  C_17 
ROOT
HETATM    1  C   UNL     1      41.371 -15.470  -0.027  1.00  0.00     0.288 C 
HETATM    2  N   UNL     1      42.235 -16.543   0.016  1.00  0.00    -0.262 N 
HETATM    3  O   UNL     1      40.655 -15.170   0.927  1.00  0.00    -0.264 OA
HETATM    4  H   UNL     1      42.738 -16.884  -0.801  1.00  0.00     0.190 HD
ENDROOT
BRANCH   1   5
HETATM    5  C   UNL     1      41.363 -14.737  -1.263  1.00  0.00     0.121 A 
HETATM    6  N   UNL     1      41.401 -15.365  -2.475  1.00  0.00    -0.272 N 
HETATM    7  N   UNL     1      41.371 -14.534  -3.528  1.00  0.00    -0.174 NA
HETATM    8  H   UNL     1      41.443 -16.367  -2.643  1.00  0.00     0.189 HD
HETATM    9  C   UNL     1      41.332 -13.305  -2.991  1.00  0.00     0.089 A 
HETATM   10  C   UNL     1      41.319 -13.392  -1.568  1.00  0.00     0.071 A 
BRANCH   9  11
HETATM   11  C   UNL     1      41.292 -12.097  -3.820  1.00  0.00    -0.005 A 
HETATM   12  C   UNL     1      42.481 -11.483  -4.241  1.00  0.00     0.016 A 
HETATM   13  C   UNL     1      42.457 -10.342  -5.054  1.00  0.00     0.037 A 
HETATM   14  C   UNL     1      41.241  -9.795  -5.455  1.00  0.00     0.068 A 
HETATM   15  C   UNL     1      40.053 -10.389  -5.025  1.00  0.00     0.037 A 
HETATM   16  C   UNL     1      40.074 -11.530  -4.217  1.00  0.00     0.016 A 
BRANCH  14  17
HETATM   17  O   UNL     1      41.075  -8.694  -6.249  1.00  0.00    -0.356 OA
HETATM   18  C   UNL     1      42.234  -7.916  -6.517  1.00  0.00     0.210 C 
ENDBRANCH  14  17
ENDBRANCH   9  11
ENDBRANCH   1   5
BRANCH   2  19
HETATM   19  N   UNL     1      42.186 -17.414   1.109  1.00  0.00    -0.267 N 
HETATM   20  C   UNL     1      43.378 -17.787   1.690  1.00  0.00     0.240 C 
HETATM   21  O   UNL     1      44.460 -17.314   1.338  1.00  0.00    -0.272 OA
HETATM   22  H   UNL     1      41.282 -17.826   1.339  1.00  0.00     0.190 HD
BRANCH  20  23
HETATM   23  C   UNL     1      43.249 -18.814   2.796  1.00  0.00     0.144 C 
BRANCH  23  24
HETATM   24  C   UNL     1      43.751 -18.295   4.121  1.00  0.00    -0.028 A 
HETATM   25  C   UNL     1      44.670 -18.999   4.915  1.00  0.00     0.040 A 
HETATM   26 CL   UNL     1      45.316 -20.525   4.425  1.00  0.00    -0.084 Cl
HETATM   27  C   UNL     1      45.092 -18.481   6.143  1.00  0.00     0.024 A 
HETATM   28  C   UNL     1      44.596 -17.260   6.599  1.00  0.00     0.002 A 
HETATM   29  C   UNL     1      43.673 -16.558   5.830  1.00  0.00     0.001 A 
HETATM   30  C   UNL     1      43.251 -17.072   4.602  1.00  0.00     0.009 A 
ENDBRANCH  23  24
ENDBRANCH  20  23
ENDBRANCH   2  19
TORSDOF 6
ENDMDL
