MODEL 1
REMARK VINA RESULT:      -8.0      0.000      0.000
REMARK  6 active torsions:
REMARK  status: ('A' for Active; 'I' for Inactive)
REMARK    1  A    between atoms: C_8  and  C_9 
REMARK    2  A    between atoms: C_9  and  C_10 
REMARK       I    between atoms: C_10  and  N_11 
REMARK    3  A    between atoms: N_11  and  C_12 
REMARK    4  A    between atoms: C_12  and  C_13 
REMARK    5  A    between atoms: C_13  and  N_14 
REMARK    6  A    between atoms: C_13  and  C_20 
ROOT
HETATM    1  C   UNL     1      42.793 -16.472   1.859  1.00  0.00     0.160 C 
ENDROOT
BRANCH   1   2
HETATM    2  N   UNL     1      41.711 -16.038   0.974  1.00  0.00    -0.358 N 
HETATM    3  C   UNL     1      41.284 -14.732   0.836  1.00  0.00     0.226 C 
HETATM    4  O   UNL     1      41.664 -13.854   1.612  1.00  0.00    -0.273 OA
HETATM    5  H   UNL     1      41.528 -16.639   0.172  1.00  0.00     0.162 HD
BRANCH   3   6
HETATM    6  C   UNL     1      40.307 -14.497  -0.324  1.00  0.00     0.111 C 
HETATM    7  C   UNL     1      39.376 -13.319  -0.044  1.00  0.00     0.025 C 
BRANCH   6   8
HETATM    8  C   UNL     1      41.060 -14.335  -1.616  1.00  0.00     0.004 A 
HETATM    9  C   UNL     1      42.003 -13.378  -1.965  1.00  0.00     0.033 A 
HETATM   10  C   UNL     1      42.571 -12.215  -1.243  1.00  0.00     0.070 C 
HETATM   11  N   UNL     1      42.381 -13.674  -3.247  1.00  0.00    -0.282 N 
HETATM   12  H   UNL     1      43.038 -13.178  -3.842  1.00  0.00     0.189 HD
HETATM   13  N   UNL     1      41.797 -14.772  -3.734  1.00  0.00    -0.179 NA
HETATM   14  C   UNL     1      40.953 -15.158  -2.774  1.00  0.00     0.060 A 
HETATM   15  C   UNL     1      40.072 -16.333  -3.001  1.00  0.00     0.073 C 
ENDBRANCH   6   8
ENDBRANCH   3   6
ENDBRANCH   1   2
BRANCH   1  16
HETATM   16  C   UNL     1      42.387 -17.302   3.127  1.00  0.00     0.238 C 
BRANCH  16  17
HETATM   17  N   UNL     1      42.357 -16.417   4.369  1.00  0.00    -0.061 N 
HETATM   18  H   UNL     1      42.819 -17.008   5.093  1.00  0.00     0.280 HD
HETATM   19  C   UNL     1      41.023 -16.041   4.966  1.00  0.00     0.236 C 
HETATM   20  C   UNL     1      41.006 -14.528   4.925  1.00  0.00     0.029 C 
HETATM   21  C   UNL     1      42.456 -14.167   5.174  1.00  0.00     0.029 C 
HETATM   22  C   UNL     1      43.205 -15.167   4.313  1.00  0.00     0.236 C 
ENDBRANCH  16  17
BRANCH  16  23
HETATM   23  C   UNL     1      43.217 -18.570   3.302  1.00  0.00    -0.024 A 
HETATM   24  C   UNL     1      43.261 -19.584   2.329  1.00  0.00     0.033 A 
HETATM   25  C   UNL     1      44.062 -20.714   2.511  1.00  0.00     0.034 A 
HETATM   26 CL   UNL     1      44.105 -21.923   1.290  1.00  0.00    -0.084 Cl
HETATM   27  C   UNL     1      44.825 -20.864   3.664  1.00  0.00     0.024 A 
HETATM   28  C   UNL     1      44.781 -19.880   4.648  1.00  0.00     0.002 A 
HETATM   29  C   UNL     1      43.981 -18.747   4.471  1.00  0.00     0.009 A 
ENDBRANCH  16  23
ENDBRANCH   1  16
TORSDOF 6
ENDMDL
MODEL 2
REMARK VINA RESULT:      -8.0      3.131      5.595
REMARK  6 active torsions:
REMARK  status: ('A' for Active; 'I' for Inactive)
REMARK    1  A    between atoms: C_8  and  C_9 
REMARK    2  A    between atoms: C_9  and  C_10 
REMARK       I    between atoms: C_10  and  N_11 
REMARK    3  A    between atoms: N_11  and  C_12 
REMARK    4  A    between atoms: C_12  and  C_13 
REMARK    5  A    between atoms: C_13  and  N_14 
REMARK    6  A    between atoms: C_13  and  C_20 
ROOT
HETATM    1  C   UNL     1      43.764 -17.779   1.890  1.00  0.00     0.160 C 
ENDROOT
BRANCH   1   2
HETATM    2  N   UNL     1      43.441 -16.352   1.934  1.00  0.00    -0.358 N 
HETATM    3  C   UNL     1      42.433 -15.752   1.206  1.00  0.00     0.226 C 
HETATM    4  O   UNL     1      41.853 -16.357   0.305  1.00  0.00    -0.273 OA
HETATM    5  H   UNL     1      43.705 -15.865   2.789  1.00  0.00     0.162 HD
BRANCH   3   6
HETATM    6  C   UNL     1      42.135 -14.299   1.603  1.00  0.00     0.111 C 
HETATM    7  C   UNL     1      41.604 -13.491   0.422  1.00  0.00     0.025 C 
BRANCH   6   8
HETATM    8  C   UNL     1      41.204 -14.263   2.785  1.00  0.00     0.004 A 
HETATM    9  C   UNL     1      39.883 -14.682   2.871  1.00  0.00     0.033 A 
HETATM   10  C   UNL     1      38.948 -15.272   1.883  1.00  0.00     0.070 C 
HETATM   11  N   UNL     1      39.493 -14.431   4.159  1.00  0.00    -0.282 N 
HETATM   12  H   UNL     1      38.585 -14.586   4.585  1.00  0.00     0.189 HD
HETATM   13  N   UNL     1      40.469 -13.930   4.922  1.00  0.00    -0.179 NA
HETATM   14  C   UNL     1      41.501 -13.775   4.090  1.00  0.00     0.060 A 
HETATM   15  C   UNL     1      42.762 -13.168   4.590  1.00  0.00     0.073 C 
ENDBRANCH   6   8
ENDBRANCH   3   6
ENDBRANCH   1   2
BRANCH   1  16
HETATM   16  C   UNL     1      43.973 -18.506   3.264  1.00  0.00     0.238 C 
BRANCH  16  17
HETATM   17  N   UNL     1      43.661 -19.994   3.144  1.00  0.00    -0.061 N 
HETATM   18  H   UNL     1      42.879 -20.128   3.821  1.00  0.00     0.280 HD
HETATM   19  C   UNL     1      44.711 -20.996   3.558  1.00  0.00     0.236 C 
HETATM   20  C   UNL     1      44.962 -21.815   2.309  1.00  0.00     0.029 C 
HETATM   21  C   UNL     1      43.594 -21.868   1.660  1.00  0.00     0.029 C 
HETATM   22  C   UNL     1      43.088 -20.447   1.821  1.00  0.00     0.236 C 
ENDBRANCH  16  17
BRANCH  16  23
HETATM   23  C   UNL     1      43.247 -17.822   4.418  1.00  0.00    -0.024 A 
HETATM   24  C   UNL     1      43.914 -17.010   5.354  1.00  0.00     0.033 A 
HETATM   25  C   UNL     1      43.207 -16.372   6.376  1.00  0.00     0.034 A 
HETATM   26 CL   UNL     1      44.053 -15.372   7.489  1.00  0.00    -0.084 Cl
HETATM   27  C   UNL     1      41.831 -16.536   6.497  1.00  0.00     0.024 A 
HETATM   28  C   UNL     1      41.156 -17.352   5.593  1.00  0.00     0.002 A 
HETATM   29  C   UNL     1      41.858 -17.992   4.567  1.00  0.00     0.009 A 
ENDBRANCH  16  23
ENDBRANCH   1  16
TORSDOF 6
ENDMDL
MODEL 3
REMARK VINA RESULT:      -7.8      2.093      2.852
REMARK  6 active torsions:
REMARK  status: ('A' for Active; 'I' for Inactive)
REMARK    1  A    between atoms: C_8  and  C_9 
REMARK    2  A    between atoms: C_9  and  C_10 
REMARK       I    between atoms: C_10  and  N_11 
REMARK    3  A    between atoms: N_11  and  C_12 
REMARK    4  A    between atoms: C_12  and  C_13 
REMARK    5  A    between atoms: C_13  and  N_14 
REMARK    6  A    between atoms: C_13  and  C_20 
ROOT
HETATM    1  C   UNL     1      40.279 -16.991   1.968  1.00  0.00     0.160 C 
ENDROOT
BRANCH   1   2
HETATM    2  N   UNL     1      40.154 -15.728   1.238  1.00  0.00    -0.358 N 
HETATM    3  C   UNL     1      40.954 -15.351   0.178  1.00  0.00     0.226 C 
HETATM    4  O   UNL     1      41.974 -15.981  -0.104  1.00  0.00    -0.273 OA
HETATM    5  H   UNL     1      39.233 -15.294   1.259  1.00  0.00     0.162 HD
BRANCH   3   6
HETATM    6  C   UNL     1      40.475 -14.100  -0.572  1.00  0.00     0.111 C 
HETATM    7  C   UNL     1      38.984 -13.855  -0.360  1.00  0.00     0.025 C 
BRANCH   6   8
HETATM    8  C   UNL     1      41.311 -12.910  -0.186  1.00  0.00     0.004 A 
HETATM    9  C   UNL     1      41.307 -12.185   0.997  1.00  0.00     0.033 A 
HETATM   10  C   UNL     1      40.512 -12.297   2.243  1.00  0.00     0.070 C 
HETATM   11  N   UNL     1      42.250 -11.205   0.840  1.00  0.00    -0.282 N 
HETATM   12  H   UNL     1      42.512 -10.470   1.490  1.00  0.00     0.189 HD
HETATM   13  N   UNL     1      42.895 -11.270  -0.328  1.00  0.00    -0.179 NA
HETATM   14  C   UNL     1      42.302 -12.269  -0.985  1.00  0.00     0.060 A 
HETATM   15  C   UNL     1      42.727 -12.590  -2.373  1.00  0.00     0.073 C 
ENDBRANCH   6   8
ENDBRANCH   3   6
ENDBRANCH   1   2
BRANCH   1  16
HETATM   16  C   UNL     1      41.061 -16.954   3.327  1.00  0.00     0.238 C 
BRANCH  16  17
HETATM   17  N   UNL     1      41.452 -15.525   3.691  1.00  0.00    -0.061 N 
HETATM   18  H   UNL     1      40.853 -14.948   3.062  1.00  0.00     0.280 HD
HETATM   19  C   UNL     1      42.863 -15.063   3.418  1.00  0.00     0.236 C 
HETATM   20  C   UNL     1      43.392 -14.650   4.775  1.00  0.00     0.029 C 
HETATM   21  C   UNL     1      42.165 -14.078   5.456  1.00  0.00     0.029 C 
HETATM   22  C   UNL     1      41.079 -15.069   5.082  1.00  0.00     0.236 C 
ENDBRANCH  16  17
BRANCH  16  23
HETATM   23  C   UNL     1      42.229 -17.935   3.371  1.00  0.00    -0.024 A 
HETATM   24  C   UNL     1      42.790 -18.387   4.579  1.00  0.00     0.033 A 
HETATM   25  C   UNL     1      43.836 -19.313   4.578  1.00  0.00     0.034 A 
HETATM   26 CL   UNL     1      44.482 -19.857   6.075  1.00  0.00    -0.084 Cl
HETATM   27  C   UNL     1      44.351 -19.799   3.381  1.00  0.00     0.024 A 
HETATM   28  C   UNL     1      43.822 -19.349   2.174  1.00  0.00     0.002 A 
HETATM   29  C   UNL     1      42.775 -18.423   2.169  1.00  0.00     0.009 A 
ENDBRANCH  16  23
ENDBRANCH   1  16
TORSDOF 6
ENDMDL
MODEL 4
REMARK VINA RESULT:      -7.5      1.838      2.498
REMARK  6 active torsions:
REMARK  status: ('A' for Active; 'I' for Inactive)
REMARK    1  A    between atoms: C_8  and  C_9 
REMARK    2  A    between atoms: C_9  and  C_10 
REMARK       I    between atoms: C_10  and  N_11 
REMARK    3  A    between atoms: N_11  and  C_12 
REMARK    4  A    between atoms: C_12  and  C_13 
REMARK    5  A    between atoms: C_13  and  N_14 
REMARK    6  A    between atoms: C_13  and  C_20 
ROOT
HETATM    1  C   UNL     1      43.629 -16.790   2.632  1.00  0.00     0.160 C 
ENDROOT
BRANCH   1   2
HETATM    2  N   UNL     1      42.911 -15.548   2.344  1.00  0.00    -0.358 N 
HETATM    3  C   UNL     1      41.919 -15.415   1.393  1.00  0.00     0.226 C 
HETATM    4  O   UNL     1      41.703 -16.306   0.571  1.00  0.00    -0.273 OA
HETATM    5  H   UNL     1      42.871 -14.873   3.106  1.00  0.00     0.162 HD
BRANCH   3   6
HETATM    6  C   UNL     1      41.156 -14.085   1.446  1.00  0.00     0.111 C 
HETATM    7  C   UNL     1      42.088 -12.913   1.743  1.00  0.00     0.025 C 
BRANCH   6   8
HETATM    8  C   UNL     1      40.372 -13.882   0.177  1.00  0.00     0.004 A 
HETATM    9  C   UNL     1      40.830 -13.553  -1.091  1.00  0.00     0.033 A 
HETATM   10  C   UNL     1      42.182 -13.275  -1.632  1.00  0.00     0.070 C 
HETATM   11  N   UNL     1      39.718 -13.489  -1.887  1.00  0.00    -0.282 N 
HETATM   12  H   UNL     1      39.660 -13.252  -2.873  1.00  0.00     0.189 HD
HETATM   13  N   UNL     1      38.587 -13.800  -1.247  1.00  0.00    -0.179 NA
HETATM   14  C   UNL     1      38.960 -13.993   0.020  1.00  0.00     0.060 A 
HETATM   15  C   UNL     1      37.932 -14.297   1.049  1.00  0.00     0.073 C 
ENDBRANCH   6   8
ENDBRANCH   3   6
ENDBRANCH   1   2
BRANCH   1  16
HETATM   16  C   UNL     1      42.819 -17.936   3.334  1.00  0.00     0.238 C 
BRANCH  16  17
HETATM   17  N   UNL     1      42.576 -17.608   4.804  1.00  0.00    -0.061 N 
HETATM   18  H   UNL     1      42.669 -18.534   5.272  1.00  0.00     0.280 HD
HETATM   19  C   UNL     1      41.221 -17.092   5.223  1.00  0.00     0.236 C 
HETATM   20  C   UNL     1      41.509 -15.743   5.847  1.00  0.00     0.029 C 
HETATM   21  C   UNL     1      42.852 -15.958   6.514  1.00  0.00     0.029 C 
HETATM   22  C   UNL     1      43.623 -16.747   5.473  1.00  0.00     0.236 C 
ENDBRANCH  16  17
BRANCH  16  23
HETATM   23  C   UNL     1      43.423 -19.318   3.110  1.00  0.00    -0.024 A 
HETATM   24  C   UNL     1      44.074 -20.031   4.133  1.00  0.00     0.033 A 
HETATM   25  C   UNL     1      44.583 -21.311   3.898  1.00  0.00     0.034 A 
HETATM   26 CL   UNL     1      45.355 -22.160   5.179  1.00  0.00    -0.084 Cl
HETATM   27  C   UNL     1      44.467 -21.902   2.645  1.00  0.00     0.024 A 
HETATM   28  C   UNL     1      43.844 -21.204   1.614  1.00  0.00     0.002 A 
HETATM   29  C   UNL     1      43.331 -19.924   1.843  1.00  0.00     0.009 A 
ENDBRANCH  16  23
ENDBRANCH   1  16
TORSDOF 6
ENDMDL
MODEL 5
REMARK VINA RESULT:      -7.4      1.696      2.490
REMARK  6 active torsions:
REMARK  status: ('A' for Active; 'I' for Inactive)
REMARK    1  A    between atoms: C_8  and  C_9 
REMARK    2  A    between atoms: C_9  and  C_10 
REMARK       I    between atoms: C_10  and  N_11 
REMARK    3  A    between atoms: N_11  and  C_12 
REMARK    4  A    between atoms: C_12  and  C_13 
REMARK    5  A    between atoms: C_13  and  N_14 
REMARK    6  A    between atoms: C_13  and  C_20 
ROOT
HETATM    1  C   UNL     1      40.507 -16.992   2.289  1.00  0.00     0.160 C 
ENDROOT
BRANCH   1   2
HETATM    2  N   UNL     1      40.246 -15.831   1.437  1.00  0.00    -0.358 N 
HETATM    3  C   UNL     1      41.058 -15.418   0.400  1.00  0.00     0.226 C 
HETATM    4  O   UNL     1      42.181 -15.897   0.243  1.00  0.00    -0.273 OA
HETATM    5  H   UNL     1      39.270 -15.550   1.360  1.00  0.00     0.162 HD
BRANCH   3   6
HETATM    6  C   UNL     1      40.451 -14.327  -0.493  1.00  0.00     0.111 C 
HETATM    7  C   UNL     1      39.142 -13.794   0.083  1.00  0.00     0.025 C 
BRANCH   6   8
HETATM    8  C   UNL     1      41.456 -13.233  -0.734  1.00  0.00     0.004 A 
HETATM    9  C   UNL     1      42.063 -12.850  -1.922  1.00  0.00     0.033 A 
HETATM   10  C   UNL     1      41.965 -13.357  -3.312  1.00  0.00     0.070 C 
HETATM   11  N   UNL     1      42.892 -11.809  -1.601  1.00  0.00    -0.282 N 
HETATM   12  H   UNL     1      43.516 -11.287  -2.210  1.00  0.00     0.189 HD
HETATM   13  N   UNL     1      42.832 -11.459  -0.313  1.00  0.00    -0.179 NA
HETATM   14  C   UNL     1      42.002 -12.346   0.238  1.00  0.00     0.060 A 
HETATM   15  C   UNL     1      41.745 -12.301   1.701  1.00  0.00     0.073 C 
ENDBRANCH   6   8
ENDBRANCH   3   6
ENDBRANCH   1   2
BRANCH   1  16
HETATM   16  C   UNL     1      41.112 -16.714   3.709  1.00  0.00     0.238 C 
BRANCH  16  17
HETATM   17  N   UNL     1      41.619 -15.279   3.812  1.00  0.00    -0.061 N 
HETATM   18  H   UNL     1      41.178 -14.812   2.991  1.00  0.00     0.280 HD
HETATM   19  C   UNL     1      43.097 -15.014   3.664  1.00  0.00     0.236 C 
HETATM   20  C   UNL     1      43.492 -14.348   4.965  1.00  0.00     0.029 C 
HETATM   21  C   UNL     1      42.264 -13.532   5.312  1.00  0.00     0.029 C 
HETATM   22  C   UNL     1      41.126 -14.484   4.999  1.00  0.00     0.236 C 
ENDBRANCH  16  17
BRANCH  16  23
HETATM   23  C   UNL     1      42.143 -17.755   4.134  1.00  0.00    -0.024 A 
HETATM   24  C   UNL     1      42.871 -18.519   3.204  1.00  0.00     0.033 A 
HETATM   25  C   UNL     1      43.832 -19.438   3.632  1.00  0.00     0.034 A 
HETATM   26 CL   UNL     1      44.716 -20.340   2.465  1.00  0.00    -0.084 Cl
HETATM   27  C   UNL     1      44.082 -19.624   4.987  1.00  0.00     0.024 A 
HETATM   28  C   UNL     1      43.358 -18.891   5.924  1.00  0.00     0.002 A 
HETATM   29  C   UNL     1      42.395 -17.970   5.502  1.00  0.00     0.009 A 
ENDBRANCH  16  23
ENDBRANCH   1  16
TORSDOF 6
ENDMDL
MODEL 6
REMARK VINA RESULT:      -7.4      2.242      3.747
REMARK  6 active torsions:
REMARK  status: ('A' for Active; 'I' for Inactive)
REMARK    1  A    between atoms: C_8  and  C_9 
REMARK    2  A    between atoms: C_9  and  C_10 
REMARK       I    between atoms: C_10  and  N_11 
REMARK    3  A    between atoms: N_11  and  C_12 
REMARK    4  A    between atoms: C_12  and  C_13 
REMARK    5  A    between atoms: C_13  and  N_14 
REMARK    6  A    between atoms: C_13  and  C_20 
ROOT
HETATM    1  C   UNL     1      40.421 -15.573   2.015  1.00  0.00     0.160 C 
ENDROOT
BRANCH   1   2
HETATM    2  N   UNL     1      39.830 -15.263   0.712  1.00  0.00    -0.358 N 
HETATM    3  C   UNL     1      39.497 -13.994   0.282  1.00  0.00     0.226 C 
HETATM    4  O   UNL     1      39.494 -13.040   1.060  1.00  0.00    -0.273 OA
HETATM    5  H   UNL     1      40.020 -15.934  -0.030  1.00  0.00     0.162 HD
BRANCH   3   6
HETATM    6  C   UNL     1      39.122 -13.900  -1.204  1.00  0.00     0.111 C 
HETATM    7  C   UNL     1      38.446 -12.570  -1.529  1.00  0.00     0.025 C 
BRANCH   6   8
HETATM    8  C   UNL     1      40.330 -14.152  -2.064  1.00  0.00     0.004 A 
HETATM    9  C   UNL     1      41.578 -13.545  -2.019  1.00  0.00     0.033 A 
HETATM   10  C   UNL     1      42.145 -12.473  -1.167  1.00  0.00     0.070 C 
HETATM   11  N   UNL     1      42.316 -14.132  -3.011  1.00  0.00    -0.282 N 
HETATM   12  H   UNL     1      43.271 -13.929  -3.292  1.00  0.00     0.189 HD
HETATM   13  N   UNL     1      41.663 -15.101  -3.658  1.00  0.00    -0.179 NA
HETATM   14  C   UNL     1      40.438 -15.092  -3.129  1.00  0.00     0.060 A 
HETATM   15  C   UNL     1      39.401 -16.014  -3.663  1.00  0.00     0.073 C 
ENDBRANCH   6   8
ENDBRANCH   3   6
ENDBRANCH   1   2
BRANCH   1  16
HETATM   16  C   UNL     1      41.986 -15.547   2.113  1.00  0.00     0.238 C 
BRANCH  16  17
HETATM   17  N   UNL     1      42.592 -16.786   1.462  1.00  0.00    -0.061 N 
HETATM   18  H   UNL     1      42.559 -16.560   0.445  1.00  0.00     0.280 HD
HETATM   19  C   UNL     1      41.871 -18.106   1.592  1.00  0.00     0.236 C 
HETATM   20  C   UNL     1      42.871 -19.015   2.273  1.00  0.00     0.029 C 
HETATM   21  C   UNL     1      44.195 -18.543   1.709  1.00  0.00     0.029 C 
HETATM   22  C   UNL     1      44.057 -17.033   1.740  1.00  0.00     0.236 C 
ENDBRANCH  16  17
BRANCH  16  23
HETATM   23  C   UNL     1      42.491 -15.295   3.531  1.00  0.00    -0.024 A 
HETATM   24  C   UNL     1      42.184 -16.151   4.604  1.00  0.00     0.033 A 
HETATM   25  C   UNL     1      42.695 -15.906   5.881  1.00  0.00     0.034 A 
HETATM   26 CL   UNL     1      42.314 -16.985   7.164  1.00  0.00    -0.084 Cl
HETATM   27  C   UNL     1      43.511 -14.805   6.119  1.00  0.00     0.024 A 
HETATM   28  C   UNL     1      43.811 -13.935   5.074  1.00  0.00     0.002 A 
HETATM   29  C   UNL     1      43.303 -14.176   3.794  1.00  0.00     0.009 A 
ENDBRANCH  16  23
ENDBRANCH   1  16
TORSDOF 6
ENDMDL
MODEL 7
REMARK VINA RESULT:      -7.4      1.754      2.815
REMARK  6 active torsions:
REMARK  status: ('A' for Active; 'I' for Inactive)
REMARK    1  A    between atoms: C_8  and  C_9 
REMARK    2  A    between atoms: C_9  and  C_10 
REMARK       I    between atoms: C_10  and  N_11 
REMARK    3  A    between atoms: N_11  and  C_12 
REMARK    4  A    between atoms: C_12  and  C_13 
REMARK    5  A    between atoms: C_13  and  N_14 
REMARK    6  A    between atoms: C_13  and  C_20 
ROOT
HETATM    1  C   UNL     1      43.285 -16.294   2.253  1.00  0.00     0.160 C 
ENDROOT
BRANCH   1   2
HETATM    2  N   UNL     1      42.356 -15.670   1.310  1.00  0.00    -0.358 N 
HETATM    3  C   UNL     1      42.165 -14.309   1.178  1.00  0.00     0.226 C 
HETATM    4  O   UNL     1      42.631 -13.520   1.999  1.00  0.00    -0.273 OA
HETATM    5  H   UNL     1      42.131 -16.220   0.482  1.00  0.00     0.162 HD
BRANCH   3   6
HETATM    6  C   UNL     1      41.324 -13.896  -0.038  1.00  0.00     0.111 C 
HETATM    7  C   UNL     1      41.073 -15.075  -0.974  1.00  0.00     0.025 C 
BRANCH   6   8
HETATM    8  C   UNL     1      40.046 -13.240   0.411  1.00  0.00     0.004 A 
HETATM    9  C   UNL     1      39.032 -13.753   1.207  1.00  0.00     0.033 A 
HETATM   10  C   UNL     1      38.835 -15.069   1.860  1.00  0.00     0.070 C 
HETATM   11  N   UNL     1      38.099 -12.758   1.314  1.00  0.00    -0.282 N 
HETATM   12  H   UNL     1      37.208 -12.776   1.802  1.00  0.00     0.189 HD
HETATM   13  N   UNL     1      38.452 -11.629   0.693  1.00  0.00    -0.179 NA
HETATM   14  C   UNL     1      39.609 -11.920   0.097  1.00  0.00     0.060 A 
HETATM   15  C   UNL     1      40.274 -10.899  -0.754  1.00  0.00     0.073 C 
ENDBRANCH   6   8
ENDBRANCH   3   6
ENDBRANCH   1   2
BRANCH   1  16
HETATM   16  C   UNL     1      42.667 -17.235   3.346  1.00  0.00     0.238 C 
BRANCH  16  17
HETATM   17  N   UNL     1      42.469 -16.486   4.660  1.00  0.00    -0.061 N 
HETATM   18  H   UNL     1      42.806 -17.166   5.374  1.00  0.00     0.280 HD
HETATM   19  C   UNL     1      41.068 -16.127   5.092  1.00  0.00     0.236 C 
HETATM   20  C   UNL     1      41.088 -14.619   5.216  1.00  0.00     0.029 C 
HETATM   21  C   UNL     1      42.491 -14.339   5.713  1.00  0.00     0.029 C 
HETATM   22  C   UNL     1      43.340 -15.268   4.867  1.00  0.00     0.236 C 
ENDBRANCH  16  17
BRANCH  16  23
HETATM   23  C   UNL     1      43.427 -18.548   3.502  1.00  0.00    -0.024 A 
HETATM   24  C   UNL     1      43.445 -19.534   2.499  1.00  0.00     0.033 A 
HETATM   25  C   UNL     1      44.183 -20.708   2.666  1.00  0.00     0.034 A 
HETATM   26 CL   UNL     1      44.197 -21.881   1.409  1.00  0.00    -0.084 Cl
HETATM   27  C   UNL     1      44.907 -20.932   3.832  1.00  0.00     0.024 A 
HETATM   28  C   UNL     1      44.886 -19.977   4.845  1.00  0.00     0.002 A 
HETATM   29  C   UNL     1      44.150 -18.799   4.684  1.00  0.00     0.009 A 
ENDBRANCH  16  23
ENDBRANCH   1  16
TORSDOF 6
ENDMDL
MODEL 8
REMARK VINA RESULT:      -7.4      2.123      2.949
REMARK  6 active torsions:
REMARK  status: ('A' for Active; 'I' for Inactive)
REMARK    1  A    between atoms: C_8  and  C_9 
REMARK    2  A    between atoms: C_9  and  C_10 
REMARK       I    between atoms: C_10  and  N_11 
REMARK    3  A    between atoms: N_11  and  C_12 
REMARK    4  A    between atoms: C_12  and  C_13 
REMARK    5  A    between atoms: C_13  and  N_14 
REMARK    6  A    between atoms: C_13  and  C_20 
ROOT
HETATM    1  C   UNL     1      40.172 -16.610   1.827  1.00  0.00     0.160 C 
ENDROOT
BRANCH   1   2
HETATM    2  N   UNL     1      40.303 -15.630   0.748  1.00  0.00    -0.358 N 
HETATM    3  C   UNL     1      39.448 -14.567   0.543  1.00  0.00     0.226 C 
HETATM    4  O   UNL     1      38.382 -14.482   1.153  1.00  0.00    -0.273 OA
HETATM    5  H   UNL     1      41.243 -15.506   0.375  1.00  0.00     0.162 HD
BRANCH   3   6
HETATM    6  C   UNL     1      39.930 -13.549  -0.499  1.00  0.00     0.111 C 
HETATM    7  C   UNL     1      41.453 -13.521  -0.595  1.00  0.00     0.025 C 
BRANCH   6   8
HETATM    8  C   UNL     1      39.279 -13.816  -1.829  1.00  0.00     0.004 A 
HETATM    9  C   UNL     1      39.631 -14.737  -2.806  1.00  0.00     0.033 A 
HETATM   10  C   UNL     1      40.727 -15.729  -2.905  1.00  0.00     0.070 C 
HETATM   11  N   UNL     1      38.721 -14.577  -3.817  1.00  0.00    -0.282 N 
HETATM   12  H   UNL     1      38.675 -15.064  -4.707  1.00  0.00     0.189 HD
HETATM   13  N   UNL     1      37.783 -13.665  -3.549  1.00  0.00    -0.179 NA
HETATM   14  C   UNL     1      38.135 -13.157  -2.367  1.00  0.00     0.060 A 
HETATM   15  C   UNL     1      37.340 -12.048  -1.777  1.00  0.00     0.073 C 
ENDBRANCH   6   8
ENDBRANCH   3   6
ENDBRANCH   1   2
BRANCH   1  16
HETATM   16  C   UNL     1      41.133 -16.450   3.057  1.00  0.00     0.238 C 
BRANCH  16  17
HETATM   17  N   UNL     1      41.659 -15.021   3.152  1.00  0.00    -0.061 N 
HETATM   18  H   UNL     1      41.049 -14.499   2.488  1.00  0.00     0.280 HD
HETATM   19  C   UNL     1      43.069 -14.732   2.697  1.00  0.00     0.236 C 
HETATM   20  C   UNL     1      43.750 -14.161   3.923  1.00  0.00     0.029 C 
HETATM   21  C   UNL     1      42.637 -13.386   4.598  1.00  0.00     0.029 C 
HETATM   22  C   UNL     1      41.450 -14.324   4.476  1.00  0.00     0.236 C 
ENDBRANCH  16  17
BRANCH  16  23
HETATM   23  C   UNL     1      42.231 -17.508   3.099  1.00  0.00    -0.024 A 
HETATM   24  C   UNL     1      42.938 -17.814   4.276  1.00  0.00     0.033 A 
HETATM   25  C   UNL     1      43.913 -18.815   4.282  1.00  0.00     0.034 A 
HETATM   26 CL   UNL     1      44.743 -19.175   5.745  1.00  0.00    -0.084 Cl
HETATM   27  C   UNL     1      44.211 -19.522   3.123  1.00  0.00     0.024 A 
HETATM   28  C   UNL     1      43.536 -19.220   1.943  1.00  0.00     0.002 A 
HETATM   29  C   UNL     1      42.559 -18.220   1.931  1.00  0.00     0.009 A 
ENDBRANCH  16  23
ENDBRANCH   1  16
TORSDOF 6
ENDMDL
MODEL 9
REMARK VINA RESULT:      -7.3      1.849      2.328
REMARK  6 active torsions:
REMARK  status: ('A' for Active; 'I' for Inactive)
REMARK    1  A    between atoms: C_8  and  C_9 
REMARK    2  A    between atoms: C_9  and  C_10 
REMARK       I    between atoms: C_10  and  N_11 
REMARK    3  A    between atoms: N_11  and  C_12 
REMARK    4  A    between atoms: C_12  and  C_13 
REMARK    5  A    between atoms: C_13  and  N_14 
REMARK    6  A    between atoms: C_13  and  C_20 
ROOT
HETATM    1  C   UNL     1      43.116 -16.959   2.934  1.00  0.00     0.160 C 
ENDROOT
BRANCH   1   2
HETATM    2  N   UNL     1      42.079 -16.538   1.991  1.00  0.00    -0.358 N 
HETATM    3  C   UNL     1      40.988 -15.758   2.319  1.00  0.00     0.226 C 
HETATM    4  O   UNL     1      40.706 -15.521   3.494  1.00  0.00    -0.273 OA
HETATM    5  H   UNL     1      42.361 -16.497   1.014  1.00  0.00     0.162 HD
BRANCH   3   6
HETATM    6  C   UNL     1      40.179 -15.252   1.118  1.00  0.00     0.111 C 
HETATM    7  C   UNL     1      38.841 -14.657   1.552  1.00  0.00     0.025 C 
BRANCH   6   8
HETATM    8  C   UNL     1      40.998 -14.285   0.307  1.00  0.00     0.004 A 
HETATM    9  C   UNL     1      41.616 -13.109   0.710  1.00  0.00     0.033 A 
HETATM   10  C   UNL     1      41.679 -12.400   2.011  1.00  0.00     0.070 C 
HETATM   11  N   UNL     1      42.230 -12.606  -0.405  1.00  0.00    -0.282 N 
HETATM   12  H   UNL     1      42.761 -11.746  -0.500  1.00  0.00     0.189 HD
HETATM   13  N   UNL     1      42.100 -13.387  -1.481  1.00  0.00    -0.179 NA
HETATM   14  C   UNL     1      41.312 -14.386  -1.079  1.00  0.00     0.060 A 
HETATM   15  C   UNL     1      40.896 -15.430  -2.052  1.00  0.00     0.073 C 
ENDBRANCH   6   8
ENDBRANCH   3   6
ENDBRANCH   1   2
BRANCH   1  16
HETATM   16  C   UNL     1      42.766 -18.148   3.896  1.00  0.00     0.238 C 
BRANCH  16  17
HETATM   17  N   UNL     1      43.043 -17.772   5.348  1.00  0.00    -0.061 N 
HETATM   18  H   UNL     1      43.353 -18.673   5.771  1.00  0.00     0.280 HD
HETATM   19  C   UNL     1      41.897 -17.309   6.213  1.00  0.00     0.236 C 
HETATM   20  C   UNL     1      42.305 -15.922   6.665  1.00  0.00     0.029 C 
HETATM   21  C   UNL     1      43.807 -16.043   6.812  1.00  0.00     0.029 C 
HETATM   22  C   UNL     1      44.205 -16.834   5.580  1.00  0.00     0.236 C 
ENDBRANCH  16  17
BRANCH  16  23
HETATM   23  C   UNL     1      43.409 -19.466   3.474  1.00  0.00    -0.024 A 
HETATM   24  C   UNL     1      44.127 -20.276   4.372  1.00  0.00     0.033 A 
HETATM   25  C   UNL     1      44.671 -21.494   3.957  1.00  0.00     0.034 A 
HETATM   26 CL   UNL     1      45.526 -22.466   5.088  1.00  0.00    -0.084 Cl
HETATM   27  C   UNL     1      44.523 -21.925   2.643  1.00  0.00     0.024 A 
HETATM   28  C   UNL     1      43.832 -21.129   1.734  1.00  0.00     0.002 A 
HETATM   29  C   UNL     1      43.285 -19.909   2.145  1.00  0.00     0.009 A 
ENDBRANCH  16  23
ENDBRANCH   1  16
TORSDOF 6
ENDMDL
MODEL 10
REMARK VINA RESULT:      -7.3      1.741      2.554
REMARK  6 active torsions:
REMARK  status: ('A' for Active; 'I' for Inactive)
REMARK    1  A    between atoms: C_8  and  C_9 
REMARK    2  A    between atoms: C_9  and  C_10 
REMARK       I    between atoms: C_10  and  N_11 
REMARK    3  A    between atoms: N_11  and  C_12 
REMARK    4  A    between atoms: C_12  and  C_13 
REMARK    5  A    between atoms: C_13  and  N_14 
REMARK    6  A    between atoms: C_13  and  C_20 
ROOT
HETATM    1  C   UNL     1      42.473 -15.799   2.270  1.00  0.00     0.160 C 
ENDROOT
BRANCH   1   2
HETATM    2  N   UNL     1      41.450 -14.799   1.961  1.00  0.00    -0.358 N 
HETATM    3  C   UNL     1      41.693 -13.450   1.798  1.00  0.00     0.226 C 
HETATM    4  O   UNL     1      42.781 -12.959   2.100  1.00  0.00    -0.273 OA
HETATM    5  H   UNL     1      40.619 -15.148   1.486  1.00  0.00     0.162 HD
BRANCH   3   6
HETATM    6  C   UNL     1      40.507 -12.648   1.243  1.00  0.00     0.111 C 
HETATM    7  C   UNL     1      40.895 -11.201   0.951  1.00  0.00     0.025 C 
BRANCH   6   8
HETATM    8  C   UNL     1      39.929 -13.339   0.038  1.00  0.00     0.004 A 
HETATM    9  C   UNL     1      38.666 -13.888  -0.134  1.00  0.00     0.033 A 
HETATM   10  C   UNL     1      37.490 -14.007   0.762  1.00  0.00     0.070 C 
HETATM   11  N   UNL     1      38.646 -14.393  -1.406  1.00  0.00    -0.282 N 
HETATM   12  H   UNL     1      37.895 -14.889  -1.877  1.00  0.00     0.189 HD
HETATM   13  N   UNL     1      39.774 -14.169  -2.085  1.00  0.00    -0.179 NA
HETATM   14  C   UNL     1      40.583 -13.575  -1.206  1.00  0.00     0.060 A 
HETATM   15  C   UNL     1      41.974 -13.233  -1.603  1.00  0.00     0.073 C 
ENDBRANCH   6   8
ENDBRANCH   3   6
ENDBRANCH   1   2
BRANCH   1  16
HETATM   16  C   UNL     1      42.190 -16.759   3.477  1.00  0.00     0.238 C 
BRANCH  16  17
HETATM   17  N   UNL     1      42.321 -16.018   4.804  1.00  0.00    -0.061 N 
HETATM   18  H   UNL     1      42.616 -16.767   5.466  1.00  0.00     0.280 HD
HETATM   19  C   UNL     1      41.087 -15.411   5.426  1.00  0.00     0.236 C 
HETATM   20  C   UNL     1      41.410 -13.937   5.542  1.00  0.00     0.029 C 
HETATM   21  C   UNL     1      42.896 -13.940   5.838  1.00  0.00     0.029 C 
HETATM   22  C   UNL     1      43.428 -14.993   4.885  1.00  0.00     0.236 C 
ENDBRANCH  16  17
BRANCH  16  23
HETATM   23  C   UNL     1      43.002 -18.049   3.418  1.00  0.00    -0.024 A 
HETATM   24  C   UNL     1      43.347 -18.777   4.571  1.00  0.00     0.033 A 
HETATM   25  C   UNL     1      44.062 -19.974   4.472  1.00  0.00     0.034 A 
HETATM   26 CL   UNL     1      44.447 -20.846   5.902  1.00  0.00    -0.084 Cl
HETATM   27  C   UNL     1      44.457 -20.463   3.232  1.00  0.00     0.024 A 
HETATM   28  C   UNL     1      44.143 -19.746   2.080  1.00  0.00     0.002 A 
HETATM   29  C   UNL     1      43.427 -18.549   2.173  1.00  0.00     0.009 A 
ENDBRANCH  16  23
ENDBRANCH   1  16
TORSDOF 6
ENDMDL
