MODEL 1
REMARK VINA RESULT:      -9.9      0.000      0.000
REMARK  1 active torsions:
REMARK  status: ('A' for Active; 'I' for Inactive)
REMARK    1  A    between atoms: C_8  and  C_9 
ROOT
HETATM    1  C   UNL     1      42.395 -17.286   7.191  1.00  0.00     0.073 C 
HETATM    2  C   UNL     1      41.521 -16.505   6.272  1.00  0.00     0.062 A 
HETATM    3  N   UNL     1      40.290 -16.186   6.678  1.00  0.00    -0.178 NA
HETATM    4  N   UNL     1      39.816 -15.426   5.692  1.00  0.00    -0.262 N 
HETATM    5  H   UNL     1      38.887 -15.039   5.800  1.00  0.00     0.191 HD
HETATM    6  C   UNL     1      40.668 -15.277   4.630  1.00  0.00     0.134 A 
HETATM    7  C   UNL     1      41.814 -15.988   4.956  1.00  0.00     0.032 A 
HETATM    8  C   UNL     1      43.147 -16.086   4.280  1.00  0.00     0.119 C 
HETATM    9  S   UNL     1      43.446 -15.192   2.742  1.00  0.00    -0.141 SA
HETATM   10  C   UNL     1      41.881 -15.312   1.832  1.00  0.00     0.136 C 
HETATM   11  C   UNL     1      41.300 -16.695   1.589  1.00  0.00     0.031 C 
HETATM   12  C   UNL     1      40.841 -14.340   2.354  1.00  0.00     0.236 C 
HETATM   13  O   UNL     1      40.389 -13.451   1.623  1.00  0.00    -0.272 OA
HETATM   14  N   UNL     1      40.272 -14.481   3.583  1.00  0.00    -0.311 N 
HETATM   15  H   UNL     1      39.477 -13.863   3.705  1.00  0.00     0.170 HD
ENDROOT
BRANCH   8  16
HETATM   16  C   UNL     1      43.630 -17.533   4.233  1.00  0.00    -0.039 A 
HETATM   17  C   UNL     1      43.230 -18.330   3.137  1.00  0.00     0.021 A 
HETATM   18  C   UNL     1      43.667 -19.656   2.979  1.00  0.00    -0.025 A 
HETATM   19  C   UNL     1      44.506 -20.226   3.958  1.00  0.00    -0.026 A 
HETATM   20  C   UNL     1      43.296 -20.422   1.860  1.00  0.00     0.012 A 
HETATM   21  C   UNL     1      44.884 -19.453   5.063  1.00  0.00     0.013 A 
HETATM   22  C   UNL     1      44.952 -21.549   3.797  1.00  0.00     0.012 A 
HETATM   23  C   UNL     1      44.458 -18.126   5.195  1.00  0.00     0.009 A 
HETATM   24  C   UNL     1      44.579 -22.296   2.678  1.00  0.00     0.001 A 
HETATM   25  C   UNL     1      43.753 -21.733   1.710  1.00  0.00     0.001 A 
ENDBRANCH   8  16
TORSDOF 1
ENDMDL
MODEL 2
REMARK VINA RESULT:      -8.8      3.152      6.310
REMARK  1 active torsions:
REMARK  status: ('A' for Active; 'I' for Inactive)
REMARK    1  A    between atoms: C_8  and  C_9 
ROOT
HETATM    1  C   UNL     1      43.886 -17.692   1.362  1.00  0.00     0.073 C 
HETATM    2  C   UNL     1      43.818 -18.181   2.768  1.00  0.00     0.062 A 
HETATM    3  N   UNL     1      44.107 -19.461   3.014  1.00  0.00    -0.178 NA
HETATM    4  N   UNL     1      44.048 -19.551   4.342  1.00  0.00    -0.262 N 
HETATM    5  H   UNL     1      44.265 -20.446   4.764  1.00  0.00     0.191 HD
HETATM    6  C   UNL     1      43.681 -18.393   4.975  1.00  0.00     0.134 A 
HETATM    7  C   UNL     1      43.500 -17.450   3.972  1.00  0.00     0.032 A 
HETATM    8  C   UNL     1      43.244 -15.975   4.031  1.00  0.00     0.119 C 
HETATM    9  S   UNL     1      43.094 -15.150   5.628  1.00  0.00    -0.141 SA
HETATM   10  C   UNL     1      42.204 -16.336   6.674  1.00  0.00     0.136 C 
HETATM   11  C   UNL     1      40.872 -16.869   6.176  1.00  0.00     0.031 C 
HETATM   12  C   UNL     1      43.109 -17.443   7.179  1.00  0.00     0.236 C 
HETATM   13  O   UNL     1      43.307 -17.590   8.390  1.00  0.00    -0.272 OA
HETATM   14  N   UNL     1      43.629 -18.388   6.347  1.00  0.00    -0.311 N 
HETATM   15  H   UNL     1      44.058 -19.150   6.860  1.00  0.00     0.170 HD
ENDROOT
BRANCH   8  16
HETATM   16  C   UNL     1      42.152 -15.572   3.045  1.00  0.00    -0.039 A 
HETATM   17  C   UNL     1      42.394 -14.464   2.203  1.00  0.00     0.021 A 
HETATM   18  C   UNL     1      41.472 -14.050   1.227  1.00  0.00    -0.025 A 
HETATM   19  C   UNL     1      40.248 -14.739   1.100  1.00  0.00    -0.026 A 
HETATM   20  C   UNL     1      41.747 -12.973   0.367  1.00  0.00     0.012 A 
HETATM   21  C   UNL     1      39.986 -15.821   1.951  1.00  0.00     0.013 A 
HETATM   22  C   UNL     1      39.328 -14.333   0.120  1.00  0.00     0.012 A 
HETATM   23  C   UNL     1      40.925 -16.234   2.904  1.00  0.00     0.009 A 
HETATM   24  C   UNL     1      39.617 -13.264  -0.731  1.00  0.00     0.001 A 
HETATM   25  C   UNL     1      40.826 -12.585  -0.608  1.00  0.00     0.001 A 
ENDBRANCH   8  16
TORSDOF 1
ENDMDL
MODEL 3
REMARK VINA RESULT:      -8.6      2.361      4.078
REMARK  1 active torsions:
REMARK  status: ('A' for Active; 'I' for Inactive)
REMARK    1  A    between atoms: C_8  and  C_9 
ROOT
HETATM    1  C   UNL     1      41.407 -15.047   0.210  1.00  0.00     0.073 C 
HETATM    2  C   UNL     1      41.760 -14.049   1.259  1.00  0.00     0.062 A 
HETATM    3  N   UNL     1      42.232 -12.861   0.877  1.00  0.00    -0.178 NA
HETATM    4  N   UNL     1      42.354 -12.185   2.019  1.00  0.00    -0.262 N 
HETATM    5  H   UNL     1      42.677 -11.226   1.967  1.00  0.00     0.191 HD
HETATM    6  C   UNL     1      42.031 -12.901   3.141  1.00  0.00     0.134 A 
HETATM    7  C   UNL     1      41.642 -14.156   2.694  1.00  0.00     0.032 A 
HETATM    8  C   UNL     1      41.039 -15.323   3.415  1.00  0.00     0.119 C 
HETATM    9  S   UNL     1      40.736 -15.228   5.190  1.00  0.00    -0.141 SA
HETATM   10  C   UNL     1      42.152 -14.302   5.847  1.00  0.00     0.136 C 
HETATM   11  C   UNL     1      43.548 -14.811   5.529  1.00  0.00     0.031 C 
HETATM   12  C   UNL     1      42.020 -12.811   5.606  1.00  0.00     0.236 C 
HETATM   13  O   UNL     1      41.959 -12.023   6.558  1.00  0.00    -0.272 OA
HETATM   14  N   UNL     1      42.096 -12.270   4.359  1.00  0.00    -0.311 N 
HETATM   15  H   UNL     1      42.169 -11.260   4.388  1.00  0.00     0.170 HD
ENDROOT
BRANCH   8  16
HETATM   16  C   UNL     1      41.708 -16.628   2.993  1.00  0.00    -0.039 A 
HETATM   17  C   UNL     1      42.728 -17.149   3.820  1.00  0.00     0.021 A 
HETATM   18  C   UNL     1      43.365 -18.371   3.544  1.00  0.00    -0.025 A 
HETATM   19  C   UNL     1      43.000 -19.091   2.388  1.00  0.00    -0.026 A 
HETATM   20  C   UNL     1      44.346 -18.897   4.401  1.00  0.00     0.012 A 
HETATM   21  C   UNL     1      42.010 -18.568   1.546  1.00  0.00     0.013 A 
HETATM   22  C   UNL     1      43.628 -20.317   2.114  1.00  0.00     0.012 A 
HETATM   23  C   UNL     1      41.370 -17.360   1.846  1.00  0.00     0.009 A 
HETATM   24  C   UNL     1      44.599 -20.830   2.977  1.00  0.00     0.001 A 
HETATM   25  C   UNL     1      44.957 -20.121   4.120  1.00  0.00     0.001 A 
ENDBRANCH   8  16
TORSDOF 1
ENDMDL
MODEL 4
REMARK VINA RESULT:      -8.5      2.002      2.589
REMARK  1 active torsions:
REMARK  status: ('A' for Active; 'I' for Inactive)
REMARK    1  A    between atoms: C_8  and  C_9 
ROOT
HETATM    1  C   UNL     1      44.019 -14.563   5.576  1.00  0.00     0.073 C 
HETATM    2  C   UNL     1      42.989 -14.157   4.579  1.00  0.00     0.062 A 
HETATM    3  N   UNL     1      42.317 -13.021   4.780  1.00  0.00    -0.178 NA
HETATM    4  N   UNL     1      41.562 -12.901   3.689  1.00  0.00    -0.262 N 
HETATM    5  H   UNL     1      40.976 -12.078   3.609  1.00  0.00     0.191 HD
HETATM    6  C   UNL     1      41.672 -13.939   2.803  1.00  0.00     0.134 A 
HETATM    7  C   UNL     1      42.600 -14.814   3.353  1.00  0.00     0.032 A 
HETATM    8  C   UNL     1      43.252 -16.044   2.801  1.00  0.00     0.119 C 
HETATM    9  S   UNL     1      42.829 -16.624   1.147  1.00  0.00    -0.141 SA
HETATM   10  C   UNL     1      41.048 -16.315   0.995  1.00  0.00     0.136 C 
HETATM   11  C   UNL     1      40.129 -16.892   2.059  1.00  0.00     0.031 C 
HETATM   12  C   UNL     1      40.744 -14.857   0.709  1.00  0.00     0.236 C 
HETATM   13  O   UNL     1      40.180 -14.526  -0.340  1.00  0.00    -0.272 OA
HETATM   14  N   UNL     1      40.954 -13.880   1.635  1.00  0.00    -0.311 N 
HETATM   15  H   UNL     1      40.536 -12.999   1.356  1.00  0.00     0.170 HD
ENDROOT
BRANCH   8  16
HETATM   16  C   UNL     1      43.272 -17.162   3.839  1.00  0.00    -0.039 A 
HETATM   17  C   UNL     1      43.982 -18.343   3.529  1.00  0.00     0.021 A 
HETATM   18  C   UNL     1      44.103 -19.406   4.441  1.00  0.00    -0.025 A 
HETATM   19  C   UNL     1      43.470 -19.310   5.696  1.00  0.00    -0.026 A 
HETATM   20  C   UNL     1      44.850 -20.556   4.134  1.00  0.00     0.012 A 
HETATM   21  C   UNL     1      42.738 -18.155   6.003  1.00  0.00     0.013 A 
HETATM   22  C   UNL     1      43.596 -20.366   6.614  1.00  0.00     0.012 A 
HETATM   23  C   UNL     1      42.646 -17.096   5.091  1.00  0.00     0.009 A 
HETATM   24  C   UNL     1      44.345 -21.501   6.296  1.00  0.00     0.001 A 
HETATM   25  C   UNL     1      44.973 -21.595   5.058  1.00  0.00     0.001 A 
ENDBRANCH   8  16
TORSDOF 1
ENDMDL
MODEL 5
REMARK VINA RESULT:      -8.3      3.348      6.416
REMARK  1 active torsions:
REMARK  status: ('A' for Active; 'I' for Inactive)
REMARK    1  A    between atoms: C_8  and  C_9 
ROOT
HETATM    1  C   UNL     1      43.372 -16.491   7.413  1.00  0.00     0.073 C 
HETATM    2  C   UNL     1      43.915 -17.426   6.388  1.00  0.00     0.062 A 
HETATM    3  N   UNL     1      45.031 -18.104   6.669  1.00  0.00    -0.178 NA
HETATM    4  N   UNL     1      45.192 -18.902   5.615  1.00  0.00    -0.262 N 
HETATM    5  H   UNL     1      45.978 -19.541   5.623  1.00  0.00     0.191 HD
HETATM    6  C   UNL     1      44.256 -18.738   4.628  1.00  0.00     0.134 A 
HETATM    7  C   UNL     1      43.388 -17.755   5.085  1.00  0.00     0.032 A 
HETATM    8  C   UNL     1      42.091 -17.244   4.536  1.00  0.00     0.119 C 
HETATM    9  S   UNL     1      41.435 -17.918   2.997  1.00  0.00    -0.141 SA
HETATM   10  C   UNL     1      42.896 -18.185   1.955  1.00  0.00     0.136 C 
HETATM   11  C   UNL     1      43.828 -17.009   1.716  1.00  0.00     0.031 C 
HETATM   12  C   UNL     1      43.651 -19.441   2.342  1.00  0.00     0.236 C 
HETATM   13  O   UNL     1      43.775 -20.373   1.539  1.00  0.00    -0.272 OA
HETATM   14  N   UNL     1      44.328 -19.545   3.520  1.00  0.00    -0.311 N 
HETATM   15  H   UNL     1      44.920 -20.367   3.545  1.00  0.00     0.170 HD
ENDROOT
BRANCH   8  16
HETATM   16  C   UNL     1      42.039 -15.720   4.590  1.00  0.00    -0.039 A 
HETATM   17  C   UNL     1      40.904 -15.115   5.173  1.00  0.00     0.021 A 
HETATM   18  C   UNL     1      40.789 -13.722   5.317  1.00  0.00    -0.025 A 
HETATM   19  C   UNL     1      41.824 -12.893   4.838  1.00  0.00    -0.026 A 
HETATM   20  C   UNL     1      39.672 -13.138   5.939  1.00  0.00     0.012 A 
HETATM   21  C   UNL     1      42.941 -13.482   4.232  1.00  0.00     0.013 A 
HETATM   22  C   UNL     1      41.716 -11.501   4.988  1.00  0.00     0.012 A 
HETATM   23  C   UNL     1      43.050 -14.874   4.116  1.00  0.00     0.009 A 
HETATM   24  C   UNL     1      40.603 -10.935   5.613  1.00  0.00     0.001 A 
HETATM   25  C   UNL     1      39.583 -11.752   6.089  1.00  0.00     0.001 A 
ENDBRANCH   8  16
TORSDOF 1
ENDMDL
MODEL 6
REMARK VINA RESULT:      -8.3      3.219      6.021
REMARK  1 active torsions:
REMARK  status: ('A' for Active; 'I' for Inactive)
REMARK    1  A    between atoms: C_8  and  C_9 
ROOT
HETATM    1  C   UNL     1      42.272 -12.901   4.730  1.00  0.00     0.073 C 
HETATM    2  C   UNL     1      43.091 -13.973   5.360  1.00  0.00     0.062 A 
HETATM    3  N   UNL     1      44.206 -13.629   6.009  1.00  0.00    -0.178 NA
HETATM    4  N   UNL     1      44.642 -14.777   6.524  1.00  0.00    -0.262 N 
HETATM    5  H   UNL     1      45.480 -14.751   7.093  1.00  0.00     0.191 HD
HETATM    6  C   UNL     1      43.886 -15.872   6.197  1.00  0.00     0.134 A 
HETATM    7  C   UNL     1      42.847 -15.396   5.409  1.00  0.00     0.032 A 
HETATM    8  C   UNL     1      41.621 -16.069   4.872  1.00  0.00     0.119 C 
HETATM    9  S   UNL     1      41.331 -17.817   5.208  1.00  0.00    -0.141 SA
HETATM   10  C   UNL     1      42.976 -18.578   5.124  1.00  0.00     0.136 C 
HETATM   11  C   UNL     1      43.799 -18.364   3.865  1.00  0.00     0.031 C 
HETATM   12  C   UNL     1      43.785 -18.329   6.383  1.00  0.00     0.236 C 
HETATM   13  O   UNL     1      44.154 -19.275   7.090  1.00  0.00    -0.272 OA
HETATM   14  N   UNL     1      44.246 -17.092   6.714  1.00  0.00    -0.311 N 
HETATM   15  H   UNL     1      44.912 -17.127   7.477  1.00  0.00     0.170 HD
ENDROOT
BRANCH   8  16
HETATM   16  C   UNL     1      41.391 -15.696   3.410  1.00  0.00    -0.039 A 
HETATM   17  C   UNL     1      40.098 -15.276   3.028  1.00  0.00     0.021 A 
HETATM   18  C   UNL     1      39.802 -14.861   1.718  1.00  0.00    -0.025 A 
HETATM   19  C   UNL     1      40.818 -14.894   0.741  1.00  0.00    -0.026 A 
HETATM   20  C   UNL     1      38.522 -14.404   1.364  1.00  0.00     0.012 A 
HETATM   21  C   UNL     1      42.096 -15.337   1.103  1.00  0.00     0.013 A 
HETATM   22  C   UNL     1      40.528 -14.471  -0.567  1.00  0.00     0.012 A 
HETATM   23  C   UNL     1      42.380 -15.726   2.418  1.00  0.00     0.009 A 
HETATM   24  C   UNL     1      39.252 -14.015  -0.903  1.00  0.00     0.001 A 
HETATM   25  C   UNL     1      38.250 -13.980   0.062  1.00  0.00     0.001 A 
ENDBRANCH   8  16
TORSDOF 1
ENDMDL
MODEL 7
REMARK VINA RESULT:      -8.1      3.003      6.334
REMARK  1 active torsions:
REMARK  status: ('A' for Active; 'I' for Inactive)
REMARK    1  A    between atoms: C_8  and  C_9 
ROOT
HETATM    1  C   UNL     1      40.934 -15.166   5.568  1.00  0.00     0.073 C 
HETATM    2  C   UNL     1      42.073 -16.104   5.363  1.00  0.00     0.062 A 
HETATM    3  N   UNL     1      43.007 -16.193   6.312  1.00  0.00    -0.178 NA
HETATM    4  N   UNL     1      43.811 -17.161   5.878  1.00  0.00    -0.262 N 
HETATM    5  H   UNL     1      44.593 -17.425   6.466  1.00  0.00     0.191 HD
HETATM    6  C   UNL     1      43.472 -17.677   4.655  1.00  0.00     0.134 A 
HETATM    7  C   UNL     1      42.328 -16.998   4.258  1.00  0.00     0.032 A 
HETATM    8  C   UNL     1      41.403 -17.207   3.099  1.00  0.00     0.119 C 
HETATM    9  S   UNL     1      41.728 -18.524   1.911  1.00  0.00    -0.141 SA
HETATM   10  C   UNL     1      43.533 -18.543   1.731  1.00  0.00     0.136 C 
HETATM   11  C   UNL     1      44.227 -17.245   1.354  1.00  0.00     0.031 C 
HETATM   12  C   UNL     1      44.215 -19.237   2.894  1.00  0.00     0.236 C 
HETATM   13  O   UNL     1      44.888 -20.258   2.709  1.00  0.00    -0.272 OA
HETATM   14  N   UNL     1      44.228 -18.705   4.147  1.00  0.00    -0.311 N 
HETATM   15  H   UNL     1      44.871 -19.194   4.760  1.00  0.00     0.170 HD
ENDROOT
BRANCH   8  16
HETATM   16  C   UNL     1      41.052 -15.878   2.435  1.00  0.00    -0.039 A 
HETATM   17  C   UNL     1      39.720 -15.680   2.010  1.00  0.00     0.021 A 
HETATM   18  C   UNL     1      39.288 -14.470   1.438  1.00  0.00    -0.025 A 
HETATM   19  C   UNL     1      40.219 -13.428   1.251  1.00  0.00    -0.026 A 
HETATM   20  C   UNL     1      37.949 -14.273   1.061  1.00  0.00     0.012 A 
HETATM   21  C   UNL     1      41.549 -13.625   1.643  1.00  0.00     0.013 A 
HETATM   22  C   UNL     1      39.789 -12.215   0.689  1.00  0.00     0.012 A 
HETATM   23  C   UNL     1      41.958 -14.828   2.231  1.00  0.00     0.009 A 
HETATM   24  C   UNL     1      38.454 -12.031   0.323  1.00  0.00     0.001 A 
HETATM   25  C   UNL     1      37.535 -13.059   0.510  1.00  0.00     0.001 A 
ENDBRANCH   8  16
TORSDOF 1
ENDMDL
MODEL 8
REMARK VINA RESULT:      -8.1      3.217      4.028
REMARK  1 active torsions:
REMARK  status: ('A' for Active; 'I' for Inactive)
REMARK    1  A    between atoms: C_8  and  C_9 
ROOT
HETATM    1  C   UNL     1      45.123 -14.028   6.617  1.00  0.00     0.073 C 
HETATM    2  C   UNL     1      43.970 -13.155   6.975  1.00  0.00     0.062 A 
HETATM    3  N   UNL     1      43.979 -12.537   8.158  1.00  0.00    -0.178 NA
HETATM    4  N   UNL     1      42.884 -11.780   8.131  1.00  0.00    -0.262 N 
HETATM    5  H   UNL     1      42.700 -11.188   8.932  1.00  0.00     0.191 HD
HETATM    6  C   UNL     1      42.128 -11.915   6.997  1.00  0.00     0.134 A 
HETATM    7  C   UNL     1      42.797 -12.831   6.197  1.00  0.00     0.032 A 
HETATM    8  C   UNL     1      42.559 -13.279   4.788  1.00  0.00     0.119 C 
HETATM    9  S   UNL     1      41.170 -12.610   3.852  1.00  0.00    -0.141 SA
HETATM   10  C   UNL     1      39.830 -12.460   5.067  1.00  0.00     0.136 C 
HETATM   11  C   UNL     1      39.445 -13.695   5.863  1.00  0.00     0.031 C 
HETATM   12  C   UNL     1      39.997 -11.240   5.952  1.00  0.00     0.236 C 
HETATM   13  O   UNL     1      39.149 -10.339   5.948  1.00  0.00    -0.272 OA
HETATM   14  N   UNL     1      40.998 -11.145   6.870  1.00  0.00    -0.311 N 
HETATM   15  H   UNL     1      40.864 -10.359   7.497  1.00  0.00     0.170 HD
ENDROOT
BRANCH   8  16
HETATM   16  C   UNL     1      42.683 -14.796   4.670  1.00  0.00    -0.039 A 
HETATM   17  C   UNL     1      43.207 -15.327   3.471  1.00  0.00     0.021 A 
HETATM   18  C   UNL     1      43.410 -16.706   3.289  1.00  0.00    -0.025 A 
HETATM   19  C   UNL     1      43.051 -17.596   4.321  1.00  0.00    -0.026 A 
HETATM   20  C   UNL     1      43.974 -17.215   2.107  1.00  0.00     0.012 A 
HETATM   21  C   UNL     1      42.503 -17.081   5.503  1.00  0.00     0.013 A 
HETATM   22  C   UNL     1      43.261 -18.974   4.146  1.00  0.00     0.012 A 
HETATM   23  C   UNL     1      42.327 -15.703   5.677  1.00  0.00     0.009 A 
HETATM   24  C   UNL     1      43.826 -19.465   2.968  1.00  0.00     0.001 A 
HETATM   25  C   UNL     1      44.184 -18.587   1.950  1.00  0.00     0.001 A 
ENDBRANCH   8  16
TORSDOF 1
ENDMDL
MODEL 9
REMARK VINA RESULT:      -8.0      3.243      5.150
REMARK  1 active torsions:
REMARK  status: ('A' for Active; 'I' for Inactive)
REMARK    1  A    between atoms: C_8  and  C_9 
ROOT
HETATM    1  C   UNL     1      39.099 -14.643   2.662  1.00  0.00     0.073 C 
HETATM    2  C   UNL     1      38.799 -14.244   1.259  1.00  0.00     0.062 A 
HETATM    3  N   UNL     1      37.525 -14.063   0.903  1.00  0.00    -0.178 NA
HETATM    4  N   UNL     1      37.604 -13.630  -0.354  1.00  0.00    -0.262 N 
HETATM    5  H   UNL     1      36.739 -13.396  -0.827  1.00  0.00     0.191 HD
HETATM    6  C   UNL     1      38.877 -13.570  -0.856  1.00  0.00     0.134 A 
HETATM    7  C   UNL     1      39.713 -13.982   0.172  1.00  0.00     0.032 A 
HETATM    8  C   UNL     1      41.206 -13.991   0.293  1.00  0.00     0.119 C 
HETATM    9  S   UNL     1      42.226 -13.415  -1.079  1.00  0.00    -0.141 SA
HETATM   10  C   UNL     1      41.366 -14.001  -2.565  1.00  0.00     0.136 C 
HETATM   11  C   UNL     1      41.047 -15.483  -2.669  1.00  0.00     0.031 C 
HETATM   12  C   UNL     1      40.170 -13.134  -2.911  1.00  0.00     0.236 C 
HETATM   13  O   UNL     1      40.130 -12.518  -3.983  1.00  0.00    -0.272 OA
HETATM   14  N   UNL     1      39.052 -13.101  -2.135  1.00  0.00    -0.311 N 
HETATM   15  H   UNL     1      38.287 -12.620  -2.594  1.00  0.00     0.170 HD
ENDROOT
BRANCH   8  16
HETATM   16  C   UNL     1      41.697 -15.307   0.890  1.00  0.00    -0.039 A 
HETATM   17  C   UNL     1      42.363 -15.264   2.135  1.00  0.00     0.021 A 
HETATM   18  C   UNL     1      42.803 -16.427   2.789  1.00  0.00    -0.025 A 
HETATM   19  C   UNL     1      42.604 -17.680   2.173  1.00  0.00    -0.026 A 
HETATM   20  C   UNL     1      43.425 -16.371   4.048  1.00  0.00     0.012 A 
HETATM   21  C   UNL     1      41.970 -17.731   0.925  1.00  0.00     0.013 A 
HETATM   22  C   UNL     1      43.035 -18.845   2.829  1.00  0.00     0.012 A 
HETATM   23  C   UNL     1      41.519 -16.564   0.296  1.00  0.00     0.009 A 
HETATM   24  C   UNL     1      43.647 -18.774   4.081  1.00  0.00     0.001 A 
HETATM   25  C   UNL     1      43.841 -17.538   4.691  1.00  0.00     0.001 A 
ENDBRANCH   8  16
TORSDOF 1
ENDMDL
MODEL 10
REMARK VINA RESULT:      -8.0      1.507      2.381
REMARK  1 active torsions:
REMARK  status: ('A' for Active; 'I' for Inactive)
REMARK    1  A    between atoms: C_8  and  C_9 
ROOT
HETATM    1  C   UNL     1      45.219 -17.958   6.311  1.00  0.00     0.073 C 
HETATM    2  C   UNL     1      43.982 -17.144   6.471  1.00  0.00     0.062 A 
HETATM    3  N   UNL     1      43.479 -16.979   7.696  1.00  0.00    -0.178 NA
HETATM    4  N   UNL     1      42.457 -16.145   7.511  1.00  0.00    -0.262 N 
HETATM    5  H   UNL     1      41.935 -15.851   8.328  1.00  0.00     0.191 HD
HETATM    6  C   UNL     1      42.236 -15.797   6.205  1.00  0.00     0.134 A 
HETATM    7  C   UNL     1      43.215 -16.447   5.465  1.00  0.00     0.032 A 
HETATM    8  C   UNL     1      43.592 -16.351   4.019  1.00  0.00     0.119 C 
HETATM    9  S   UNL     1      42.677 -15.254   2.919  1.00  0.00    -0.141 SA
HETATM   10  C   UNL     1      40.953 -15.389   3.468  1.00  0.00     0.136 C 
HETATM   11  C   UNL     1      40.333 -16.774   3.544  1.00  0.00     0.031 C 
HETATM   12  C   UNL     1      40.688 -14.577   4.721  1.00  0.00     0.236 C 
HETATM   13  O   UNL     1      39.876 -13.644   4.706  1.00  0.00    -0.272 OA
HETATM   14  N   UNL     1      41.222 -14.913   5.928  1.00  0.00    -0.311 N 
HETATM   15  H   UNL     1      40.809 -14.383   6.686  1.00  0.00     0.170 HD
ENDROOT
BRANCH   8  16
HETATM   16  C   UNL     1      43.823 -17.737   3.423  1.00  0.00    -0.039 A 
HETATM   17  C   UNL     1      44.175 -18.786   4.302  1.00  0.00     0.021 A 
HETATM   18  C   UNL     1      44.355 -20.107   3.855  1.00  0.00    -0.025 A 
HETATM   19  C   UNL     1      44.213 -20.395   2.483  1.00  0.00    -0.026 A 
HETATM   20  C   UNL     1      44.661 -21.148   4.748  1.00  0.00     0.012 A 
HETATM   21  C   UNL     1      43.893 -19.355   1.600  1.00  0.00     0.013 A 
HETATM   22  C   UNL     1      44.383 -21.715   2.035  1.00  0.00     0.012 A 
HETATM   23  C   UNL     1      43.695 -18.049   2.063  1.00  0.00     0.009 A 
HETATM   24  C   UNL     1      44.683 -22.740   2.934  1.00  0.00     0.001 A 
HETATM   25  C   UNL     1      44.820 -22.457   4.290  1.00  0.00     0.001 A 
ENDBRANCH   8  16
TORSDOF 1
ENDMDL
