MODEL 1
REMARK VINA RESULT:      -7.9      0.000      0.000
REMARK  10 active torsions:
REMARK  status: ('A' for Active; 'I' for Inactive)
REMARK    1  A    between atoms: C_2  and  O_3 
REMARK    2  A    between atoms: O_3  and  C_4 
REMARK    3  A    between atoms: C_4  and  C_5 
REMARK    4  A    between atoms: C_6  and  N_7 
REMARK       I    between atoms: N_7  and  C_8 
REMARK    5  A    between atoms: C_14  and  O_15 
REMARK    6  A    between atoms: O_15  and  C_16 
REMARK    7  A    between atoms: C_16  and  C_17 
REMARK    8  A    between atoms: C_17  and  O_18 
REMARK    9  A    between atoms: C_17  and  C_19 
REMARK   10  A    between atoms: C_19  and  N_20 
ROOT
HETATM    1  C   UNL     1      43.274 -15.918   6.193  1.00  0.00     0.085 A 
HETATM    2  C   UNL     1      42.259 -15.182   5.601  1.00  0.00     0.094 A 
HETATM    3  S   UNL     1      41.659 -15.920   4.200  1.00  0.00    -0.068 SA
HETATM    4  C   UNL     1      42.748 -17.253   4.292  1.00  0.00     0.053 A 
HETATM    5  C   UNL     1      43.537 -17.145   5.443  1.00  0.00     0.003 A 
HETATM    6  C   UNL     1      42.865 -18.326   3.357  1.00  0.00     0.104 A 
HETATM    7  C   UNL     1      43.851 -19.298   3.625  1.00  0.00     0.045 A 
HETATM    8 BR   UNL     1      44.349 -20.713   2.451  1.00  0.00    -0.048 Br
HETATM    9  C   UNL     1      44.613 -19.239   4.790  1.00  0.00     0.023 A 
HETATM   10  C   UNL     1      44.463 -18.186   5.690  1.00  0.00     0.015 A 
ENDROOT
BRANCH   6  11
HETATM   11  O   UNL     1      42.066 -18.248   2.241  1.00  0.00    -0.346 OA
BRANCH  11  12
HETATM   12  C   UNL     1      42.562 -17.522   1.119  1.00  0.00     0.209 C 
BRANCH  12  13
HETATM   13  C   UNL     1      41.401 -16.778   0.443  1.00  0.00     0.168 C 
BRANCH  13  14
HETATM   14  O   UNL     1      40.170 -16.986   1.164  1.00  0.00    -0.392 OA
HETATM   15  H   UNL     1      40.330 -16.641   2.071  1.00  0.00     0.210 HD
ENDBRANCH  13  14
BRANCH  13  16
HETATM   16  C   UNL     1      41.676 -15.263   0.449  1.00  0.00     0.268 C 
BRANCH  16  17
HETATM   17  N   UNL     1      41.900 -14.783  -0.982  1.00  0.00    -0.069 N 
HETATM   18  H   UNL     1      42.838 -15.170  -1.209  1.00  0.00     0.280 HD
HETATM   19  C   UNL     1      40.906 -15.386  -1.942  1.00  0.00     0.235 C 
HETATM   20  C   UNL     1      41.238 -14.978  -3.369  1.00  0.00     0.028 C 
HETATM   21  C   UNL     1      41.324 -13.464  -3.513  1.00  0.00     0.003 C 
HETATM   22  C   UNL     1      42.322 -12.883  -2.519  1.00  0.00     0.028 C 
HETATM   23  C   UNL     1      41.990 -13.284  -1.088  1.00  0.00     0.235 C 
ENDBRANCH  16  17
ENDBRANCH  13  16
ENDBRANCH  12  13
ENDBRANCH  11  12
ENDBRANCH   6  11
BRANCH   2  24
HETATM   24  N   UNL     1      41.753 -13.962   6.036  1.00  0.00    -0.321 N 
HETATM   25  C   UNL     1      41.879 -12.727   5.427  1.00  0.00     0.218 C 
HETATM   26  C   UNL     1      41.239 -11.622   6.235  1.00  0.00     0.117 C 
HETATM   27  O   UNL     1      42.442 -12.468   4.370  1.00  0.00    -0.274 OA
HETATM   28  H   UNL     1      41.227 -14.004   6.905  1.00  0.00     0.169 HD
ENDBRANCH   2  24
BRANCH   1  29
HETATM   29  C   UNL     1      44.015 -15.519   7.400  1.00  0.00     0.297 C 
HETATM   30  O   UNL     1      43.908 -16.094   8.475  1.00  0.00    -0.259 OA
BRANCH  29  31
HETATM   31  O   UNL     1      44.851 -14.451   7.202  1.00  0.00    -0.318 OA
BRANCH  31  32
HETATM   32  C   UNL     1      44.623 -13.316   8.056  1.00  0.00     0.174 C 
HETATM   33  C   UNL     1      45.921 -12.580   8.332  1.00  0.00     0.034 C 
ENDBRANCH  31  32
ENDBRANCH  29  31
ENDBRANCH   1  29
TORSDOF 10
ENDMDL
MODEL 2
REMARK VINA RESULT:      -7.6      3.063      5.414
REMARK  10 active torsions:
REMARK  status: ('A' for Active; 'I' for Inactive)
REMARK    1  A    between atoms: C_2  and  O_3 
REMARK    2  A    between atoms: O_3  and  C_4 
REMARK    3  A    between atoms: C_4  and  C_5 
REMARK    4  A    between atoms: C_6  and  N_7 
REMARK       I    between atoms: N_7  and  C_8 
REMARK    5  A    between atoms: C_14  and  O_15 
REMARK    6  A    between atoms: O_15  and  C_16 
REMARK    7  A    between atoms: C_16  and  C_17 
REMARK    8  A    between atoms: C_17  and  O_18 
REMARK    9  A    between atoms: C_17  and  C_19 
REMARK   10  A    between atoms: C_19  and  N_20 
ROOT
HETATM    1  C   UNL     1      43.782 -18.145   4.568  1.00  0.00     0.085 A 
HETATM    2  C   UNL     1      44.033 -18.480   3.246  1.00  0.00     0.094 A 
HETATM    3  S   UNL     1      43.772 -17.182   2.191  1.00  0.00    -0.068 SA
HETATM    4  C   UNL     1      43.280 -16.107   3.445  1.00  0.00     0.053 A 
HETATM    5  C   UNL     1      43.373 -16.747   4.686  1.00  0.00     0.003 A 
HETATM    6  C   UNL     1      42.834 -14.758   3.288  1.00  0.00     0.104 A 
HETATM    7  C   UNL     1      42.455 -14.074   4.461  1.00  0.00     0.045 A 
HETATM    8 BR   UNL     1      41.644 -12.351   4.516  1.00  0.00    -0.048 Br
HETATM    9  C   UNL     1      42.588 -14.674   5.712  1.00  0.00     0.023 A 
HETATM   10  C   UNL     1      43.040 -15.985   5.831  1.00  0.00     0.015 A 
ENDROOT
BRANCH   6  11
HETATM   11  O   UNL     1      42.733 -14.300   1.996  1.00  0.00    -0.346 OA
BRANCH  11  12
HETATM   12  C   UNL     1      41.453 -14.361   1.369  1.00  0.00     0.209 C 
BRANCH  12  13
HETATM   13  C   UNL     1      41.543 -15.250   0.121  1.00  0.00     0.168 C 
BRANCH  13  14
HETATM   14  O   UNL     1      40.536 -16.281   0.153  1.00  0.00    -0.392 OA
HETATM   15  H   UNL     1      41.025 -17.131   0.232  1.00  0.00     0.210 HD
ENDBRANCH  13  14
BRANCH  13  16
HETATM   16  C   UNL     1      41.285 -14.408  -1.142  1.00  0.00     0.268 C 
BRANCH  16  17
HETATM   17  N   UNL     1      40.094 -14.986  -1.902  1.00  0.00    -0.069 N 
HETATM   18  H   UNL     1      39.747 -15.724  -1.257  1.00  0.00     0.280 HD
HETATM   19  C   UNL     1      38.992 -13.972  -2.081  1.00  0.00     0.235 C 
HETATM   20  C   UNL     1      37.782 -14.622  -2.734  1.00  0.00     0.028 C 
HETATM   21  C   UNL     1      38.150 -15.303  -4.046  1.00  0.00     0.003 C 
HETATM   22  C   UNL     1      39.276 -16.306  -3.835  1.00  0.00     0.028 C 
HETATM   23  C   UNL     1      40.493 -15.660  -3.187  1.00  0.00     0.235 C 
ENDBRANCH  16  17
ENDBRANCH  13  16
ENDBRANCH  12  13
ENDBRANCH  11  12
ENDBRANCH   6  11
BRANCH   2  24
HETATM   24  N   UNL     1      44.433 -19.721   2.763  1.00  0.00    -0.321 N 
HETATM   25  C   UNL     1      43.683 -20.631   2.039  1.00  0.00     0.218 C 
HETATM   26  C   UNL     1      44.450 -21.898   1.743  1.00  0.00     0.117 C 
HETATM   27  O   UNL     1      42.524 -20.511   1.660  1.00  0.00    -0.274 OA
HETATM   28  H   UNL     1      45.396 -19.971   2.973  1.00  0.00     0.169 HD
ENDBRANCH   2  24
BRANCH   1  29
HETATM   29  C   UNL     1      43.887 -19.069   5.708  1.00  0.00     0.297 C 
HETATM   30  O   UNL     1      43.216 -18.958   6.727  1.00  0.00    -0.259 OA
BRANCH  29  31
HETATM   31  O   UNL     1      44.795 -20.078   5.515  1.00  0.00    -0.318 OA
BRANCH  31  32
HETATM   32  C   UNL     1      44.365 -21.387   5.928  1.00  0.00     0.174 C 
HETATM   33  C   UNL     1      45.148 -22.465   5.201  1.00  0.00     0.034 C 
ENDBRANCH  31  32
ENDBRANCH  29  31
ENDBRANCH   1  29
TORSDOF 10
ENDMDL
MODEL 3
REMARK VINA RESULT:      -7.3      3.519      5.654
REMARK  10 active torsions:
REMARK  status: ('A' for Active; 'I' for Inactive)
REMARK    1  A    between atoms: C_2  and  O_3 
REMARK    2  A    between atoms: O_3  and  C_4 
REMARK    3  A    between atoms: C_4  and  C_5 
REMARK    4  A    between atoms: C_6  and  N_7 
REMARK       I    between atoms: N_7  and  C_8 
REMARK    5  A    between atoms: C_14  and  O_15 
REMARK    6  A    between atoms: O_15  and  C_16 
REMARK    7  A    between atoms: C_16  and  C_17 
REMARK    8  A    between atoms: C_17  and  O_18 
REMARK    9  A    between atoms: C_17  and  C_19 
REMARK   10  A    between atoms: C_19  and  N_20 
ROOT
HETATM    1  C   UNL     1      42.077 -16.986   3.507  1.00  0.00     0.085 A 
HETATM    2  C   UNL     1      42.957 -17.497   2.565  1.00  0.00     0.094 A 
HETATM    3  S   UNL     1      42.796 -16.746   1.057  1.00  0.00    -0.068 SA
HETATM    4  C   UNL     1      41.516 -15.713   1.574  1.00  0.00     0.053 A 
HETATM    5  C   UNL     1      41.256 -15.920   2.933  1.00  0.00     0.003 A 
HETATM    6  C   UNL     1      40.798 -14.776   0.770  1.00  0.00     0.104 A 
HETATM    7  C   UNL     1      39.766 -14.054   1.406  1.00  0.00     0.045 A 
HETATM    8 BR   UNL     1      38.533 -12.896   0.529  1.00  0.00    -0.048 Br
HETATM    9  C   UNL     1      39.524 -14.206   2.769  1.00  0.00     0.023 A 
HETATM   10  C   UNL     1      40.253 -15.119   3.527  1.00  0.00     0.015 A 
ENDROOT
BRANCH   6  11
HETATM   11  O   UNL     1      41.127 -14.743  -0.564  1.00  0.00    -0.346 OA
BRANCH  11  12
HETATM   12  C   UNL     1      41.908 -13.643  -1.028  1.00  0.00     0.209 C 
BRANCH  12  13
HETATM   13  C   UNL     1      41.822 -13.570  -2.559  1.00  0.00     0.168 C 
BRANCH  13  14
HETATM   14  O   UNL     1      43.136 -13.619  -3.149  1.00  0.00    -0.392 OA
HETATM   15  H   UNL     1      43.301 -14.566  -3.356  1.00  0.00     0.210 HD
ENDBRANCH  13  14
BRANCH  13  16
HETATM   16  C   UNL     1      41.041 -14.784  -3.097  1.00  0.00     0.268 C 
BRANCH  16  17
HETATM   17  N   UNL     1      39.546 -14.483  -3.055  1.00  0.00    -0.069 N 
HETATM   18  H   UNL     1      39.315 -14.609  -2.049  1.00  0.00     0.280 HD
HETATM   19  C   UNL     1      39.246 -13.052  -3.423  1.00  0.00     0.235 C 
HETATM   20  C   UNL     1      37.763 -12.764  -3.252  1.00  0.00     0.028 C 
HETATM   21  C   UNL     1      36.906 -13.747  -4.040  1.00  0.00     0.003 C 
HETATM   22  C   UNL     1      37.245 -15.183  -3.659  1.00  0.00     0.028 C 
HETATM   23  C   UNL     1      38.728 -15.478  -3.834  1.00  0.00     0.235 C 
ENDBRANCH  16  17
ENDBRANCH  13  16
ENDBRANCH  12  13
ENDBRANCH  11  12
ENDBRANCH   6  11
BRANCH   2  24
HETATM   24  N   UNL     1      43.878 -18.520   2.757  1.00  0.00    -0.321 N 
HETATM   25  C   UNL     1      43.757 -19.849   2.389  1.00  0.00     0.218 C 
HETATM   26  C   UNL     1      44.949 -20.673   2.821  1.00  0.00     0.117 C 
HETATM   27  O   UNL     1      42.823 -20.380   1.801  1.00  0.00    -0.274 OA
HETATM   28  H   UNL     1      44.739 -18.240   3.219  1.00  0.00     0.169 HD
ENDBRANCH   2  24
BRANCH   1  29
HETATM   29  C   UNL     1      41.955 -17.459   4.895  1.00  0.00     0.297 C 
HETATM   30  O   UNL     1      40.899 -17.834   5.387  1.00  0.00    -0.259 OA
BRANCH  29  31
HETATM   31  O   UNL     1      43.142 -17.456   5.581  1.00  0.00    -0.318 OA
BRANCH  31  32
HETATM   32  C   UNL     1      43.225 -18.378   6.682  1.00  0.00     0.174 C 
HETATM   33  C   UNL     1      43.919 -19.660   6.260  1.00  0.00     0.034 C 
ENDBRANCH  31  32
ENDBRANCH  29  31
ENDBRANCH   1  29
TORSDOF 10
ENDMDL
MODEL 4
REMARK VINA RESULT:      -7.2      2.990      5.176
REMARK  10 active torsions:
REMARK  status: ('A' for Active; 'I' for Inactive)
REMARK    1  A    between atoms: C_2  and  O_3 
REMARK    2  A    between atoms: O_3  and  C_4 
REMARK    3  A    between atoms: C_4  and  C_5 
REMARK    4  A    between atoms: C_6  and  N_7 
REMARK       I    between atoms: N_7  and  C_8 
REMARK    5  A    between atoms: C_14  and  O_15 
REMARK    6  A    between atoms: O_15  and  C_16 
REMARK    7  A    between atoms: C_16  and  C_17 
REMARK    8  A    between atoms: C_17  and  O_18 
REMARK    9  A    between atoms: C_17  and  C_19 
REMARK   10  A    between atoms: C_19  and  N_20 
ROOT
HETATM    1  C   UNL     1      43.943 -17.882   4.656  1.00  0.00     0.085 A 
HETATM    2  C   UNL     1      44.050 -18.303   3.339  1.00  0.00     0.094 A 
HETATM    3  S   UNL     1      43.607 -17.097   2.238  1.00  0.00    -0.068 SA
HETATM    4  C   UNL     1      43.218 -15.951   3.465  1.00  0.00     0.053 A 
HETATM    5  C   UNL     1      43.486 -16.494   4.727  1.00  0.00     0.003 A 
HETATM    6  C   UNL     1      42.695 -14.636   3.271  1.00  0.00     0.104 A 
HETATM    7  C   UNL     1      42.426 -13.882   4.432  1.00  0.00     0.045 A 
HETATM    8 BR   UNL     1      41.549 -12.191   4.467  1.00  0.00    -0.048 Br
HETATM    9  C   UNL     1      42.733 -14.382   5.696  1.00  0.00     0.023 A 
HETATM   10  C   UNL     1      43.257 -15.664   5.849  1.00  0.00     0.015 A 
ENDROOT
BRANCH   6  11
HETATM   11  O   UNL     1      42.421 -14.277   1.973  1.00  0.00    -0.346 OA
BRANCH  11  12
HETATM   12  C   UNL     1      41.089 -14.468   1.499  1.00  0.00     0.209 C 
BRANCH  12  13
HETATM   13  C   UNL     1      41.134 -14.988   0.056  1.00  0.00     0.168 C 
BRANCH  13  14
HETATM   14  O   UNL     1      40.834 -16.397   0.008  1.00  0.00    -0.392 OA
HETATM   15  H   UNL     1      41.650 -16.854   0.312  1.00  0.00     0.210 HD
ENDBRANCH  13  14
BRANCH  13  16
HETATM   16  C   UNL     1      40.066 -14.271  -0.792  1.00  0.00     0.268 C 
BRANCH  16  17
HETATM   17  N   UNL     1      40.733 -13.616  -1.998  1.00  0.00    -0.069 N 
HETATM   18  H   UNL     1      40.841 -14.411  -2.660  1.00  0.00     0.280 HD
HETATM   19  C   UNL     1      39.842 -12.590  -2.649  1.00  0.00     0.235 C 
HETATM   20  C   UNL     1      40.495 -12.051  -3.913  1.00  0.00     0.028 C 
HETATM   21  C   UNL     1      41.888 -11.502  -3.633  1.00  0.00     0.003 C 
HETATM   22  C   UNL     1      42.758 -12.556  -2.960  1.00  0.00     0.028 C 
HETATM   23  C   UNL     1      42.111 -13.094  -1.691  1.00  0.00     0.235 C 
ENDBRANCH  16  17
ENDBRANCH  13  16
ENDBRANCH  12  13
ENDBRANCH  11  12
ENDBRANCH   6  11
BRANCH   2  24
HETATM   24  N   UNL     1      44.447 -19.560   2.898  1.00  0.00    -0.321 N 
HETATM   25  C   UNL     1      43.707 -20.477   2.173  1.00  0.00     0.218 C 
HETATM   26  C   UNL     1      44.465 -21.761   1.929  1.00  0.00     0.117 C 
HETATM   27  O   UNL     1      42.561 -20.351   1.756  1.00  0.00    -0.274 OA
HETATM   28  H   UNL     1      45.400 -19.817   3.142  1.00  0.00     0.169 HD
ENDBRANCH   2  24
BRANCH   1  29
HETATM   29  C   UNL     1      44.224 -18.714   5.836  1.00  0.00     0.297 C 
HETATM   30  O   UNL     1      45.109 -18.461   6.643  1.00  0.00    -0.259 OA
BRANCH  29  31
HETATM   31  O   UNL     1      43.387 -19.793   5.957  1.00  0.00    -0.318 OA
BRANCH  31  32
HETATM   32  C   UNL     1      43.942 -20.937   6.630  1.00  0.00     0.174 C 
HETATM   33  C   UNL     1      44.613 -21.871   5.639  1.00  0.00     0.034 C 
ENDBRANCH  31  32
ENDBRANCH  29  31
ENDBRANCH   1  29
TORSDOF 10
ENDMDL
MODEL 5
REMARK VINA RESULT:      -7.1      3.343      5.400
REMARK  10 active torsions:
REMARK  status: ('A' for Active; 'I' for Inactive)
REMARK    1  A    between atoms: C_2  and  O_3 
REMARK    2  A    between atoms: O_3  and  C_4 
REMARK    3  A    between atoms: C_4  and  C_5 
REMARK    4  A    between atoms: C_6  and  N_7 
REMARK       I    between atoms: N_7  and  C_8 
REMARK    5  A    between atoms: C_14  and  O_15 
REMARK    6  A    between atoms: O_15  and  C_16 
REMARK    7  A    between atoms: C_16  and  C_17 
REMARK    8  A    between atoms: C_17  and  O_18 
REMARK    9  A    between atoms: C_17  and  C_19 
REMARK   10  A    between atoms: C_19  and  N_20 
ROOT
HETATM    1  C   UNL     1      43.616 -17.946   4.137  1.00  0.00     0.085 A 
HETATM    2  C   UNL     1      43.685 -18.523   2.878  1.00  0.00     0.094 A 
HETATM    3  S   UNL     1      42.864 -17.618   1.707  1.00  0.00    -0.068 SA
HETATM    4  C   UNL     1      42.345 -16.416   2.827  1.00  0.00     0.053 A 
HETATM    5  C   UNL     1      42.858 -16.696   4.099  1.00  0.00     0.003 A 
HETATM    6  C   UNL     1      41.514 -15.288   2.546  1.00  0.00     0.104 A 
HETATM    7  C   UNL     1      41.195 -14.448   3.633  1.00  0.00     0.045 A 
HETATM    8 BR   UNL     1      39.956 -13.001   3.578  1.00  0.00    -0.048 Br
HETATM    9  C   UNL     1      41.736 -14.678   4.896  1.00  0.00     0.023 A 
HETATM   10  C   UNL     1      42.556 -15.778   5.133  1.00  0.00     0.015 A 
ENDROOT
BRANCH   6  11
HETATM   11  O   UNL     1      41.034 -15.194   1.262  1.00  0.00    -0.346 OA
BRANCH  11  12
HETATM   12  C   UNL     1      41.646 -14.242   0.393  1.00  0.00     0.209 C 
BRANCH  12  13
HETATM   13  C   UNL     1      41.369 -14.635  -1.065  1.00  0.00     0.168 C 
BRANCH  13  14
HETATM   14  O   UNL     1      40.858 -15.980  -1.145  1.00  0.00    -0.392 OA
HETATM   15  H   UNL     1      40.036 -15.922  -1.683  1.00  0.00     0.210 HD
ENDBRANCH  13  14
BRANCH  13  16
HETATM   16  C   UNL     1      40.294 -13.708  -1.661  1.00  0.00     0.268 C 
BRANCH  16  17
HETATM   17  N   UNL     1      39.387 -13.200  -0.544  1.00  0.00    -0.069 N 
HETATM   18  H   UNL     1      39.948 -13.391   0.311  1.00  0.00     0.280 HD
HETATM   19  C   UNL     1      39.163 -11.712  -0.629  1.00  0.00     0.235 C 
HETATM   20  C   UNL     1      38.356 -11.232   0.567  1.00  0.00     0.028 C 
HETATM   21  C   UNL     1      37.047 -11.998   0.704  1.00  0.00     0.003 C 
HETATM   22  C   UNL     1      37.305 -13.499   0.770  1.00  0.00     0.028 C 
HETATM   23  C   UNL     1      38.108 -13.985  -0.429  1.00  0.00     0.235 C 
ENDBRANCH  16  17
ENDBRANCH  13  16
ENDBRANCH  12  13
ENDBRANCH  11  12
ENDBRANCH   6  11
BRANCH   2  24
HETATM   24  N   UNL     1      44.317 -19.715   2.544  1.00  0.00    -0.321 N 
HETATM   25  C   UNL     1      43.740 -20.868   2.040  1.00  0.00     0.218 C 
HETATM   26  C   UNL     1      44.748 -21.979   1.855  1.00  0.00     0.117 C 
HETATM   27  O   UNL     1      42.561 -21.057   1.767  1.00  0.00    -0.274 OA
HETATM   28  H   UNL     1      45.323 -19.721   2.688  1.00  0.00     0.169 HD
ENDBRANCH   2  24
BRANCH   1  29
HETATM   29  C   UNL     1      44.200 -18.514   5.361  1.00  0.00     0.297 C 
HETATM   30  O   UNL     1      45.406 -18.626   5.542  1.00  0.00    -0.259 OA
BRANCH  29  31
HETATM   31  O   UNL     1      43.265 -18.890   6.291  1.00  0.00    -0.318 OA
BRANCH  31  32
HETATM   32  C   UNL     1      43.690 -18.817   7.664  1.00  0.00     0.174 C 
HETATM   33  C   UNL     1      43.441 -17.432   8.231  1.00  0.00     0.034 C 
ENDBRANCH  31  32
ENDBRANCH  29  31
ENDBRANCH   1  29
TORSDOF 10
ENDMDL
MODEL 6
REMARK VINA RESULT:      -6.9      2.404      3.645
REMARK  10 active torsions:
REMARK  status: ('A' for Active; 'I' for Inactive)
REMARK    1  A    between atoms: C_2  and  O_3 
REMARK    2  A    between atoms: O_3  and  C_4 
REMARK    3  A    between atoms: C_4  and  C_5 
REMARK    4  A    between atoms: C_6  and  N_7 
REMARK       I    between atoms: N_7  and  C_8 
REMARK    5  A    between atoms: C_14  and  O_15 
REMARK    6  A    between atoms: O_15  and  C_16 
REMARK    7  A    between atoms: C_16  and  C_17 
REMARK    8  A    between atoms: C_17  and  O_18 
REMARK    9  A    between atoms: C_17  and  C_19 
REMARK   10  A    between atoms: C_19  and  N_20 
ROOT
HETATM    1  C   UNL     1      43.527 -15.901   6.665  1.00  0.00     0.085 A 
HETATM    2  C   UNL     1      44.013 -14.608   6.551  1.00  0.00     0.094 A 
HETATM    3  S   UNL     1      43.485 -13.843   5.137  1.00  0.00    -0.068 SA
HETATM    4  C   UNL     1      42.598 -15.213   4.584  1.00  0.00     0.053 A 
HETATM    5  C   UNL     1      42.673 -16.243   5.529  1.00  0.00     0.003 A 
HETATM    6  C   UNL     1      41.882 -15.327   3.352  1.00  0.00     0.104 A 
HETATM    7  C   UNL     1      41.249 -16.561   3.098  1.00  0.00     0.045 A 
HETATM    8 BR   UNL     1      40.403 -17.046   1.461  1.00  0.00    -0.048 Br
HETATM    9  C   UNL     1      41.267 -17.582   4.046  1.00  0.00     0.023 A 
HETATM   10  C   UNL     1      41.962 -17.433   5.244  1.00  0.00     0.015 A 
ENDROOT
BRANCH   6  11
HETATM   11  O   UNL     1      41.965 -14.251   2.501  1.00  0.00    -0.346 OA
BRANCH  11  12
HETATM   12  C   UNL     1      40.994 -13.216   2.644  1.00  0.00     0.209 C 
BRANCH  12  13
HETATM   13  C   UNL     1      41.361 -12.046   1.720  1.00  0.00     0.168 C 
BRANCH  13  14
HETATM   14  O   UNL     1      42.729 -12.150   1.280  1.00  0.00    -0.392 OA
HETATM   15  H   UNL     1      42.812 -13.041   0.872  1.00  0.00     0.210 HD
ENDBRANCH  13  14
BRANCH  13  16
HETATM   16  C   UNL     1      40.478 -12.078   0.459  1.00  0.00     0.268 C 
BRANCH  16  17
HETATM   17  N   UNL     1      41.103 -13.013  -0.573  1.00  0.00    -0.069 N 
HETATM   18  H   UNL     1      41.937 -13.382  -0.072  1.00  0.00     0.280 HD
HETATM   19  C   UNL     1      40.205 -14.179  -0.898  1.00  0.00     0.235 C 
HETATM   20  C   UNL     1      40.914 -15.144  -1.834  1.00  0.00     0.028 C 
HETATM   21  C   UNL     1      41.414 -14.442  -3.090  1.00  0.00     0.003 C 
HETATM   22  C   UNL     1      42.303 -13.259  -2.729  1.00  0.00     0.028 C 
HETATM   23  C   UNL     1      41.596 -12.287  -1.796  1.00  0.00     0.235 C 
ENDBRANCH  16  17
ENDBRANCH  13  16
ENDBRANCH  12  13
ENDBRANCH  11  12
ENDBRANCH   6  11
BRANCH   2  24
HETATM   24  N   UNL     1      44.858 -13.956   7.442  1.00  0.00    -0.321 N 
HETATM   25  C   UNL     1      44.616 -12.782   8.134  1.00  0.00     0.218 C 
HETATM   26  C   UNL     1      45.802 -12.354   8.967  1.00  0.00     0.117 C 
HETATM   27  O   UNL     1      43.599 -12.099   8.116  1.00  0.00    -0.274 OA
HETATM   28  H   UNL     1      45.754 -14.412   7.594  1.00  0.00     0.169 HD
ENDBRANCH   2  24
BRANCH   1  29
HETATM   29  C   UNL     1      43.839 -16.828   7.765  1.00  0.00     0.297 C 
HETATM   30  O   UNL     1      43.528 -16.618   8.930  1.00  0.00    -0.259 OA
BRANCH  29  31
HETATM   31  O   UNL     1      44.495 -17.961   7.357  1.00  0.00    -0.318 OA
BRANCH  31  32
HETATM   32  C   UNL     1      43.933 -19.203   7.815  1.00  0.00     0.174 C 
HETATM   33  C   UNL     1      43.869 -20.214   6.685  1.00  0.00     0.034 C 
ENDBRANCH  31  32
ENDBRANCH  29  31
ENDBRANCH   1  29
TORSDOF 10
ENDMDL
MODEL 7
REMARK VINA RESULT:      -6.9      3.364      7.488
REMARK  10 active torsions:
REMARK  status: ('A' for Active; 'I' for Inactive)
REMARK    1  A    between atoms: C_2  and  O_3 
REMARK    2  A    between atoms: O_3  and  C_4 
REMARK    3  A    between atoms: C_4  and  C_5 
REMARK    4  A    between atoms: C_6  and  N_7 
REMARK       I    between atoms: N_7  and  C_8 
REMARK    5  A    between atoms: C_14  and  O_15 
REMARK    6  A    between atoms: O_15  and  C_16 
REMARK    7  A    between atoms: C_16  and  C_17 
REMARK    8  A    between atoms: C_17  and  O_18 
REMARK    9  A    between atoms: C_17  and  C_19 
REMARK   10  A    between atoms: C_19  and  N_20 
ROOT
HETATM    1  C   UNL     1      42.776 -18.179   3.707  1.00  0.00     0.085 A 
HETATM    2  C   UNL     1      42.413 -17.956   5.027  1.00  0.00     0.094 A 
HETATM    3  S   UNL     1      41.217 -16.768   5.176  1.00  0.00    -0.068 SA
HETATM    4  C   UNL     1      41.138 -16.465   3.481  1.00  0.00     0.053 A 
HETATM    5  C   UNL     1      42.005 -17.327   2.802  1.00  0.00     0.003 A 
HETATM    6  C   UNL     1      40.328 -15.488   2.825  1.00  0.00     0.104 A 
HETATM    7  C   UNL     1      40.449 -15.400   1.423  1.00  0.00     0.045 A 
HETATM    8 BR   UNL     1      39.640 -14.065   0.330  1.00  0.00    -0.048 Br
HETATM    9  C   UNL     1      41.267 -16.283   0.721  1.00  0.00     0.023 A 
HETATM   10  C   UNL     1      42.033 -17.234   1.390  1.00  0.00     0.015 A 
ENDROOT
BRANCH   6  11
HETATM   11  O   UNL     1      39.583 -14.670   3.642  1.00  0.00    -0.346 OA
BRANCH  11  12
HETATM   12  C   UNL     1      40.247 -13.575   4.268  1.00  0.00     0.209 C 
BRANCH  12  13
HETATM   13  C   UNL     1      39.499 -13.197   5.554  1.00  0.00     0.168 C 
BRANCH  13  14
HETATM   14  O   UNL     1      40.014 -13.933   6.682  1.00  0.00    -0.392 OA
HETATM   15  H   UNL     1      40.993 -13.900   6.598  1.00  0.00     0.210 HD
ENDBRANCH  13  14
BRANCH  13  16
HETATM   16  C   UNL     1      39.706 -11.702   5.860  1.00  0.00     0.268 C 
BRANCH  16  17
HETATM   17  N   UNL     1      40.375 -11.552   7.224  1.00  0.00    -0.069 N 
HETATM   18  H   UNL     1      40.542 -12.538   7.507  1.00  0.00     0.280 HD
HETATM   19  C   UNL     1      41.714 -10.866   7.124  1.00  0.00     0.235 C 
HETATM   20  C   UNL     1      42.396 -10.845   8.483  1.00  0.00     0.028 C 
HETATM   21  C   UNL     1      41.508 -10.212   9.547  1.00  0.00     0.003 C 
HETATM   22  C   UNL     1      40.158 -10.915   9.610  1.00  0.00     0.028 C 
HETATM   23  C   UNL     1      39.468 -10.933   8.253  1.00  0.00     0.235 C 
ENDBRANCH  16  17
ENDBRANCH  13  16
ENDBRANCH  12  13
ENDBRANCH  11  12
ENDBRANCH   6  11
BRANCH   2  24
HETATM   24  N   UNL     1      42.942 -18.581   6.151  1.00  0.00    -0.321 N 
HETATM   25  C   UNL     1      43.885 -18.083   7.032  1.00  0.00     0.218 C 
HETATM   26  C   UNL     1      44.252 -19.084   8.103  1.00  0.00     0.117 C 
HETATM   27  O   UNL     1      44.424 -16.983   7.008  1.00  0.00    -0.274 OA
HETATM   28  H   UNL     1      42.576 -19.511   6.334  1.00  0.00     0.169 HD
ENDBRANCH   2  24
BRANCH   1  29
HETATM   29  C   UNL     1      43.812 -19.124   3.262  1.00  0.00     0.297 C 
HETATM   30  O   UNL     1      44.776 -19.437   3.949  1.00  0.00    -0.259 OA
BRANCH  29  31
HETATM   31  O   UNL     1      43.586 -19.635   2.010  1.00  0.00    -0.318 OA
BRANCH  31  32
HETATM   32  C   UNL     1      43.163 -21.009   1.968  1.00  0.00     0.174 C 
HETATM   33  C   UNL     1      44.297 -21.908   1.508  1.00  0.00     0.034 C 
ENDBRANCH  31  32
ENDBRANCH  29  31
ENDBRANCH   1  29
TORSDOF 10
ENDMDL
MODEL 8
REMARK VINA RESULT:      -6.8      3.337      5.061
REMARK  10 active torsions:
REMARK  status: ('A' for Active; 'I' for Inactive)
REMARK    1  A    between atoms: C_2  and  O_3 
REMARK    2  A    between atoms: O_3  and  C_4 
REMARK    3  A    between atoms: C_4  and  C_5 
REMARK    4  A    between atoms: C_6  and  N_7 
REMARK       I    between atoms: N_7  and  C_8 
REMARK    5  A    between atoms: C_14  and  O_15 
REMARK    6  A    between atoms: O_15  and  C_16 
REMARK    7  A    between atoms: C_16  and  C_17 
REMARK    8  A    between atoms: C_17  and  O_18 
REMARK    9  A    between atoms: C_17  and  C_19 
REMARK   10  A    between atoms: C_19  and  N_20 
ROOT
HETATM    1  C   UNL     1      42.156 -16.665   4.481  1.00  0.00     0.085 A 
HETATM    2  C   UNL     1      42.097 -17.402   3.308  1.00  0.00     0.094 A 
HETATM    3  S   UNL     1      41.264 -16.590   2.078  1.00  0.00    -0.068 SA
HETATM    4  C   UNL     1      40.910 -15.218   3.059  1.00  0.00     0.053 A 
HETATM    5  C   UNL     1      41.488 -15.374   4.324  1.00  0.00     0.003 A 
HETATM    6  C   UNL     1      40.142 -14.074   2.682  1.00  0.00     0.104 A 
HETATM    7  C   UNL     1      39.959 -13.080   3.665  1.00  0.00     0.045 A 
HETATM    8 BR   UNL     1      38.825 -11.558   3.493  1.00  0.00    -0.048 Br
HETATM    9  C   UNL     1      40.568 -13.189   4.913  1.00  0.00     0.023 A 
HETATM   10  C   UNL     1      41.323 -14.312   5.244  1.00  0.00     0.015 A 
ENDROOT
BRANCH   6  11
HETATM   11  O   UNL     1      39.584 -14.105   1.426  1.00  0.00    -0.346 OA
BRANCH  11  12
HETATM   12  C   UNL     1      38.207 -14.462   1.322  1.00  0.00     0.209 C 
BRANCH  12  13
HETATM   13  C   UNL     1      37.574 -13.704   0.146  1.00  0.00     0.168 C 
BRANCH  13  14
HETATM   14  O   UNL     1      36.613 -12.739   0.616  1.00  0.00    -0.392 OA
HETATM   15  H   UNL     1      37.004 -12.346   1.429  1.00  0.00     0.210 HD
ENDBRANCH  13  14
BRANCH  13  16
HETATM   16  C   UNL     1      38.660 -12.924  -0.618  1.00  0.00     0.268 C 
BRANCH  16  17
HETATM   17  N   UNL     1      38.974 -13.642  -1.927  1.00  0.00    -0.069 N 
HETATM   18  H   UNL     1      39.151 -12.855  -2.584  1.00  0.00     0.280 HD
HETATM   19  C   UNL     1      40.236 -14.461  -1.835  1.00  0.00     0.235 C 
HETATM   20  C   UNL     1      40.574 -15.061  -3.191  1.00  0.00     0.028 C 
HETATM   21  C   UNL     1      39.410 -15.867  -3.754  1.00  0.00     0.003 C 
HETATM   22  C   UNL     1      38.147 -15.018  -3.818  1.00  0.00     0.028 C 
HETATM   23  C   UNL     1      37.801 -14.420  -2.461  1.00  0.00     0.235 C 
ENDBRANCH  16  17
ENDBRANCH  13  16
ENDBRANCH  12  13
ENDBRANCH  11  12
ENDBRANCH   6  11
BRANCH   2  24
HETATM   24  N   UNL     1      42.619 -18.673   3.097  1.00  0.00    -0.321 N 
HETATM   25  C   UNL     1      43.723 -19.020   2.338  1.00  0.00     0.218 C 
HETATM   26  C   UNL     1      43.945 -20.515   2.302  1.00  0.00     0.117 C 
HETATM   27  O   UNL     1      44.472 -18.272   1.720  1.00  0.00    -0.274 OA
HETATM   28  H   UNL     1      42.121 -19.423   3.568  1.00  0.00     0.169 HD
ENDBRANCH   2  24
BRANCH   1  29
HETATM   29  C   UNL     1      42.781 -17.118   5.734  1.00  0.00     0.297 C 
HETATM   30  O   UNL     1      42.290 -17.972   6.461  1.00  0.00    -0.259 OA
BRANCH  29  31
HETATM   31  O   UNL     1      43.978 -16.506   6.001  1.00  0.00    -0.318 OA
BRANCH  31  32
HETATM   32  C   UNL     1      44.018 -15.719   7.205  1.00  0.00     0.174 C 
HETATM   33  C   UNL     1      44.681 -14.378   6.951  1.00  0.00     0.034 C 
ENDBRANCH  31  32
ENDBRANCH  29  31
ENDBRANCH   1  29
TORSDOF 10
ENDMDL
MODEL 9
REMARK VINA RESULT:      -6.8      3.511      8.265
REMARK  10 active torsions:
REMARK  status: ('A' for Active; 'I' for Inactive)
REMARK    1  A    between atoms: C_2  and  O_3 
REMARK    2  A    between atoms: O_3  and  C_4 
REMARK    3  A    between atoms: C_4  and  C_5 
REMARK    4  A    between atoms: C_6  and  N_7 
REMARK       I    between atoms: N_7  and  C_8 
REMARK    5  A    between atoms: C_14  and  O_15 
REMARK    6  A    between atoms: O_15  and  C_16 
REMARK    7  A    between atoms: C_16  and  C_17 
REMARK    8  A    between atoms: C_17  and  O_18 
REMARK    9  A    between atoms: C_17  and  C_19 
REMARK   10  A    between atoms: C_19  and  N_20 
ROOT
HETATM    1  C   UNL     1      39.232 -13.281   0.745  1.00  0.00     0.085 A 
HETATM    2  C   UNL     1      39.872 -14.495   0.548  1.00  0.00     0.094 A 
HETATM    3  S   UNL     1      40.388 -15.195   2.000  1.00  0.00    -0.068 SA
HETATM    4  C   UNL     1      39.807 -13.896   2.972  1.00  0.00     0.053 A 
HETATM    5  C   UNL     1      39.166 -12.947   2.167  1.00  0.00     0.003 A 
HETATM    6  C   UNL     1      39.940 -13.763   4.388  1.00  0.00     0.104 A 
HETATM    7  C   UNL     1      39.406 -12.593   4.969  1.00  0.00     0.045 A 
HETATM    8 BR   UNL     1      39.619 -12.074   6.790  1.00  0.00    -0.048 Br
HETATM    9  C   UNL     1      38.720 -11.661   4.195  1.00  0.00     0.023 A 
HETATM   10  C   UNL     1      38.595 -11.829   2.817  1.00  0.00     0.015 A 
ENDROOT
BRANCH   6  11
HETATM   11  O   UNL     1      40.658 -14.746   5.026  1.00  0.00    -0.346 OA
BRANCH  11  12
HETATM   12  C   UNL     1      41.995 -14.443   5.418  1.00  0.00     0.209 C 
BRANCH  12  13
HETATM   13  C   UNL     1      42.735 -15.747   5.748  1.00  0.00     0.168 C 
BRANCH  13  14
HETATM   14  O   UNL     1      42.713 -16.005   7.166  1.00  0.00    -0.392 OA
HETATM   15  H   UNL     1      42.235 -15.245   7.568  1.00  0.00     0.210 HD
ENDBRANCH  13  14
BRANCH  13  16
HETATM   16  C   UNL     1      42.032 -16.934   5.063  1.00  0.00     0.268 C 
BRANCH  16  17
HETATM   17  N   UNL     1      43.071 -17.793   4.346  1.00  0.00    -0.069 N 
HETATM   18  H   UNL     1      43.878 -17.145   4.253  1.00  0.00     0.280 HD
HETATM   19  C   UNL     1      43.512 -18.965   5.185  1.00  0.00     0.235 C 
HETATM   20  C   UNL     1      44.630 -19.721   4.485  1.00  0.00     0.028 C 
HETATM   21  C   UNL     1      44.225 -20.146   3.079  1.00  0.00     0.003 C 
HETATM   22  C   UNL     1      43.768 -18.943   2.263  1.00  0.00     0.028 C 
HETATM   23  C   UNL     1      42.644 -18.186   2.957  1.00  0.00     0.235 C 
ENDBRANCH  16  17
ENDBRANCH  13  16
ENDBRANCH  12  13
ENDBRANCH  11  12
ENDBRANCH   6  11
BRANCH   2  24
HETATM   24  N   UNL     1      40.119 -15.118  -0.670  1.00  0.00    -0.321 N 
HETATM   25  C   UNL     1      41.060 -14.772  -1.623  1.00  0.00     0.218 C 
HETATM   26  C   UNL     1      40.987 -15.656  -2.847  1.00  0.00     0.117 C 
HETATM   27  O   UNL     1      41.879 -13.862  -1.570  1.00  0.00    -0.274 OA
HETATM   28  H   UNL     1      39.531 -15.924  -0.864  1.00  0.00     0.169 HD
ENDBRANCH   2  24
BRANCH   1  29
HETATM   29  C   UNL     1      38.705 -12.420  -0.325  1.00  0.00     0.297 C 
HETATM   30  O   UNL     1      39.128 -11.294  -0.552  1.00  0.00    -0.259 OA
BRANCH  29  31
HETATM   31  O   UNL     1      37.705 -13.006  -1.058  1.00  0.00    -0.318 OA
BRANCH  31  32
HETATM   32  C   UNL     1      37.843 -12.908  -2.487  1.00  0.00     0.174 C 
HETATM   33  C   UNL     1      37.605 -14.255  -3.145  1.00  0.00     0.034 C 
ENDBRANCH  31  32
ENDBRANCH  29  31
ENDBRANCH   1  29
TORSDOF 10
ENDMDL
MODEL 10
REMARK VINA RESULT:      -6.8      3.059      6.317
REMARK  10 active torsions:
REMARK  status: ('A' for Active; 'I' for Inactive)
REMARK    1  A    between atoms: C_2  and  O_3 
REMARK    2  A    between atoms: O_3  and  C_4 
REMARK    3  A    between atoms: C_4  and  C_5 
REMARK    4  A    between atoms: C_6  and  N_7 
REMARK       I    between atoms: N_7  and  C_8 
REMARK    5  A    between atoms: C_14  and  O_15 
REMARK    6  A    between atoms: O_15  and  C_16 
REMARK    7  A    between atoms: C_16  and  C_17 
REMARK    8  A    between atoms: C_17  and  O_18 
REMARK    9  A    between atoms: C_17  and  C_19 
REMARK   10  A    between atoms: C_19  and  N_20 
ROOT
HETATM    1  C   UNL     1      42.775 -17.898   3.893  1.00  0.00     0.085 A 
HETATM    2  C   UNL     1      42.272 -17.344   5.060  1.00  0.00     0.094 A 
HETATM    3  S   UNL     1      41.162 -16.102   4.759  1.00  0.00    -0.068 SA
HETATM    4  C   UNL     1      41.315 -16.219   3.046  1.00  0.00     0.053 A 
HETATM    5  C   UNL     1      42.190 -17.260   2.715  1.00  0.00     0.003 A 
HETATM    6  C   UNL     1      40.669 -15.396   2.072  1.00  0.00     0.104 A 
HETATM    7  C   UNL     1      40.968 -15.660   0.719  1.00  0.00     0.045 A 
HETATM    8 BR   UNL     1      40.405 -14.597  -0.758  1.00  0.00    -0.048 Br
HETATM    9  C   UNL     1      41.795 -16.724   0.365  1.00  0.00     0.023 A 
HETATM   10  C   UNL     1      42.397 -17.516   1.339  1.00  0.00     0.015 A 
ENDROOT
BRANCH   6  11
HETATM   11  O   UNL     1      39.895 -14.371   2.562  1.00  0.00    -0.346 OA
BRANCH  11  12
HETATM   12  C   UNL     1      40.382 -13.040   2.407  1.00  0.00     0.209 C 
BRANCH  12  13
HETATM   13  C   UNL     1      41.911 -13.040   2.547  1.00  0.00     0.168 C 
BRANCH  13  14
HETATM   14  O   UNL     1      42.509 -12.091   1.642  1.00  0.00    -0.392 OA
HETATM   15  H   UNL     1      42.564 -12.549   0.773  1.00  0.00     0.210 HD
ENDBRANCH  13  14
BRANCH  13  16
HETATM   16  C   UNL     1      42.305 -12.611   3.973  1.00  0.00     0.268 C 
BRANCH  16  17
HETATM   17  N   UNL     1      41.098 -11.983   4.665  1.00  0.00    -0.069 N 
HETATM   18  H   UNL     1      40.312 -12.245   4.037  1.00  0.00     0.280 HD
HETATM   19  C   UNL     1      40.837 -12.599   6.016  1.00  0.00     0.235 C 
HETATM   20  C   UNL     1      39.560 -12.030   6.615  1.00  0.00     0.028 C 
HETATM   21  C   UNL     1      39.600 -10.508   6.679  1.00  0.00     0.003 C 
HETATM   22  C   UNL     1      39.884  -9.918   5.304  1.00  0.00     0.028 C 
HETATM   23  C   UNL     1      41.164 -10.480   4.702  1.00  0.00     0.235 C 
ENDBRANCH  16  17
ENDBRANCH  13  16
ENDBRANCH  12  13
ENDBRANCH  11  12
ENDBRANCH   6  11
BRANCH   2  24
HETATM   24  N   UNL     1      42.609 -17.698   6.362  1.00  0.00    -0.321 N 
HETATM   25  C   UNL     1      43.486 -17.052   7.216  1.00  0.00     0.218 C 
HETATM   26  C   UNL     1      43.635 -17.774   8.535  1.00  0.00     0.117 C 
HETATM   27  O   UNL     1      44.121 -16.027   7.001  1.00  0.00    -0.274 OA
HETATM   28  H   UNL     1      42.142 -18.530   6.713  1.00  0.00     0.169 HD
ENDBRANCH   2  24
BRANCH   1  29
HETATM   29  C   UNL     1      43.782 -18.969   3.831  1.00  0.00     0.297 C 
HETATM   30  O   UNL     1      44.740 -19.037   4.591  1.00  0.00    -0.259 OA
BRANCH  29  31
HETATM   31  O   UNL     1      43.536 -19.896   2.852  1.00  0.00    -0.318 OA
BRANCH  31  32
HETATM   32  C   UNL     1      44.535 -20.921   2.701  1.00  0.00     0.174 C 
HETATM   33  C   UNL     1      44.132 -21.911   1.624  1.00  0.00     0.034 C 
ENDBRANCH  31  32
ENDBRANCH  29  31
ENDBRANCH   1  29
TORSDOF 10
ENDMDL
