MODEL 1
REMARK VINA RESULT:      -7.7      0.000      0.000
REMARK  6 active torsions:
REMARK  status: ('A' for Active; 'I' for Inactive)
REMARK    1  A    between atoms: C_8  and  N_9 
REMARK       I    between atoms: N_9  and  C_10 
REMARK    2  A    between atoms: C_10  and  C_11 
REMARK    3  A    between atoms: C_11  and  N_12 
REMARK    4  A    between atoms: N_12  and  C_13 
REMARK    5  A    between atoms: C_13  and  C_14 
REMARK    6  A    between atoms: C_13  and  C_17 
ROOT
HETATM    1  C   UNL     1      43.391 -17.354   0.943  1.00  0.00     0.372 C 
ENDROOT
BRANCH   1   2
HETATM    2  C   UNL     1      41.994 -16.821   0.623  1.00  0.00     0.250 C 
HETATM    3  N   UNL     1      42.017 -15.612  -0.035  1.00  0.00    -0.322 N 
HETATM    4  H   UNL     1      42.916 -15.137  -0.026  1.00  0.00     0.169 HD
HETATM    5  O   UNL     1      41.002 -17.491   0.899  1.00  0.00    -0.271 OA
BRANCH   3   6
HETATM    6  C   UNL     1      40.942 -14.945  -0.599  1.00  0.00     0.085 A 
HETATM    7  C   UNL     1      40.103 -14.135   0.144  1.00  0.00     0.052 A 
HETATM    8  C   UNL     1      40.049 -13.770   1.578  1.00  0.00     0.072 C 
HETATM    9  N   UNL     1      39.167 -13.664  -0.731  1.00  0.00    -0.280 N 
HETATM   10  H   UNL     1      38.380 -13.055  -0.537  1.00  0.00     0.189 HD
HETATM   11  N   UNL     1      39.350 -14.066  -1.990  1.00  0.00    -0.177 NA
HETATM   12  C   UNL     1      40.439 -14.849  -1.933  1.00  0.00     0.079 A 
HETATM   13  C   UNL     1      40.948 -15.423  -3.204  1.00  0.00     0.075 C 
ENDBRANCH   3   6
ENDBRANCH   1   2
BRANCH   1  14
HETATM   14  N   UNL     1      43.408 -18.538   1.806  1.00  0.00     0.101 N 
HETATM   15  H   UNL     1      42.443 -18.864   1.878  1.00  0.00     0.317 HD
BRANCH  14  16
HETATM   16  C   UNL     1      43.969 -18.442   3.175  1.00  0.00     0.259 C 
BRANCH  16  17
HETATM   17  C   UNL     1      43.168 -17.666   4.287  1.00  0.00     0.015 C 
HETATM   18  C   UNL     1      43.285 -16.134   4.113  1.00  0.00     0.012 C 
HETATM   19  C   UNL     1      41.661 -17.971   4.291  1.00  0.00     0.012 C 
ENDBRANCH  16  17
BRANCH  16  20
HETATM   20  C   UNL     1      44.246 -19.897   3.601  1.00  0.00    -0.003 A 
HETATM   21  C   UNL     1      44.617 -20.262   4.906  1.00  0.00     0.042 A 
HETATM   22 CL   UNL     1      44.763 -19.116   6.189  1.00  0.00    -0.084 Cl
HETATM   23  C   UNL     1      44.880 -21.601   5.227  1.00  0.00     0.024 A 
HETATM   24  C   UNL     1      44.776 -22.597   4.256  1.00  0.00     0.002 A 
HETATM   25  C   UNL     1      44.407 -22.259   2.960  1.00  0.00     0.001 A 
HETATM   26  C   UNL     1      44.148 -20.926   2.635  1.00  0.00     0.011 A 
ENDBRANCH  16  20
ENDBRANCH  14  16
ENDBRANCH   1  14
TORSDOF 6
ENDMDL
MODEL 2
REMARK VINA RESULT:      -7.7      0.893      1.865
REMARK  6 active torsions:
REMARK  status: ('A' for Active; 'I' for Inactive)
REMARK    1  A    between atoms: C_8  and  N_9 
REMARK       I    between atoms: N_9  and  C_10 
REMARK    2  A    between atoms: C_10  and  C_11 
REMARK    3  A    between atoms: C_11  and  N_12 
REMARK    4  A    between atoms: N_12  and  C_13 
REMARK    5  A    between atoms: C_13  and  C_14 
REMARK    6  A    between atoms: C_13  and  C_17 
ROOT
HETATM    1  C   UNL     1      42.987 -16.686   0.923  1.00  0.00     0.372 C 
ENDROOT
BRANCH   1   2
HETATM    2  C   UNL     1      41.701 -15.897   0.670  1.00  0.00     0.250 C 
HETATM    3  N   UNL     1      41.784 -15.072  -0.430  1.00  0.00    -0.322 N 
HETATM    4  H   UNL     1      42.725 -14.929  -0.787  1.00  0.00     0.169 HD
HETATM    5  O   UNL     1      40.716 -16.083   1.379  1.00  0.00    -0.271 OA
BRANCH   3   6
HETATM    6  C   UNL     1      40.757 -14.352  -1.016  1.00  0.00     0.085 A 
HETATM    7  C   UNL     1      40.164 -14.743  -2.203  1.00  0.00     0.052 A 
HETATM    8  C   UNL     1      40.396 -15.872  -3.132  1.00  0.00     0.072 C 
HETATM    9  N   UNL     1      39.215 -13.800  -2.474  1.00  0.00    -0.280 N 
HETATM   10  H   UNL     1      38.595 -13.749  -3.275  1.00  0.00     0.189 HD
HETATM   11  N   UNL     1      39.110 -12.850  -1.543  1.00  0.00    -0.177 NA
HETATM   12  C   UNL     1      40.045 -13.174  -0.634  1.00  0.00     0.079 A 
HETATM   13  C   UNL     1      40.152 -12.328   0.581  1.00  0.00     0.075 C 
ENDBRANCH   3   6
ENDBRANCH   1   2
BRANCH   1  14
HETATM   14  N   UNL     1      42.808 -17.901   1.722  1.00  0.00     0.101 N 
HETATM   15  H   UNL     1      41.813 -17.965   1.942  1.00  0.00     0.317 HD
BRANCH  14  16
HETATM   16  C   UNL     1      43.573 -18.071   2.980  1.00  0.00     0.259 C 
BRANCH  16  17
HETATM   17  C   UNL     1      42.958 -17.559   4.337  1.00  0.00     0.015 C 
HETATM   18  C   UNL     1      43.149 -16.035   4.513  1.00  0.00     0.012 C 
HETATM   19  C   UNL     1      41.445 -17.808   4.463  1.00  0.00     0.012 C 
ENDBRANCH  16  17
BRANCH  16  20
HETATM   20  C   UNL     1      43.903 -19.575   3.051  1.00  0.00    -0.003 A 
HETATM   21  C   UNL     1      44.564 -20.170   4.139  1.00  0.00     0.042 A 
HETATM   22 CL   UNL     1      45.042 -19.281   5.539  1.00  0.00    -0.084 Cl
HETATM   23  C   UNL     1      44.859 -21.540   4.134  1.00  0.00     0.024 A 
HETATM   24  C   UNL     1      44.500 -22.340   3.049  1.00  0.00     0.002 A 
HETATM   25  C   UNL     1      43.843 -21.774   1.964  1.00  0.00     0.001 A 
HETATM   26  C   UNL     1      43.551 -20.408   1.963  1.00  0.00     0.011 A 
ENDBRANCH  16  20
ENDBRANCH  14  16
ENDBRANCH   1  14
TORSDOF 6
ENDMDL
MODEL 3
REMARK VINA RESULT:      -7.7      1.551      3.367
REMARK  6 active torsions:
REMARK  status: ('A' for Active; 'I' for Inactive)
REMARK    1  A    between atoms: C_8  and  N_9 
REMARK       I    between atoms: N_9  and  C_10 
REMARK    2  A    between atoms: C_10  and  C_11 
REMARK    3  A    between atoms: C_11  and  N_12 
REMARK    4  A    between atoms: N_12  and  C_13 
REMARK    5  A    between atoms: C_13  and  C_14 
REMARK    6  A    between atoms: C_13  and  C_17 
ROOT
HETATM    1  C   UNL     1      43.560 -17.630   1.059  1.00  0.00     0.372 C 
ENDROOT
BRANCH   1   2
HETATM    2  C   UNL     1      42.137 -17.090   0.911  1.00  0.00     0.250 C 
HETATM    3  N   UNL     1      42.088 -15.870   0.274  1.00  0.00    -0.322 N 
HETATM    4  H   UNL     1      42.983 -15.397   0.187  1.00  0.00     0.169 HD
HETATM    5  O   UNL     1      41.181 -17.763   1.289  1.00  0.00    -0.271 OA
BRANCH   3   6
HETATM    6  C   UNL     1      40.957 -15.193  -0.151  1.00  0.00     0.085 A 
HETATM    7  C   UNL     1      40.603 -15.112  -1.485  1.00  0.00     0.052 A 
HETATM    8  C   UNL     1      41.218 -15.617  -2.734  1.00  0.00     0.072 C 
HETATM    9  N   UNL     1      39.458 -14.369  -1.523  1.00  0.00    -0.280 N 
HETATM   10  H   UNL     1      38.921 -14.088  -2.337  1.00  0.00     0.189 HD
HETATM   11  N   UNL     1      39.014 -13.993  -0.322  1.00  0.00    -0.177 NA
HETATM   12  C   UNL     1      39.917 -14.495   0.536  1.00  0.00     0.079 A 
HETATM   13  C   UNL     1      39.679 -14.294   1.987  1.00  0.00     0.075 C 
ENDBRANCH   3   6
ENDBRANCH   1   2
BRANCH   1  14
HETATM   14  N   UNL     1      44.027 -17.743   2.443  1.00  0.00     0.101 N 
HETATM   15  H   UNL     1      45.042 -17.639   2.420  1.00  0.00     0.317 HD
BRANCH  14  16
HETATM   16  C   UNL     1      43.703 -18.955   3.231  1.00  0.00     0.259 C 
BRANCH  16  17
HETATM   17  C   UNL     1      44.523 -20.279   2.991  1.00  0.00     0.015 C 
HETATM   18  C   UNL     1      44.557 -21.168   4.255  1.00  0.00     0.012 C 
HETATM   19  C   UNL     1      43.951 -21.166   1.872  1.00  0.00     0.012 C 
ENDBRANCH  16  17
BRANCH  16  20
HETATM   20  C   UNL     1      43.782 -18.511   4.705  1.00  0.00    -0.003 A 
HETATM   21  C   UNL     1      42.672 -18.044   5.431  1.00  0.00     0.042 A 
HETATM   22 CL   UNL     1      41.086 -17.958   4.756  1.00  0.00    -0.084 Cl
HETATM   23  C   UNL     1      42.813 -17.630   6.762  1.00  0.00     0.024 A 
HETATM   24  C   UNL     1      44.055 -17.677   7.393  1.00  0.00     0.002 A 
HETATM   25  C   UNL     1      45.165 -18.137   6.696  1.00  0.00     0.001 A 
HETATM   26  C   UNL     1      45.031 -18.547   5.368  1.00  0.00     0.011 A 
ENDBRANCH  16  20
ENDBRANCH  14  16
ENDBRANCH   1  14
TORSDOF 6
ENDMDL
MODEL 4
REMARK VINA RESULT:      -7.6      1.928      2.514
REMARK  6 active torsions:
REMARK  status: ('A' for Active; 'I' for Inactive)
REMARK    1  A    between atoms: C_8  and  N_9 
REMARK       I    between atoms: N_9  and  C_10 
REMARK    2  A    between atoms: C_10  and  C_11 
REMARK    3  A    between atoms: C_11  and  N_12 
REMARK    4  A    between atoms: N_12  and  C_13 
REMARK    5  A    between atoms: C_13  and  C_14 
REMARK    6  A    between atoms: C_13  and  C_17 
ROOT
HETATM    1  C   UNL     1      43.494 -14.203   3.227  1.00  0.00     0.372 C 
ENDROOT
BRANCH   1   2
HETATM    2  C   UNL     1      42.444 -13.601   2.292  1.00  0.00     0.250 C 
HETATM    3  N   UNL     1      42.052 -14.466   1.295  1.00  0.00    -0.322 N 
HETATM    4  H   UNL     1      42.649 -15.279   1.175  1.00  0.00     0.169 HD
HETATM    5  O   UNL     1      41.997 -12.478   2.512  1.00  0.00    -0.271 OA
BRANCH   3   6
HETATM    6  C   UNL     1      41.018 -14.288   0.391  1.00  0.00     0.085 A 
HETATM    7  C   UNL     1      39.702 -14.573   0.709  1.00  0.00     0.052 A 
HETATM    8  C   UNL     1      39.041 -15.106   1.922  1.00  0.00     0.072 C 
HETATM    9  N   UNL     1      38.978 -14.291  -0.413  1.00  0.00    -0.280 N 
HETATM   10  H   UNL     1      37.979 -14.397  -0.556  1.00  0.00     0.189 HD
HETATM   11  N   UNL     1      39.704 -13.807  -1.422  1.00  0.00    -0.177 NA
HETATM   12  C   UNL     1      40.960 -13.791  -0.947  1.00  0.00     0.079 A 
HETATM   13  C   UNL     1      42.026 -13.245  -1.824  1.00  0.00     0.075 C 
ENDBRANCH   3   6
ENDBRANCH   1   2
BRANCH   1  14
HETATM   14  N   UNL     1      43.664 -15.653   3.097  1.00  0.00     0.101 N 
HETATM   15  H   UNL     1      43.263 -15.917   2.197  1.00  0.00     0.317 HD
BRANCH  14  16
HETATM   16  C   UNL     1      43.109 -16.554   4.135  1.00  0.00     0.259 C 
BRANCH  16  17
HETATM   17  C   UNL     1      41.568 -16.507   4.458  1.00  0.00     0.015 C 
HETATM   18  C   UNL     1      41.091 -17.799   5.162  1.00  0.00     0.012 C 
HETATM   19  C   UNL     1      41.166 -15.351   5.391  1.00  0.00     0.012 C 
ENDBRANCH  16  17
BRANCH  16  20
HETATM   20  C   UNL     1      43.548 -17.971   3.716  1.00  0.00    -0.003 A 
HETATM   21  C   UNL     1      44.359 -18.796   4.515  1.00  0.00     0.042 A 
HETATM   22 CL   UNL     1      44.917 -18.322   6.077  1.00  0.00    -0.084 Cl
HETATM   23  C   UNL     1      44.745 -20.066   4.067  1.00  0.00     0.024 A 
HETATM   24  C   UNL     1      44.330 -20.537   2.822  1.00  0.00     0.002 A 
HETATM   25  C   UNL     1      43.526 -19.740   2.017  1.00  0.00     0.001 A 
HETATM   26  C   UNL     1      43.142 -18.471   2.457  1.00  0.00     0.011 A 
ENDBRANCH  16  20
ENDBRANCH  14  16
ENDBRANCH   1  14
TORSDOF 6
ENDMDL
MODEL 5
REMARK VINA RESULT:      -7.5      3.444      4.788
REMARK  6 active torsions:
REMARK  status: ('A' for Active; 'I' for Inactive)
REMARK    1  A    between atoms: C_8  and  N_9 
REMARK       I    between atoms: N_9  and  C_10 
REMARK    2  A    between atoms: C_10  and  C_11 
REMARK    3  A    between atoms: C_11  and  N_12 
REMARK    4  A    between atoms: N_12  and  C_13 
REMARK    5  A    between atoms: C_13  and  C_14 
REMARK    6  A    between atoms: C_13  and  C_17 
ROOT
HETATM    1  C   UNL     1      43.213 -14.508   2.477  1.00  0.00     0.372 C 
ENDROOT
BRANCH   1   2
HETATM    2  C   UNL     1      42.700 -13.939   3.801  1.00  0.00     0.250 C 
HETATM    3  N   UNL     1      41.345 -13.694   3.792  1.00  0.00    -0.322 N 
HETATM    4  H   UNL     1      40.914 -13.710   2.872  1.00  0.00     0.169 HD
HETATM    5  O   UNL     1      43.467 -13.804   4.750  1.00  0.00    -0.271 OA
BRANCH   3   6
HETATM    6  C   UNL     1      40.553 -13.331   4.869  1.00  0.00     0.085 A 
HETATM    7  C   UNL     1      40.230 -14.218   5.880  1.00  0.00     0.052 A 
HETATM    8  C   UNL     1      40.544 -15.645   6.120  1.00  0.00     0.072 C 
HETATM    9  N   UNL     1      39.439 -13.522   6.748  1.00  0.00    -0.280 N 
HETATM   10  H   UNL     1      38.999 -13.856   7.599  1.00  0.00     0.189 HD
HETATM   11  N   UNL     1      39.252 -12.245   6.409  1.00  0.00    -0.177 NA
HETATM   12  C   UNL     1      39.934 -12.105   5.261  1.00  0.00     0.079 A 
HETATM   13  C   UNL     1      39.972 -10.758   4.638  1.00  0.00     0.075 C 
ENDBRANCH   3   6
ENDBRANCH   1   2
BRANCH   1  14
HETATM   14  N   UNL     1      43.594 -15.921   2.529  1.00  0.00     0.101 N 
HETATM   15  H   UNL     1      44.011 -16.148   1.625  1.00  0.00     0.317 HD
BRANCH  14  16
HETATM   16  C   UNL     1      42.570 -16.947   2.838  1.00  0.00     0.259 C 
BRANCH  16  17
HETATM   17  C   UNL     1      41.466 -17.287   1.768  1.00  0.00     0.015 C 
HETATM   18  C   UNL     1      40.098 -16.668   2.139  1.00  0.00     0.012 C 
HETATM   19  C   UNL     1      41.791 -16.766   0.357  1.00  0.00     0.012 C 
ENDBRANCH  16  17
BRANCH  16  20
HETATM   20  C   UNL     1      43.367 -18.206   3.235  1.00  0.00    -0.003 A 
HETATM   21  C   UNL     1      43.979 -18.368   4.491  1.00  0.00     0.042 A 
HETATM   22 CL   UNL     1      43.866 -17.185   5.742  1.00  0.00    -0.084 Cl
HETATM   23  C   UNL     1      44.712 -19.526   4.784  1.00  0.00     0.024 A 
HETATM   24  C   UNL     1      44.846 -20.540   3.836  1.00  0.00     0.002 A 
HETATM   25  C   UNL     1      44.247 -20.403   2.590  1.00  0.00     0.001 A 
HETATM   26  C   UNL     1      43.519 -19.249   2.292  1.00  0.00     0.011 A 
ENDBRANCH  16  20
ENDBRANCH  14  16
ENDBRANCH   1  14
TORSDOF 6
ENDMDL
MODEL 6
REMARK VINA RESULT:      -7.5      2.778      6.641
REMARK  6 active torsions:
REMARK  status: ('A' for Active; 'I' for Inactive)
REMARK    1  A    between atoms: C_8  and  N_9 
REMARK       I    between atoms: N_9  and  C_10 
REMARK    2  A    between atoms: C_10  and  C_11 
REMARK    3  A    between atoms: C_11  and  N_12 
REMARK    4  A    between atoms: N_12  and  C_13 
REMARK    5  A    between atoms: C_13  and  C_14 
REMARK    6  A    between atoms: C_13  and  C_17 
ROOT
HETATM    1  C   UNL     1      42.074 -17.310   1.041  1.00  0.00     0.372 C 
ENDROOT
BRANCH   1   2
HETATM    2  C   UNL     1      43.294 -17.932   1.721  1.00  0.00     0.250 C 
HETATM    3  N   UNL     1      42.967 -18.967   2.570  1.00  0.00    -0.322 N 
HETATM    4  H   UNL     1      41.980 -19.035   2.800  1.00  0.00     0.169 HD
HETATM    5  O   UNL     1      44.423 -17.539   1.438  1.00  0.00    -0.271 OA
BRANCH   3   6
HETATM    6  C   UNL     1      43.840 -19.831   3.209  1.00  0.00     0.085 A 
HETATM    7  C   UNL     1      44.176 -21.065   2.682  1.00  0.00     0.052 A 
HETATM    8  C   UNL     1      43.770 -21.793   1.459  1.00  0.00     0.072 C 
HETATM    9  N   UNL     1      45.034 -21.633   3.580  1.00  0.00    -0.280 N 
HETATM   10  H   UNL     1      45.472 -22.547   3.534  1.00  0.00     0.189 HD
HETATM   11  N   UNL     1      45.318 -20.856   4.627  1.00  0.00    -0.177 NA
HETATM   12  C   UNL     1      44.599 -19.742   4.416  1.00  0.00     0.079 A 
HETATM   13  C   UNL     1      44.737 -18.633   5.394  1.00  0.00     0.075 C 
ENDBRANCH   3   6
ENDBRANCH   1   2
BRANCH   1  14
HETATM   14  N   UNL     1      41.079 -16.757   1.963  1.00  0.00     0.101 N 
HETATM   15  H   UNL     1      40.190 -16.743   1.464  1.00  0.00     0.317 HD
BRANCH  14  16
HETATM   16  C   UNL     1      41.297 -15.418   2.561  1.00  0.00     0.259 C 
BRANCH  16  17
HETATM   17  C   UNL     1      40.154 -14.337   2.480  1.00  0.00     0.015 C 
HETATM   18  C   UNL     1      40.627 -13.057   1.753  1.00  0.00     0.012 C 
HETATM   19  C   UNL     1      38.906 -14.814   1.716  1.00  0.00     0.012 C 
ENDBRANCH  16  17
BRANCH  16  20
HETATM   20  C   UNL     1      41.702 -15.691   4.024  1.00  0.00    -0.003 A 
HETATM   21  C   UNL     1      42.728 -14.992   4.684  1.00  0.00     0.042 A 
HETATM   22 CL   UNL     1      43.620 -13.718   3.934  1.00  0.00    -0.084 Cl
HETATM   23  C   UNL     1      43.068 -15.303   6.007  1.00  0.00     0.024 A 
HETATM   24  C   UNL     1      42.392 -16.310   6.695  1.00  0.00     0.002 A 
HETATM   25  C   UNL     1      41.372 -17.012   6.064  1.00  0.00     0.001 A 
HETATM   26  C   UNL     1      41.033 -16.708   4.744  1.00  0.00     0.011 A 
ENDBRANCH  16  20
ENDBRANCH  14  16
ENDBRANCH   1  14
TORSDOF 6
ENDMDL
MODEL 7
REMARK VINA RESULT:      -7.5      1.614      2.079
REMARK  6 active torsions:
REMARK  status: ('A' for Active; 'I' for Inactive)
REMARK    1  A    between atoms: C_8  and  N_9 
REMARK       I    between atoms: N_9  and  C_10 
REMARK    2  A    between atoms: C_10  and  C_11 
REMARK    3  A    between atoms: C_11  and  N_12 
REMARK    4  A    between atoms: N_12  and  C_13 
REMARK    5  A    between atoms: C_13  and  C_14 
REMARK    6  A    between atoms: C_13  and  C_17 
ROOT
HETATM    1  C   UNL     1      41.030 -16.067   1.884  1.00  0.00     0.372 C 
ENDROOT
BRANCH   1   2
HETATM    2  C   UNL     1      41.477 -16.002   0.423  1.00  0.00     0.250 C 
HETATM    3  N   UNL     1      40.727 -15.126  -0.330  1.00  0.00    -0.322 N 
HETATM    4  H   UNL     1      39.865 -14.816   0.108  1.00  0.00     0.169 HD
HETATM    5  O   UNL     1      42.454 -16.646   0.050  1.00  0.00    -0.271 OA
BRANCH   3   6
HETATM    6  C   UNL     1      40.970 -14.723  -1.632  1.00  0.00     0.085 A 
HETATM    7  C   UNL     1      41.714 -13.596  -1.930  1.00  0.00     0.052 A 
HETATM    8  C   UNL     1      42.386 -12.572  -1.099  1.00  0.00     0.072 C 
HETATM    9  N   UNL     1      41.730 -13.509  -3.293  1.00  0.00    -0.280 N 
HETATM   10  H   UNL     1      42.167 -12.797  -3.868  1.00  0.00     0.189 HD
HETATM   11  N   UNL     1      41.095 -14.507  -3.909  1.00  0.00    -0.177 NA
HETATM   12  C   UNL     1      40.625 -15.268  -2.907  1.00  0.00     0.079 A 
HETATM   13  C   UNL     1      39.901 -16.514  -3.265  1.00  0.00     0.075 C 
ENDBRANCH   3   6
ENDBRANCH   1   2
BRANCH   1  14
HETATM   14  N   UNL     1      41.394 -17.306   2.577  1.00  0.00     0.101 N 
HETATM   15  H   UNL     1      40.564 -17.614   3.085  1.00  0.00     0.317 HD
BRANCH  14  16
HETATM   16  C   UNL     1      42.541 -17.312   3.516  1.00  0.00     0.259 C 
BRANCH  16  17
HETATM   17  C   UNL     1      42.288 -17.070   5.052  1.00  0.00     0.015 C 
HETATM   18  C   UNL     1      42.432 -15.577   5.428  1.00  0.00     0.012 C 
HETATM   19  C   UNL     1      40.881 -17.484   5.519  1.00  0.00     0.012 C 
ENDBRANCH  16  17
BRANCH  16  20
HETATM   20  C   UNL     1      43.253 -18.658   3.274  1.00  0.00    -0.003 A 
HETATM   21  C   UNL     1      44.268 -19.155   4.110  1.00  0.00     0.042 A 
HETATM   22 CL   UNL     1      44.799 -18.325   5.527  1.00  0.00    -0.084 Cl
HETATM   23  C   UNL     1      44.895 -20.375   3.823  1.00  0.00     0.024 A 
HETATM   24  C   UNL     1      44.523 -21.120   2.705  1.00  0.00     0.002 A 
HETATM   25  C   UNL     1      43.520 -20.649   1.866  1.00  0.00     0.001 A 
HETATM   26  C   UNL     1      42.894 -19.432   2.146  1.00  0.00     0.011 A 
ENDBRANCH  16  20
ENDBRANCH  14  16
ENDBRANCH   1  14
TORSDOF 6
ENDMDL
MODEL 8
REMARK VINA RESULT:      -7.5      2.112      2.757
REMARK  6 active torsions:
REMARK  status: ('A' for Active; 'I' for Inactive)
REMARK    1  A    between atoms: C_8  and  N_9 
REMARK       I    between atoms: N_9  and  C_10 
REMARK    2  A    between atoms: C_10  and  C_11 
REMARK    3  A    between atoms: C_11  and  N_12 
REMARK    4  A    between atoms: N_12  and  C_13 
REMARK    5  A    between atoms: C_13  and  C_14 
REMARK    6  A    between atoms: C_13  and  C_17 
ROOT
HETATM    1  C   UNL     1      40.371 -16.939   2.177  1.00  0.00     0.372 C 
ENDROOT
BRANCH   1   2
HETATM    2  C   UNL     1      40.222 -15.665   1.345  1.00  0.00     0.250 C 
HETATM    3  N   UNL     1      41.183 -15.547   0.364  1.00  0.00    -0.322 N 
HETATM    4  H   UNL     1      41.970 -16.183   0.459  1.00  0.00     0.169 HD
HETATM    5  O   UNL     1      39.279 -14.904   1.547  1.00  0.00    -0.271 OA
BRANCH   3   6
HETATM    6  C   UNL     1      41.235 -14.603  -0.647  1.00  0.00     0.085 A 
HETATM    7  C   UNL     1      41.610 -13.292  -0.415  1.00  0.00     0.052 A 
HETATM    8  C   UNL     1      42.001 -12.546   0.802  1.00  0.00     0.072 C 
HETATM    9  N   UNL     1      41.533 -12.663  -1.625  1.00  0.00    -0.280 N 
HETATM   10  H   UNL     1      41.718 -11.688  -1.835  1.00  0.00     0.189 HD
HETATM   11  N   UNL     1      41.180 -13.462  -2.633  1.00  0.00    -0.177 NA
HETATM   12  C   UNL     1      40.998 -14.661  -2.055  1.00  0.00     0.079 A 
HETATM   13  C   UNL     1      40.643 -15.805  -2.932  1.00  0.00     0.075 C 
ENDBRANCH   3   6
ENDBRANCH   1   2
BRANCH   1  14
HETATM   14  N   UNL     1      41.047 -16.750   3.463  1.00  0.00     0.101 N 
HETATM   15  H   UNL     1      40.524 -16.034   3.968  1.00  0.00     0.317 HD
BRANCH  14  16
HETATM   16  C   UNL     1      42.483 -16.383   3.490  1.00  0.00     0.259 C 
BRANCH  16  17
HETATM   17  C   UNL     1      42.993 -15.328   4.543  1.00  0.00     0.015 C 
HETATM   18  C   UNL     1      43.584 -14.074   3.856  1.00  0.00     0.012 C 
HETATM   19  C   UNL     1      41.891 -14.809   5.482  1.00  0.00     0.012 C 
ENDBRANCH  16  17
BRANCH  16  20
HETATM   20  C   UNL     1      43.238 -17.720   3.631  1.00  0.00    -0.003 A 
HETATM   21  C   UNL     1      43.802 -18.406   2.541  1.00  0.00     0.042 A 
HETATM   22 CL   UNL     1      43.744 -17.800   0.926  1.00  0.00    -0.084 Cl
HETATM   23  C   UNL     1      44.455 -19.631   2.730  1.00  0.00     0.024 A 
HETATM   24  C   UNL     1      44.561 -20.191   4.003  1.00  0.00     0.002 A 
HETATM   25  C   UNL     1      44.014 -19.529   5.094  1.00  0.00     0.001 A 
HETATM   26  C   UNL     1      43.358 -18.310   4.911  1.00  0.00     0.011 A 
ENDBRANCH  16  20
ENDBRANCH  14  16
ENDBRANCH   1  14
TORSDOF 6
ENDMDL
MODEL 9
REMARK VINA RESULT:      -7.4      2.569      3.639
REMARK  6 active torsions:
REMARK  status: ('A' for Active; 'I' for Inactive)
REMARK    1  A    between atoms: C_8  and  N_9 
REMARK       I    between atoms: N_9  and  C_10 
REMARK    2  A    between atoms: C_10  and  C_11 
REMARK    3  A    between atoms: C_11  and  N_12 
REMARK    4  A    between atoms: N_12  and  C_13 
REMARK    5  A    between atoms: C_13  and  C_14 
REMARK    6  A    between atoms: C_13  and  C_17 
ROOT
HETATM    1  C   UNL     1      43.425 -14.658   3.254  1.00  0.00     0.372 C 
ENDROOT
BRANCH   1   2
HETATM    2  C   UNL     1      42.360 -13.713   2.696  1.00  0.00     0.250 C 
HETATM    3  N   UNL     1      41.148 -13.828   3.342  1.00  0.00    -0.322 N 
HETATM    4  H   UNL     1      41.055 -14.650   3.932  1.00  0.00     0.169 HD
HETATM    5  O   UNL     1      42.649 -12.917   1.807  1.00  0.00    -0.271 OA
BRANCH   3   6
HETATM    6  C   UNL     1      40.038 -13.016   3.186  1.00  0.00     0.085 A 
HETATM    7  C   UNL     1      39.546 -12.232   4.214  1.00  0.00     0.052 A 
HETATM    8  C   UNL     1      39.952 -12.031   5.624  1.00  0.00     0.072 C 
HETATM    9  N   UNL     1      38.455 -11.589   3.705  1.00  0.00    -0.280 N 
HETATM   10  H   UNL     1      37.831 -10.944   4.178  1.00  0.00     0.189 HD
HETATM   11  N   UNL     1      38.218 -11.856   2.419  1.00  0.00    -0.177 NA
HETATM   12  C   UNL     1      39.183 -12.726   2.079  1.00  0.00     0.079 A 
HETATM   13  C   UNL     1      39.233 -13.189   0.669  1.00  0.00     0.075 C 
ENDBRANCH   3   6
ENDBRANCH   1   2
BRANCH   1  14
HETATM   14  N   UNL     1      43.545 -15.931   2.537  1.00  0.00     0.101 N 
HETATM   15  H   UNL     1      43.590 -15.706   1.543  1.00  0.00     0.317 HD
BRANCH  14  16
HETATM   16  C   UNL     1      42.516 -16.981   2.729  1.00  0.00     0.259 C 
BRANCH  16  17
HETATM   17  C   UNL     1      41.463 -17.251   1.589  1.00  0.00     0.015 C 
HETATM   18  C   UNL     1      40.033 -16.858   2.026  1.00  0.00     0.012 C 
HETATM   19  C   UNL     1      41.736 -16.464   0.296  1.00  0.00     0.012 C 
ENDBRANCH  16  17
BRANCH  16  20
HETATM   20  C   UNL     1      43.304 -18.260   3.074  1.00  0.00    -0.003 A 
HETATM   21  C   UNL     1      43.903 -18.484   4.326  1.00  0.00     0.042 A 
HETATM   22 CL   UNL     1      43.782 -17.360   5.631  1.00  0.00    -0.084 Cl
HETATM   23  C   UNL     1      44.629 -19.657   4.571  1.00  0.00     0.024 A 
HETATM   24  C   UNL     1      44.769 -20.626   3.578  1.00  0.00     0.002 A 
HETATM   25  C   UNL     1      44.183 -20.427   2.334  1.00  0.00     0.001 A 
HETATM   26  C   UNL     1      43.462 -19.257   2.084  1.00  0.00     0.011 A 
ENDBRANCH  16  20
ENDBRANCH  14  16
ENDBRANCH   1  14
TORSDOF 6
ENDMDL
MODEL 10
REMARK VINA RESULT:      -7.3      2.944      6.476
REMARK  6 active torsions:
REMARK  status: ('A' for Active; 'I' for Inactive)
REMARK    1  A    between atoms: C_8  and  N_9 
REMARK       I    between atoms: N_9  and  C_10 
REMARK    2  A    between atoms: C_10  and  C_11 
REMARK    3  A    between atoms: C_11  and  N_12 
REMARK    4  A    between atoms: N_12  and  C_13 
REMARK    5  A    between atoms: C_13  and  C_14 
REMARK    6  A    between atoms: C_13  and  C_17 
ROOT
HETATM    1  C   UNL     1      43.937 -16.952   1.722  1.00  0.00     0.372 C 
ENDROOT
BRANCH   1   2
HETATM    2  C   UNL     1      43.609 -18.392   2.119  1.00  0.00     0.250 C 
HETATM    3  N   UNL     1      44.641 -19.014   2.787  1.00  0.00    -0.322 N 
HETATM    4  H   UNL     1      45.535 -18.533   2.736  1.00  0.00     0.169 HD
HETATM    5  O   UNL     1      42.496 -18.856   1.888  1.00  0.00    -0.271 OA
BRANCH   3   6
HETATM    6  C   UNL     1      44.609 -20.248   3.413  1.00  0.00     0.085 A 
HETATM    7  C   UNL     1      44.637 -20.380   4.789  1.00  0.00     0.052 A 
HETATM    8  C   UNL     1      44.721 -19.408   5.903  1.00  0.00     0.072 C 
HETATM    9  N   UNL     1      44.604 -21.723   5.037  1.00  0.00    -0.280 N 
HETATM   10  H   UNL     1      44.629 -22.194   5.934  1.00  0.00     0.189 HD
HETATM   11  N   UNL     1      44.516 -22.476   3.939  1.00  0.00    -0.177 NA
HETATM   12  C   UNL     1      44.511 -21.589   2.930  1.00  0.00     0.079 A 
HETATM   13  C   UNL     1      44.365 -22.113   1.548  1.00  0.00     0.075 C 
ENDBRANCH   3   6
ENDBRANCH   1   2
BRANCH   1  14
HETATM   14  N   UNL     1      42.997 -15.951   2.232  1.00  0.00     0.101 N 
HETATM   15  H   UNL     1      42.760 -15.342   1.448  1.00  0.00     0.317 HD
BRANCH  14  16
HETATM   16  C   UNL     1      43.384 -15.099   3.382  1.00  0.00     0.259 C 
BRANCH  16  17
HETATM   17  C   UNL     1      43.030 -13.564   3.362  1.00  0.00     0.015 C 
HETATM   18  C   UNL     1      42.263 -13.169   2.079  1.00  0.00     0.012 C 
HETATM   19  C   UNL     1      42.138 -13.121   4.535  1.00  0.00     0.012 C 
ENDBRANCH  16  17
BRANCH  16  20
HETATM   20  C   UNL     1      42.782 -15.794   4.619  1.00  0.00    -0.003 A 
HETATM   21  C   UNL     1      43.364 -15.733   5.898  1.00  0.00     0.042 A 
HETATM   22 CL   UNL     1      44.800 -14.833   6.226  1.00  0.00    -0.084 Cl
HETATM   23  C   UNL     1      42.783 -16.407   6.980  1.00  0.00     0.024 A 
HETATM   24  C   UNL     1      41.615 -17.149   6.809  1.00  0.00     0.002 A 
HETATM   25  C   UNL     1      41.021 -17.221   5.555  1.00  0.00     0.001 A 
HETATM   26  C   UNL     1      41.599 -16.554   4.473  1.00  0.00     0.011 A 
ENDBRANCH  16  20
ENDBRANCH  14  16
ENDBRANCH   1  14
TORSDOF 6
ENDMDL
