MODEL 1
REMARK VINA RESULT:      -7.5      0.000      0.000
REMARK  11 active torsions:
REMARK  status: ('A' for Active; 'I' for Inactive)
REMARK    1  A    between atoms: C_2  and  N_3 
REMARK    2  A    between atoms: N_3  and  C_5 
REMARK    3  A    between atoms: N_3  and  C_32 
REMARK    4  A    between atoms: C_5  and  C_6 
REMARK    5  A    between atoms: N_7  and  C_8 
REMARK    6  A    between atoms: C_12  and  N_13 
REMARK    7  A    between atoms: C_16  and  C_17 
REMARK       I    between atoms: C_17  and  N_18 
REMARK    8  A    between atoms: N_18  and  N_19 
REMARK    9  A    between atoms: C_20  and  C_21 
REMARK   10  A    between atoms: C_25  and  O_26 
REMARK   11  A    between atoms: C_27  and  O_28 
ROOT
HETATM    1  C   UNL     1      41.332 -10.798   9.085  1.00  0.00     0.096 A 
HETATM    2  N   UNL     1      40.445 -10.516  10.120  1.00  0.00    -0.215 N 
HETATM    3  N   UNL     1      39.181 -10.509   9.621  1.00  0.00     0.012 NA
HETATM    4  N   UNL     1      39.212 -10.869   8.348  1.00  0.00    -0.152 NA
HETATM    5  C   UNL     1      40.515 -11.062   7.994  1.00  0.00     0.170 A 
ENDROOT
BRANCH   5   6
HETATM    6  C   UNL     1      40.943 -11.484   6.667  1.00  0.00     0.293 C 
HETATM    7  N   UNL     1      41.115 -12.849   6.535  1.00  0.00    -0.242 N 
HETATM    8  H   UNL     1      40.941 -13.470   7.322  1.00  0.00     0.192 HD
HETATM    9  O   UNL     1      41.145 -10.646   5.792  1.00  0.00    -0.264 OA
BRANCH   7  10
HETATM   10  N   UNL     1      41.485 -13.356   5.328  1.00  0.00    -0.184 NA
HETATM   11  C   UNL     1      41.690 -14.633   5.277  1.00  0.00     0.150 C 
BRANCH  11  12
HETATM   12  C   UNL     1      42.076 -15.291   4.011  1.00  0.00    -0.013 A 
HETATM   13  C   UNL     1      42.699 -16.542   4.029  1.00  0.00     0.035 A 
HETATM   14  C   UNL     1      43.066 -17.140   2.827  1.00  0.00     0.047 A 
HETATM   15 BR   UNL     1      43.919 -18.832   2.870  1.00  0.00    -0.048 Br
HETATM   16  C   UNL     1      42.810 -16.494   1.614  1.00  0.00     0.116 A 
HETATM   17  C   UNL     1      42.177 -15.240   1.591  1.00  0.00     0.103 A 
HETATM   18  C   UNL     1      41.815 -14.637   2.799  1.00  0.00     0.052 A 
BRANCH  16  19
HETATM   19  O   UNL     1      43.167 -17.071   0.421  1.00  0.00    -0.357 OA
HETATM   20  H   UNL     1      43.723 -17.847   0.612  1.00  0.00     0.218 HD
ENDBRANCH  16  19
BRANCH  17  21
HETATM   21  O   UNL     1      41.971 -14.696   0.351  1.00  0.00    -0.353 OA
HETATM   22  C   UNL     1      41.249 -13.476   0.268  1.00  0.00     0.210 C 
ENDBRANCH  17  21
ENDBRANCH  11  12
ENDBRANCH   7  10
ENDBRANCH   5   6
BRANCH   1  23
HETATM   23  C   UNL     1      42.812 -10.716   9.166  1.00  0.00     0.296 C 
BRANCH  23  24
HETATM   24  N   UNL     1      43.540 -12.015   9.466  1.00  0.00    -0.066 N 
HETATM   25  H   UNL     1      42.858 -12.773   9.315  1.00  0.00     0.280 HD
BRANCH  24  26
HETATM   26  C   UNL     1      43.966 -12.074  10.929  1.00  0.00     0.231 C 
HETATM   27  C   UNL     1      44.472 -10.727  11.414  1.00  0.00     0.034 C 
ENDBRANCH  24  26
BRANCH  24  28
HETATM   28  C   UNL     1      44.726 -12.245   8.541  1.00  0.00     0.231 C 
HETATM   29  C   UNL     1      44.563 -13.536   7.754  1.00  0.00     0.034 C 
ENDBRANCH  24  28
ENDBRANCH  23  24
ENDBRANCH   1  23
BRANCH   2  30
HETATM   30  C   UNL     1      40.724 -10.318  11.494  1.00  0.00     0.225 A 
HETATM   31  N   UNL     1      41.358  -9.211  11.890  1.00  0.00    -0.081 NA
HETATM   32  O   UNL     1      41.471  -9.376  13.274  1.00  0.00    -0.103 OA
HETATM   33  N   UNL     1      40.928 -10.585  13.681  1.00  0.00    -0.083 NA
HETATM   34  C   UNL     1      40.468 -11.172  12.579  1.00  0.00     0.201 A 
BRANCH  34  35
HETATM   35  N   UNL     1      39.861 -12.368  12.549  1.00  0.00    -0.379 N 
HETATM   36  H   UNL     1      39.019 -12.531  13.094  1.00  0.00     0.158 HD
HETATM   37  H   UNL     1      40.271 -13.205  12.140  1.00  0.00     0.158 HD
ENDBRANCH  34  35
ENDBRANCH   2  30
TORSDOF 11
ENDMDL
MODEL 2
REMARK VINA RESULT:      -7.5      7.685     11.028
REMARK  11 active torsions:
REMARK  status: ('A' for Active; 'I' for Inactive)
REMARK    1  A    between atoms: C_2  and  N_3 
REMARK    2  A    between atoms: N_3  and  C_5 
REMARK    3  A    between atoms: N_3  and  C_32 
REMARK    4  A    between atoms: C_5  and  C_6 
REMARK    5  A    between atoms: N_7  and  C_8 
REMARK    6  A    between atoms: C_12  and  N_13 
REMARK    7  A    between atoms: C_16  and  C_17 
REMARK       I    between atoms: C_17  and  N_18 
REMARK    8  A    between atoms: N_18  and  N_19 
REMARK    9  A    between atoms: C_20  and  C_21 
REMARK   10  A    between atoms: C_25  and  O_26 
REMARK   11  A    between atoms: C_27  and  O_28 
ROOT
HETATM    1  C   UNL     1      39.344 -14.312  -1.794  1.00  0.00     0.096 A 
HETATM    2  N   UNL     1      39.026 -14.249  -3.147  1.00  0.00    -0.215 N 
HETATM    3  N   UNL     1      40.162 -14.432  -3.871  1.00  0.00     0.012 NA
HETATM    4  N   UNL     1      41.163 -14.707  -3.050  1.00  0.00    -0.152 NA
HETATM    5  C   UNL     1      40.691 -14.650  -1.772  1.00  0.00     0.170 A 
ENDROOT
BRANCH   5   6
HETATM    6  C   UNL     1      41.503 -14.914  -0.592  1.00  0.00     0.293 C 
HETATM    7  N   UNL     1      41.720 -16.255  -0.342  1.00  0.00    -0.242 N 
HETATM    8  H   UNL     1      41.331 -16.965  -0.959  1.00  0.00     0.192 HD
HETATM    9  O   UNL     1      41.906 -13.980   0.097  1.00  0.00    -0.264 OA
BRANCH   7  10
HETATM   10  N   UNL     1      42.492 -16.615   0.719  1.00  0.00    -0.184 NA
HETATM   11  C   UNL     1      42.057 -17.598   1.441  1.00  0.00     0.150 C 
BRANCH  11  12
HETATM   12  C   UNL     1      42.828 -18.084   2.605  1.00  0.00    -0.013 A 
HETATM   13  C   UNL     1      42.960 -17.283   3.744  1.00  0.00     0.035 A 
HETATM   14  C   UNL     1      43.700 -17.752   4.826  1.00  0.00     0.047 A 
HETATM   15 BR   UNL     1      43.878 -16.650   6.358  1.00  0.00    -0.048 Br
HETATM   16  C   UNL     1      44.301 -19.013   4.772  1.00  0.00     0.116 A 
HETATM   17  C   UNL     1      44.164 -19.823   3.634  1.00  0.00     0.103 A 
HETATM   18  C   UNL     1      43.426 -19.349   2.544  1.00  0.00     0.052 A 
BRANCH  16  19
HETATM   19  O   UNL     1      45.033 -19.487   5.831  1.00  0.00    -0.357 OA
HETATM   20  H   UNL     1      45.356 -18.726   6.346  1.00  0.00     0.218 HD
ENDBRANCH  16  19
BRANCH  17  21
HETATM   21  O   UNL     1      44.789 -21.040   3.685  1.00  0.00    -0.353 OA
HETATM   22  C   UNL     1      44.455 -22.006   2.699  1.00  0.00     0.210 C 
ENDBRANCH  17  21
ENDBRANCH  11  12
ENDBRANCH   7  10
ENDBRANCH   5   6
BRANCH   1  23
HETATM   23  C   UNL     1      38.429 -13.979  -0.673  1.00  0.00     0.296 C 
BRANCH  23  24
HETATM   24  N   UNL     1      38.907 -12.900   0.284  1.00  0.00    -0.066 N 
HETATM   25  H   UNL     1      39.884 -12.695   0.027  1.00  0.00     0.280 HD
BRANCH  24  26
HETATM   26  C   UNL     1      38.914 -13.409   1.720  1.00  0.00     0.231 C 
HETATM   27  C   UNL     1      38.790 -14.922   1.774  1.00  0.00     0.034 C 
ENDBRANCH  24  26
BRANCH  24  28
HETATM   28  C   UNL     1      38.099 -11.616   0.162  1.00  0.00     0.231 C 
HETATM   29  C   UNL     1      36.610 -11.893   0.297  1.00  0.00     0.034 C 
ENDBRANCH  24  28
ENDBRANCH  23  24
ENDBRANCH   1  23
BRANCH   2  30
HETATM   30  C   UNL     1      37.756 -14.086  -3.751  1.00  0.00     0.225 A 
HETATM   31  N   UNL     1      37.169 -15.123  -4.355  1.00  0.00    -0.081 NA
HETATM   32  O   UNL     1      35.971 -14.587  -4.837  1.00  0.00    -0.103 OA
HETATM   33  N   UNL     1      35.870 -13.237  -4.539  1.00  0.00    -0.083 NA
HETATM   34  C   UNL     1      36.976 -12.924  -3.868  1.00  0.00     0.201 A 
BRANCH  34  35
HETATM   35  N   UNL     1      37.260 -11.701  -3.394  1.00  0.00    -0.379 N 
HETATM   36  H   UNL     1      38.050 -11.563  -2.769  1.00  0.00     0.158 HD
HETATM   37  H   UNL     1      36.640 -10.899  -3.479  1.00  0.00     0.158 HD
ENDBRANCH  34  35
ENDBRANCH   2  30
TORSDOF 11
ENDMDL
MODEL 3
REMARK VINA RESULT:      -7.4      1.254      2.039
REMARK  11 active torsions:
REMARK  status: ('A' for Active; 'I' for Inactive)
REMARK    1  A    between atoms: C_2  and  N_3 
REMARK    2  A    between atoms: N_3  and  C_5 
REMARK    3  A    between atoms: N_3  and  C_32 
REMARK    4  A    between atoms: C_5  and  C_6 
REMARK    5  A    between atoms: N_7  and  C_8 
REMARK    6  A    between atoms: C_12  and  N_13 
REMARK    7  A    between atoms: C_16  and  C_17 
REMARK       I    between atoms: C_17  and  N_18 
REMARK    8  A    between atoms: N_18  and  N_19 
REMARK    9  A    between atoms: C_20  and  C_21 
REMARK   10  A    between atoms: C_25  and  O_26 
REMARK   11  A    between atoms: C_27  and  O_28 
ROOT
HETATM    1  C   UNL     1      41.228 -10.657   8.928  1.00  0.00     0.096 A 
HETATM    2  N   UNL     1      40.242 -10.352   9.861  1.00  0.00    -0.215 N 
HETATM    3  N   UNL     1      39.029 -10.416   9.250  1.00  0.00     0.012 NA
HETATM    4  N   UNL     1      39.188 -10.843   8.008  1.00  0.00    -0.152 NA
HETATM    5  C   UNL     1      40.523 -11.007   7.784  1.00  0.00     0.170 A 
ENDROOT
BRANCH   5   6
HETATM    6  C   UNL     1      41.084 -11.485   6.527  1.00  0.00     0.293 C 
HETATM    7  N   UNL     1      41.438 -12.821   6.535  1.00  0.00    -0.242 N 
HETATM    8  H   UNL     1      41.297 -13.387   7.369  1.00  0.00     0.192 HD
HETATM    9  O   UNL     1      41.230 -10.708   5.586  1.00  0.00    -0.264 OA
BRANCH   7  10
HETATM   10  N   UNL     1      41.945 -13.378   5.403  1.00  0.00    -0.184 NA
HETATM   11  C   UNL     1      41.530 -14.570   5.112  1.00  0.00     0.150 C 
BRANCH  11  12
HETATM   12  C   UNL     1      42.001 -15.261   3.893  1.00  0.00    -0.013 A 
HETATM   13  C   UNL     1      41.558 -14.845   2.633  1.00  0.00     0.035 A 
HETATM   14  C   UNL     1      42.002 -15.516   1.497  1.00  0.00     0.047 A 
HETATM   15 BR   UNL     1      41.382 -14.947  -0.201  1.00  0.00    -0.048 Br
HETATM   16  C   UNL     1      42.886 -16.592   1.618  1.00  0.00     0.116 A 
HETATM   17  C   UNL     1      43.340 -17.007   2.880  1.00  0.00     0.103 A 
HETATM   18  C   UNL     1      42.888 -16.338   4.022  1.00  0.00     0.052 A 
BRANCH  16  19
HETATM   19  O   UNL     1      43.332 -17.262   0.506  1.00  0.00    -0.357 OA
HETATM   20  H   UNL     1      44.273 -17.475   0.635  1.00  0.00     0.218 HD
ENDBRANCH  16  19
BRANCH  17  21
HETATM   21  O   UNL     1      44.206 -18.069   2.886  1.00  0.00    -0.353 OA
HETATM   22  C   UNL     1      43.942 -19.141   3.779  1.00  0.00     0.210 C 
ENDBRANCH  17  21
ENDBRANCH  11  12
ENDBRANCH   7  10
ENDBRANCH   5   6
BRANCH   1  23
HETATM   23  C   UNL     1      42.692 -10.518   9.136  1.00  0.00     0.296 C 
BRANCH  23  24
HETATM   24  N   UNL     1      43.428 -11.774   9.570  1.00  0.00    -0.066 N 
HETATM   25  H   UNL     1      42.811 -12.568   9.342  1.00  0.00     0.280 HD
BRANCH  24  26
HETATM   26  C   UNL     1      43.643 -11.786  11.079  1.00  0.00     0.231 C 
HETATM   27  C   UNL     1      44.045 -10.414  11.593  1.00  0.00     0.034 C 
ENDBRANCH  24  26
BRANCH  24  28
HETATM   28  C   UNL     1      44.744 -11.962   8.829  1.00  0.00     0.231 C 
HETATM   29  C   UNL     1      44.738 -13.252   8.023  1.00  0.00     0.034 C 
ENDBRANCH  24  28
ENDBRANCH  23  24
ENDBRANCH   1  23
BRANCH   2  30
HETATM   30  C   UNL     1      40.387 -10.071  11.240  1.00  0.00     0.225 A 
HETATM   31  N   UNL     1      40.725  -8.840  11.636  1.00  0.00    -0.081 NA
HETATM   32  O   UNL     1      40.792  -8.950  13.029  1.00  0.00    -0.103 OA
HETATM   33  N   UNL     1      40.520 -10.245  13.443  1.00  0.00    -0.083 NA
HETATM   34  C   UNL     1      40.272 -10.942  12.336  1.00  0.00     0.201 A 
BRANCH  34  35
HETATM   35  N   UNL     1      39.960 -12.246  12.310  1.00  0.00    -0.379 N 
HETATM   36  H   UNL     1      39.663 -12.720  13.160  1.00  0.00     0.158 HD
HETATM   37  H   UNL     1      40.153 -12.864  11.524  1.00  0.00     0.158 HD
ENDBRANCH  34  35
ENDBRANCH   2  30
TORSDOF 11
ENDMDL
MODEL 4
REMARK VINA RESULT:      -7.2      7.772     10.257
REMARK  11 active torsions:
REMARK  status: ('A' for Active; 'I' for Inactive)
REMARK    1  A    between atoms: C_2  and  N_3 
REMARK    2  A    between atoms: N_3  and  C_5 
REMARK    3  A    between atoms: N_3  and  C_32 
REMARK    4  A    between atoms: C_5  and  C_6 
REMARK    5  A    between atoms: N_7  and  C_8 
REMARK    6  A    between atoms: C_12  and  N_13 
REMARK    7  A    between atoms: C_16  and  C_17 
REMARK       I    between atoms: C_17  and  N_18 
REMARK    8  A    between atoms: N_18  and  N_19 
REMARK    9  A    between atoms: C_20  and  C_21 
REMARK   10  A    between atoms: C_25  and  O_26 
REMARK   11  A    between atoms: C_27  and  O_28 
ROOT
HETATM    1  C   UNL     1      39.891 -13.508  -0.328  1.00  0.00     0.096 A 
HETATM    2  N   UNL     1      38.855 -12.829  -0.961  1.00  0.00    -0.215 N 
HETATM    3  N   UNL     1      37.673 -13.245  -0.433  1.00  0.00     0.012 NA
HETATM    4  N   UNL     1      37.911 -14.076   0.569  1.00  0.00    -0.152 NA
HETATM    5  C   UNL     1      39.261 -14.250   0.663  1.00  0.00     0.170 A 
ENDROOT
BRANCH   5   6
HETATM    6  C   UNL     1      39.905 -15.088   1.666  1.00  0.00     0.293 C 
HETATM    7  N   UNL     1      40.362 -16.299   1.183  1.00  0.00    -0.242 N 
HETATM    8  H   UNL     1      40.241 -16.543   0.203  1.00  0.00     0.192 HD
HETATM    9  O   UNL     1      39.978 -14.704   2.831  1.00  0.00    -0.264 OA
BRANCH   7  10
HETATM   10  N   UNL     1      41.007 -17.148   2.029  1.00  0.00    -0.184 NA
HETATM   11  C   UNL     1      42.257 -17.373   1.778  1.00  0.00     0.150 C 
BRANCH  11  12
HETATM   12  C   UNL     1      43.057 -18.262   2.646  1.00  0.00    -0.013 A 
HETATM   13  C   UNL     1      43.458 -17.832   3.914  1.00  0.00     0.035 A 
HETATM   14  C   UNL     1      44.223 -18.679   4.712  1.00  0.00     0.047 A 
HETATM   15 BR   UNL     1      44.766 -18.076   6.425  1.00  0.00    -0.048 Br
HETATM   16  C   UNL     1      44.581 -19.947   4.248  1.00  0.00     0.116 A 
HETATM   17  C   UNL     1      44.174 -20.386   2.978  1.00  0.00     0.103 A 
HETATM   18  C   UNL     1      43.412 -19.533   2.173  1.00  0.00     0.052 A 
BRANCH  16  19
HETATM   19  O   UNL     1      45.334 -20.792   5.024  1.00  0.00    -0.357 OA
HETATM   20  H   UNL     1      44.731 -21.383   5.508  1.00  0.00     0.218 HD
ENDBRANCH  16  19
BRANCH  17  21
HETATM   21  O   UNL     1      44.577 -21.646   2.621  1.00  0.00    -0.353 OA
HETATM   22  C   UNL     1      44.143 -22.157   1.369  1.00  0.00     0.210 C 
ENDBRANCH  17  21
ENDBRANCH  11  12
ENDBRANCH   7  10
ENDBRANCH   5   6
BRANCH   1  23
HETATM   23  C   UNL     1      41.319 -13.485  -0.734  1.00  0.00     0.296 C 
BRANCH  23  24
HETATM   24  N   UNL     1      41.698 -14.381  -1.901  1.00  0.00    -0.066 N 
HETATM   25  H   UNL     1      42.625 -14.773  -1.679  1.00  0.00     0.280 HD
BRANCH  24  26
HETATM   26  C   UNL     1      41.844 -13.570  -3.184  1.00  0.00     0.231 C 
HETATM   27  C   UNL     1      42.540 -12.245  -2.927  1.00  0.00     0.034 C 
ENDBRANCH  24  26
BRANCH  24  28
HETATM   28  C   UNL     1      40.722 -15.533  -2.091  1.00  0.00     0.231 C 
HETATM   29  C   UNL     1      40.183 -15.564  -3.513  1.00  0.00     0.034 C 
ENDBRANCH  24  28
ENDBRANCH  23  24
ENDBRANCH   1  23
BRANCH   2  30
HETATM   30  C   UNL     1      38.934 -11.821  -1.952  1.00  0.00     0.225 A 
HETATM   31  N   UNL     1      39.480 -10.638  -1.653  1.00  0.00    -0.081 NA
HETATM   32  O   UNL     1      39.365  -9.914  -2.844  1.00  0.00    -0.103 OA
HETATM   33  N   UNL     1      38.731 -10.661  -3.826  1.00  0.00    -0.083 NA
HETATM   34  C   UNL     1      38.461 -11.841  -3.273  1.00  0.00     0.201 A 
BRANCH  34  35
HETATM   35  N   UNL     1      37.849 -12.855  -3.904  1.00  0.00    -0.379 N 
HETATM   36  H   UNL     1      38.035 -13.817  -3.631  1.00  0.00     0.158 HD
HETATM   37  H   UNL     1      37.318 -12.753  -4.766  1.00  0.00     0.158 HD
ENDBRANCH  34  35
ENDBRANCH   2  30
TORSDOF 11
ENDMDL
MODEL 5
REMARK VINA RESULT:      -7.2      6.063      8.155
REMARK  11 active torsions:
REMARK  status: ('A' for Active; 'I' for Inactive)
REMARK    1  A    between atoms: C_2  and  N_3 
REMARK    2  A    between atoms: N_3  and  C_5 
REMARK    3  A    between atoms: N_3  and  C_32 
REMARK    4  A    between atoms: C_5  and  C_6 
REMARK    5  A    between atoms: N_7  and  C_8 
REMARK    6  A    between atoms: C_12  and  N_13 
REMARK    7  A    between atoms: C_16  and  C_17 
REMARK       I    between atoms: C_17  and  N_18 
REMARK    8  A    between atoms: N_18  and  N_19 
REMARK    9  A    between atoms: C_20  and  C_21 
REMARK   10  A    between atoms: C_25  and  O_26 
REMARK   11  A    between atoms: C_27  and  O_28 
ROOT
HETATM    1  C   UNL     1      42.508 -16.928   4.564  1.00  0.00     0.096 A 
HETATM    2  N   UNL     1      43.159 -17.077   5.785  1.00  0.00    -0.215 N 
HETATM    3  N   UNL     1      43.419 -15.844   6.294  1.00  0.00     0.012 NA
HETATM    4  N   UNL     1      42.879 -14.925   5.509  1.00  0.00    -0.152 NA
HETATM    5  C   UNL     1      42.306 -15.559   4.446  1.00  0.00     0.170 A 
ENDROOT
BRANCH   5   6
HETATM    6  C   UNL     1      41.597 -14.873   3.375  1.00  0.00     0.293 C 
HETATM    7  N   UNL     1      42.414 -14.398   2.367  1.00  0.00    -0.242 N 
HETATM    8  H   UNL     1      43.420 -14.542   2.407  1.00  0.00     0.192 HD
HETATM    9  O   UNL     1      40.377 -14.736   3.437  1.00  0.00    -0.264 OA
BRANCH   7  10
HETATM   10  N   UNL     1      41.851 -13.767   1.301  1.00  0.00    -0.184 NA
HETATM   11  C   UNL     1      41.686 -14.477   0.231  1.00  0.00     0.150 C 
BRANCH  11  12
HETATM   12  C   UNL     1      41.065 -13.895  -0.978  1.00  0.00    -0.013 A 
HETATM   13  C   UNL     1      41.804 -13.050  -1.811  1.00  0.00     0.035 A 
HETATM   14  C   UNL     1      41.199 -12.501  -2.938  1.00  0.00     0.047 A 
HETATM   15 BR   UNL     1      42.212 -11.351  -4.052  1.00  0.00    -0.048 Br
HETATM   16  C   UNL     1      39.865 -12.797  -3.233  1.00  0.00     0.116 A 
HETATM   17  C   UNL     1      39.121 -13.651  -2.402  1.00  0.00     0.103 A 
HETATM   18  C   UNL     1      39.728 -14.197  -1.266  1.00  0.00     0.052 A 
BRANCH  16  19
HETATM   19  O   UNL     1      39.255 -12.264  -4.340  1.00  0.00    -0.357 OA
HETATM   20  H   UNL     1      39.465 -12.826  -5.106  1.00  0.00     0.218 HD
ENDBRANCH  16  19
BRANCH  17  21
HETATM   21  O   UNL     1      37.825 -13.877  -2.782  1.00  0.00    -0.353 OA
HETATM   22  C   UNL     1      37.527 -15.092  -3.455  1.00  0.00     0.210 C 
ENDBRANCH  17  21
ENDBRANCH  11  12
ENDBRANCH   7  10
ENDBRANCH   5   6
BRANCH   1  23
HETATM   23  C   UNL     1      42.216 -18.018   3.598  1.00  0.00     0.296 C 
BRANCH  23  24
HETATM   24  N   UNL     1      43.420 -18.659   2.928  1.00  0.00    -0.066 N 
HETATM   25  H   UNL     1      44.044 -18.971   3.686  1.00  0.00     0.280 HD
BRANCH  24  26
HETATM   26  C   UNL     1      44.190 -17.637   2.099  1.00  0.00     0.231 C 
HETATM   27  C   UNL     1      43.577 -17.466   0.720  1.00  0.00     0.034 C 
ENDBRANCH  24  26
BRANCH  24  28
HETATM   28  C   UNL     1      43.041 -19.870   2.088  1.00  0.00     0.231 C 
HETATM   29  C   UNL     1      44.050 -20.995   2.266  1.00  0.00     0.034 C 
ENDBRANCH  24  28
ENDBRANCH  23  24
ENDBRANCH   1  23
BRANCH   2  30
HETATM   30  C   UNL     1      43.478 -18.270   6.476  1.00  0.00     0.225 A 
HETATM   31  N   UNL     1      43.629 -19.412   5.798  1.00  0.00    -0.081 NA
HETATM   32  O   UNL     1      43.911 -20.351   6.795  1.00  0.00    -0.103 OA
HETATM   33  N   UNL     1      43.900 -19.766   8.052  1.00  0.00    -0.083 NA
HETATM   34  C   UNL     1      43.629 -18.478   7.857  1.00  0.00     0.201 A 
BRANCH  34  35
HETATM   35  N   UNL     1      43.533 -17.563   8.833  1.00  0.00    -0.379 N 
HETATM   36  H   UNL     1      43.113 -17.807   9.727  1.00  0.00     0.158 HD
HETATM   37  H   UNL     1      43.704 -16.568   8.702  1.00  0.00     0.158 HD
ENDBRANCH  34  35
ENDBRANCH   2  30
TORSDOF 11
ENDMDL
MODEL 6
REMARK VINA RESULT:      -7.1      7.336     10.217
REMARK  11 active torsions:
REMARK  status: ('A' for Active; 'I' for Inactive)
REMARK    1  A    between atoms: C_2  and  N_3 
REMARK    2  A    between atoms: N_3  and  C_5 
REMARK    3  A    between atoms: N_3  and  C_32 
REMARK    4  A    between atoms: C_5  and  C_6 
REMARK    5  A    between atoms: N_7  and  C_8 
REMARK    6  A    between atoms: C_12  and  N_13 
REMARK    7  A    between atoms: C_16  and  C_17 
REMARK       I    between atoms: C_17  and  N_18 
REMARK    8  A    between atoms: N_18  and  N_19 
REMARK    9  A    between atoms: C_20  and  C_21 
REMARK   10  A    between atoms: C_25  and  O_26 
REMARK   11  A    between atoms: C_27  and  O_28 
ROOT
HETATM    1  C   UNL     1      39.937 -13.476  -0.372  1.00  0.00     0.096 A 
HETATM    2  N   UNL     1      38.896 -12.775  -0.974  1.00  0.00    -0.215 N 
HETATM    3  N   UNL     1      37.719 -13.200  -0.442  1.00  0.00     0.012 NA
HETATM    4  N   UNL     1      37.967 -14.058   0.535  1.00  0.00    -0.152 NA
HETATM    5  C   UNL     1      39.316 -14.241   0.606  1.00  0.00     0.170 A 
ENDROOT
BRANCH   5   6
HETATM    6  C   UNL     1      39.969 -15.109   1.577  1.00  0.00     0.293 C 
HETATM    7  N   UNL     1      40.291 -16.362   1.092  1.00  0.00    -0.242 N 
HETATM    8  H   UNL     1      40.075 -16.614   0.130  1.00  0.00     0.192 HD
HETATM    9  O   UNL     1      40.164 -14.710   2.723  1.00  0.00    -0.264 OA
BRANCH   7  10
HETATM   10  N   UNL     1      40.931 -17.243   1.907  1.00  0.00    -0.184 NA
HETATM   11  C   UNL     1      42.182 -17.461   1.652  1.00  0.00     0.150 C 
BRANCH  11  12
HETATM   12  C   UNL     1      42.978 -18.384   2.488  1.00  0.00    -0.013 A 
HETATM   13  C   UNL     1      43.370 -19.628   1.984  1.00  0.00     0.035 A 
HETATM   14  C   UNL     1      44.109 -20.489   2.791  1.00  0.00     0.047 A 
HETATM   15 BR   UNL     1      44.624 -22.175   2.096  1.00  0.00    -0.048 Br
HETATM   16  C   UNL     1      44.456 -20.109   4.090  1.00  0.00     0.116 A 
HETATM   17  C   UNL     1      44.071 -18.858   4.597  1.00  0.00     0.103 A 
HETATM   18  C   UNL     1      43.323 -17.995   3.789  1.00  0.00     0.052 A 
BRANCH  16  19
HETATM   19  O   UNL     1      45.183 -20.948   4.897  1.00  0.00    -0.357 OA
HETATM   20  H   UNL     1      46.033 -21.133   4.459  1.00  0.00     0.218 HD
ENDBRANCH  16  19
BRANCH  17  21
HETATM   21  O   UNL     1      44.464 -18.584   5.880  1.00  0.00    -0.353 OA
HETATM   22  C   UNL     1      44.365 -17.243   6.338  1.00  0.00     0.210 C 
ENDBRANCH  17  21
ENDBRANCH  11  12
ENDBRANCH   7  10
ENDBRANCH   5   6
BRANCH   1  23
HETATM   23  C   UNL     1      41.360 -13.449  -0.797  1.00  0.00     0.296 C 
BRANCH  23  24
HETATM   24  N   UNL     1      41.718 -14.315  -1.993  1.00  0.00    -0.066 N 
HETATM   25  H   UNL     1      42.664 -14.682  -1.814  1.00  0.00     0.280 HD
BRANCH  24  26
HETATM   26  C   UNL     1      41.790 -13.480  -3.267  1.00  0.00     0.231 C 
HETATM   27  C   UNL     1      42.477 -12.148  -3.019  1.00  0.00     0.034 C 
ENDBRANCH  24  26
BRANCH  24  28
HETATM   28  C   UNL     1      40.770 -15.493  -2.164  1.00  0.00     0.231 C 
HETATM   29  C   UNL     1      40.140 -15.490  -3.548  1.00  0.00     0.034 C 
ENDBRANCH  24  28
ENDBRANCH  23  24
ENDBRANCH   1  23
BRANCH   2  30
HETATM   30  C   UNL     1      38.968 -11.741  -1.938  1.00  0.00     0.225 A 
HETATM   31  N   UNL     1      39.494 -10.559  -1.606  1.00  0.00    -0.081 NA
HETATM   32  O   UNL     1      39.377  -9.806  -2.779  1.00  0.00    -0.103 OA
HETATM   33  N   UNL     1      38.761 -10.537  -3.783  1.00  0.00    -0.083 NA
HETATM   34  C   UNL     1      38.504 -11.735  -3.263  1.00  0.00     0.201 A 
BRANCH  34  35
HETATM   35  N   UNL     1      37.911 -12.741  -3.923  1.00  0.00    -0.379 N 
HETATM   36  H   UNL     1      37.896 -13.678  -3.527  1.00  0.00     0.158 HD
HETATM   37  H   UNL     1      37.603 -12.684  -4.892  1.00  0.00     0.158 HD
ENDBRANCH  34  35
ENDBRANCH   2  30
TORSDOF 11
ENDMDL
MODEL 7
REMARK VINA RESULT:      -7.1      7.279     10.699
REMARK  11 active torsions:
REMARK  status: ('A' for Active; 'I' for Inactive)
REMARK    1  A    between atoms: C_2  and  N_3 
REMARK    2  A    between atoms: N_3  and  C_5 
REMARK    3  A    between atoms: N_3  and  C_32 
REMARK    4  A    between atoms: C_5  and  C_6 
REMARK    5  A    between atoms: N_7  and  C_8 
REMARK    6  A    between atoms: C_12  and  N_13 
REMARK    7  A    between atoms: C_16  and  C_17 
REMARK       I    between atoms: C_17  and  N_18 
REMARK    8  A    between atoms: N_18  and  N_19 
REMARK    9  A    between atoms: C_20  and  C_21 
REMARK   10  A    between atoms: C_25  and  O_26 
REMARK   11  A    between atoms: C_27  and  O_28 
ROOT
HETATM    1  C   UNL     1      41.580 -13.516  -1.843  1.00  0.00     0.096 A 
HETATM    2  N   UNL     1      41.276 -13.342  -3.190  1.00  0.00    -0.215 N 
HETATM    3  N   UNL     1      40.848 -14.528  -3.697  1.00  0.00     0.012 NA
HETATM    4  N   UNL     1      40.769 -15.418  -2.721  1.00  0.00    -0.152 NA
HETATM    5  C   UNL     1      41.203 -14.825  -1.571  1.00  0.00     0.170 A 
ENDROOT
BRANCH   5   6
HETATM    6  C   UNL     1      41.244 -15.492  -0.277  1.00  0.00     0.293 C 
HETATM    7  N   UNL     1      42.252 -16.428  -0.153  1.00  0.00    -0.242 N 
HETATM    8  H   UNL     1      42.892 -16.602  -0.925  1.00  0.00     0.192 HD
HETATM    9  O   UNL     1      40.406 -15.220   0.580  1.00  0.00    -0.264 OA
BRANCH   7  10
HETATM   10  N   UNL     1      42.401 -17.090   1.026  1.00  0.00    -0.184 NA
HETATM   11  C   UNL     1      43.551 -17.646   1.235  1.00  0.00     0.150 C 
BRANCH  11  12
HETATM   12  C   UNL     1      43.827 -18.372   2.492  1.00  0.00    -0.013 A 
HETATM   13  C   UNL     1      44.088 -19.746   2.468  1.00  0.00     0.035 A 
HETATM   14  C   UNL     1      44.332 -20.415   3.664  1.00  0.00     0.047 A 
HETATM   15 BR   UNL     1      44.675 -22.278   3.615  1.00  0.00    -0.048 Br
HETATM   16  C   UNL     1      44.320 -19.717   4.875  1.00  0.00     0.116 A 
HETATM   17  C   UNL     1      44.066 -18.336   4.902  1.00  0.00     0.103 A 
HETATM   18  C   UNL     1      43.813 -17.665   3.701  1.00  0.00     0.052 A 
BRANCH  16  19
HETATM   19  O   UNL     1      44.559 -20.364   6.061  1.00  0.00    -0.357 OA
HETATM   20  H   UNL     1      44.506 -21.323   5.903  1.00  0.00     0.218 HD
ENDBRANCH  16  19
BRANCH  17  21
HETATM   21  O   UNL     1      44.078 -17.749   6.140  1.00  0.00    -0.353 OA
HETATM   22  C   UNL     1      43.629 -16.406   6.247  1.00  0.00     0.210 C 
ENDBRANCH  17  21
ENDBRANCH  11  12
ENDBRANCH   7  10
ENDBRANCH   5   6
BRANCH   1  23
HETATM   23  C   UNL     1      42.253 -12.521  -0.971  1.00  0.00     0.296 C 
BRANCH  23  24
HETATM   24  N   UNL     1      41.430 -11.306  -0.581  1.00  0.00    -0.066 N 
HETATM   25  H   UNL     1      40.849 -11.072  -1.399  1.00  0.00     0.280 HD
BRANCH  24  26
HETATM   26  C   UNL     1      42.328 -10.105  -0.305  1.00  0.00     0.231 C 
HETATM   27  C   UNL     1      43.524 -10.080  -1.241  1.00  0.00     0.034 C 
ENDBRANCH  24  26
BRANCH  24  28
HETATM   28  C   UNL     1      40.508 -11.581   0.599  1.00  0.00     0.231 C 
HETATM   29  C   UNL     1      41.306 -11.961   1.837  1.00  0.00     0.034 C 
ENDBRANCH  24  28
ENDBRANCH  23  24
ENDBRANCH   1  23
BRANCH   2  30
HETATM   30  C   UNL     1      41.320 -12.155  -3.959  1.00  0.00     0.225 A 
HETATM   31  N   UNL     1      42.499 -11.619  -4.287  1.00  0.00    -0.081 NA
HETATM   32  O   UNL     1      42.149 -10.474  -5.011  1.00  0.00    -0.103 OA
HETATM   33  N   UNL     1      40.772 -10.328  -5.083  1.00  0.00    -0.083 NA
HETATM   34  C   UNL     1      40.257 -11.368  -4.430  1.00  0.00     0.201 A 
BRANCH  34  35
HETATM   35  N   UNL     1      38.944 -11.595  -4.276  1.00  0.00    -0.379 N 
HETATM   36  H   UNL     1      38.559 -11.781  -3.353  1.00  0.00     0.158 HD
HETATM   37  H   UNL     1      38.299 -11.762  -5.046  1.00  0.00     0.158 HD
ENDBRANCH  34  35
ENDBRANCH   2  30
TORSDOF 11
ENDMDL
MODEL 8
REMARK VINA RESULT:      -7.1      6.686     10.865
REMARK  11 active torsions:
REMARK  status: ('A' for Active; 'I' for Inactive)
REMARK    1  A    between atoms: C_2  and  N_3 
REMARK    2  A    between atoms: N_3  and  C_5 
REMARK    3  A    between atoms: N_3  and  C_32 
REMARK    4  A    between atoms: C_5  and  C_6 
REMARK    5  A    between atoms: N_7  and  C_8 
REMARK    6  A    between atoms: C_12  and  N_13 
REMARK    7  A    between atoms: C_16  and  C_17 
REMARK       I    between atoms: C_17  and  N_18 
REMARK    8  A    between atoms: N_18  and  N_19 
REMARK    9  A    between atoms: C_20  and  C_21 
REMARK   10  A    between atoms: C_25  and  O_26 
REMARK   11  A    between atoms: C_27  and  O_28 
ROOT
HETATM    1  C   UNL     1      39.413 -14.294  -1.853  1.00  0.00     0.096 A 
HETATM    2  N   UNL     1      39.077 -14.364  -3.202  1.00  0.00    -0.215 N 
HETATM    3  N   UNL     1      40.188 -14.697  -3.911  1.00  0.00     0.012 NA
HETATM    4  N   UNL     1      41.184 -14.939  -3.074  1.00  0.00    -0.152 NA
HETATM    5  C   UNL     1      40.738 -14.708  -1.806  1.00  0.00     0.170 A 
ENDROOT
BRANCH   5   6
HETATM    6  C   UNL     1      41.552 -14.887  -0.612  1.00  0.00     0.293 C 
HETATM    7  N   UNL     1      41.761 -16.207  -0.260  1.00  0.00    -0.242 N 
HETATM    8  H   UNL     1      41.363 -16.959  -0.819  1.00  0.00     0.192 HD
HETATM    9  O   UNL     1      41.966 -13.905   0.001  1.00  0.00    -0.264 OA
BRANCH   7  10
HETATM   10  N   UNL     1      42.534 -16.489   0.823  1.00  0.00    -0.184 NA
HETATM   11  C   UNL     1      41.973 -17.172   1.770  1.00  0.00     0.150 C 
BRANCH  11  12
HETATM   12  C   UNL     1      42.728 -17.551   2.982  1.00  0.00    -0.013 A 
HETATM   13  C   UNL     1      43.386 -18.784   3.044  1.00  0.00     0.035 A 
HETATM   14  C   UNL     1      44.081 -19.129   4.199  1.00  0.00     0.047 A 
HETATM   15 BR   UNL     1      44.959 -20.807   4.270  1.00  0.00    -0.048 Br
HETATM   16  C   UNL     1      44.123 -18.249   5.284  1.00  0.00     0.116 A 
HETATM   17  C   UNL     1      43.470 -17.007   5.223  1.00  0.00     0.103 A 
HETATM   18  C   UNL     1      42.765 -16.663   4.065  1.00  0.00     0.052 A 
BRANCH  16  19
HETATM   19  O   UNL     1      44.804 -18.576   6.429  1.00  0.00    -0.357 OA
HETATM   20  H   UNL     1      45.411 -19.309   6.225  1.00  0.00     0.218 HD
ENDBRANCH  16  19
BRANCH  17  21
HETATM   21  O   UNL     1      43.575 -16.219   6.339  1.00  0.00    -0.353 OA
HETATM   22  C   UNL     1      43.916 -14.852   6.162  1.00  0.00     0.210 C 
ENDBRANCH  17  21
ENDBRANCH  11  12
ENDBRANCH   7  10
ENDBRANCH   5   6
BRANCH   1  23
HETATM   23  C   UNL     1      38.539 -13.781  -0.767  1.00  0.00     0.296 C 
BRANCH  23  24
HETATM   24  N   UNL     1      39.224 -12.962   0.313  1.00  0.00    -0.066 N 
HETATM   25  H   UNL     1      40.232 -13.162   0.237  1.00  0.00     0.280 HD
BRANCH  24  26
HETATM   26  C   UNL     1      38.777 -13.408   1.700  1.00  0.00     0.231 C 
HETATM   27  C   UNL     1      38.978 -14.901   1.894  1.00  0.00     0.034 C 
ENDBRANCH  24  26
BRANCH  24  28
HETATM   28  C   UNL     1      39.017 -11.465   0.127  1.00  0.00     0.231 C 
HETATM   29  C   UNL     1      40.000 -10.900  -0.887  1.00  0.00     0.034 C 
ENDBRANCH  24  28
ENDBRANCH  23  24
ENDBRANCH   1  23
BRANCH   2  30
HETATM   30  C   UNL     1      37.809 -14.193  -3.807  1.00  0.00     0.225 A 
HETATM   31  N   UNL     1      37.193 -15.239  -4.366  1.00  0.00    -0.081 NA
HETATM   32  O   UNL     1      36.006 -14.692  -4.866  1.00  0.00    -0.103 OA
HETATM   33  N   UNL     1      35.941 -13.328  -4.622  1.00  0.00    -0.083 NA
HETATM   34  C   UNL     1      37.059 -13.017  -3.968  1.00  0.00     0.201 A 
BRANCH  34  35
HETATM   35  N   UNL     1      37.376 -11.784  -3.546  1.00  0.00    -0.379 N 
HETATM   36  H   UNL     1      38.289 -11.388  -3.754  1.00  0.00     0.158 HD
HETATM   37  H   UNL     1      36.825 -11.252  -2.875  1.00  0.00     0.158 HD
ENDBRANCH  34  35
ENDBRANCH   2  30
TORSDOF 11
ENDMDL
MODEL 9
REMARK VINA RESULT:      -7.0      6.061      8.133
REMARK  11 active torsions:
REMARK  status: ('A' for Active; 'I' for Inactive)
REMARK    1  A    between atoms: C_2  and  N_3 
REMARK    2  A    between atoms: N_3  and  C_5 
REMARK    3  A    between atoms: N_3  and  C_32 
REMARK    4  A    between atoms: C_5  and  C_6 
REMARK    5  A    between atoms: N_7  and  C_8 
REMARK    6  A    between atoms: C_12  and  N_13 
REMARK    7  A    between atoms: C_16  and  C_17 
REMARK       I    between atoms: C_17  and  N_18 
REMARK    8  A    between atoms: N_18  and  N_19 
REMARK    9  A    between atoms: C_20  and  C_21 
REMARK   10  A    between atoms: C_25  and  O_26 
REMARK   11  A    between atoms: C_27  and  O_28 
ROOT
HETATM    1  C   UNL     1      42.584 -16.965   4.547  1.00  0.00     0.096 A 
HETATM    2  N   UNL     1      43.225 -17.136   5.769  1.00  0.00    -0.215 N 
HETATM    3  N   UNL     1      43.509 -15.912   6.288  1.00  0.00     0.012 NA
HETATM    4  N   UNL     1      42.993 -14.977   5.508  1.00  0.00    -0.152 NA
HETATM    5  C   UNL     1      42.412 -15.591   4.437  1.00  0.00     0.170 A 
ENDROOT
BRANCH   5   6
HETATM    6  C   UNL     1      41.723 -14.882   3.368  1.00  0.00     0.293 C 
HETATM    7  N   UNL     1      42.554 -14.418   2.367  1.00  0.00    -0.242 N 
HETATM    8  H   UNL     1      43.557 -14.583   2.412  1.00  0.00     0.192 HD
HETATM    9  O   UNL     1      40.506 -14.720   3.424  1.00  0.00    -0.264 OA
BRANCH   7  10
HETATM   10  N   UNL     1      42.011 -13.767   1.303  1.00  0.00    -0.184 NA
HETATM   11  C   UNL     1      41.809 -14.473   0.236  1.00  0.00     0.150 C 
BRANCH  11  12
HETATM   12  C   UNL     1      41.204 -13.870  -0.970  1.00  0.00    -0.013 A 
HETATM   13  C   UNL     1      40.090 -14.466  -1.570  1.00  0.00     0.035 A 
HETATM   14  C   UNL     1      39.541 -13.891  -2.713  1.00  0.00     0.047 A 
HETATM   15 BR   UNL     1      38.038 -14.716  -3.520  1.00  0.00    -0.048 Br
HETATM   16  C   UNL     1      40.099 -12.727  -3.250  1.00  0.00     0.116 A 
HETATM   17  C   UNL     1      41.212 -12.122  -2.646  1.00  0.00     0.103 A 
HETATM   18  C   UNL     1      41.768 -12.704  -1.502  1.00  0.00     0.052 A 
BRANCH  16  19
HETATM   19  O   UNL     1      39.569 -12.149  -4.377  1.00  0.00    -0.357 OA
HETATM   20  H   UNL     1      40.109 -12.418  -5.141  1.00  0.00     0.218 HD
ENDBRANCH  16  19
BRANCH  17  21
HETATM   21  O   UNL     1      41.679 -10.985  -3.251  1.00  0.00    -0.353 OA
HETATM   22  C   UNL     1      42.749 -10.288  -2.630  1.00  0.00     0.210 C 
ENDBRANCH  17  21
ENDBRANCH  11  12
ENDBRANCH   7  10
ENDBRANCH   5   6
BRANCH   1  23
HETATM   23  C   UNL     1      42.274 -18.041   3.572  1.00  0.00     0.296 C 
BRANCH  23  24
HETATM   24  N   UNL     1      43.466 -18.712   2.913  1.00  0.00    -0.066 N 
HETATM   25  H   UNL     1      44.102 -18.992   3.675  1.00  0.00     0.280 HD
BRANCH  24  26
HETATM   26  C   UNL     1      44.225 -17.729   2.029  1.00  0.00     0.231 C 
HETATM   27  C   UNL     1      43.508 -17.500   0.710  1.00  0.00     0.034 C 
ENDBRANCH  24  26
BRANCH  24  28
HETATM   28  C   UNL     1      43.075 -19.959   2.132  1.00  0.00     0.231 C 
HETATM   29  C   UNL     1      44.149 -21.030   2.240  1.00  0.00     0.034 C 
ENDBRANCH  24  28
ENDBRANCH  23  24
ENDBRANCH   1  23
BRANCH   2  30
HETATM   30  C   UNL     1      43.516 -18.340   6.454  1.00  0.00     0.225 A 
HETATM   31  N   UNL     1      43.655 -19.478   5.768  1.00  0.00    -0.081 NA
HETATM   32  O   UNL     1      43.909 -20.431   6.759  1.00  0.00    -0.103 OA
HETATM   33  N   UNL     1      43.892 -19.857   8.022  1.00  0.00    -0.083 NA
HETATM   34  C   UNL     1      43.646 -18.563   7.835  1.00  0.00     0.201 A 
BRANCH  34  35
HETATM   35  N   UNL     1      43.554 -17.655   8.818  1.00  0.00    -0.379 N 
HETATM   36  H   UNL     1      42.726 -17.070   8.901  1.00  0.00     0.158 HD
HETATM   37  H   UNL     1      44.331 -17.378   9.414  1.00  0.00     0.158 HD
ENDBRANCH  34  35
ENDBRANCH   2  30
TORSDOF 11
ENDMDL
MODEL 10
REMARK VINA RESULT:      -7.0      7.700     10.752
REMARK  11 active torsions:
REMARK  status: ('A' for Active; 'I' for Inactive)
REMARK    1  A    between atoms: C_2  and  N_3 
REMARK    2  A    between atoms: N_3  and  C_5 
REMARK    3  A    between atoms: N_3  and  C_32 
REMARK    4  A    between atoms: C_5  and  C_6 
REMARK    5  A    between atoms: N_7  and  C_8 
REMARK    6  A    between atoms: C_12  and  N_13 
REMARK    7  A    between atoms: C_16  and  C_17 
REMARK       I    between atoms: C_17  and  N_18 
REMARK    8  A    between atoms: N_18  and  N_19 
REMARK    9  A    between atoms: C_20  and  C_21 
REMARK   10  A    between atoms: C_25  and  O_26 
REMARK   11  A    between atoms: C_27  and  O_28 
ROOT
HETATM    1  C   UNL     1      40.854 -13.310  -1.807  1.00  0.00     0.096 A 
HETATM    2  N   UNL     1      40.851 -13.124  -3.186  1.00  0.00    -0.215 N 
HETATM    3  N   UNL     1      41.154 -14.305  -3.786  1.00  0.00     0.012 NA
HETATM    4  N   UNL     1      41.249 -15.251  -2.865  1.00  0.00    -0.152 NA
HETATM    5  C   UNL     1      41.062 -14.673  -1.644  1.00  0.00     0.170 A 
ENDROOT
BRANCH   5   6
HETATM    6  C   UNL     1      41.078 -15.407  -0.386  1.00  0.00     0.293 C 
HETATM    7  N   UNL     1      42.163 -16.250  -0.235  1.00  0.00    -0.242 N 
HETATM    8  H   UNL     1      42.868 -16.319  -0.965  1.00  0.00     0.192 HD
HETATM    9  O   UNL     1      40.161 -15.264   0.420  1.00  0.00    -0.264 OA
BRANCH   7  10
HETATM   10  N   UNL     1      42.293 -16.962   0.917  1.00  0.00    -0.184 NA
HETATM   11  C   UNL     1      43.501 -17.252   1.282  1.00  0.00     0.150 C 
BRANCH  11  12
HETATM   12  C   UNL     1      43.758 -18.004   2.528  1.00  0.00    -0.013 A 
HETATM   13  C   UNL     1      43.584 -17.386   3.771  1.00  0.00     0.035 A 
HETATM   14  C   UNL     1      43.843 -18.106   4.933  1.00  0.00     0.047 A 
HETATM   15 BR   UNL     1      43.613 -17.250   6.609  1.00  0.00    -0.048 Br
HETATM   16  C   UNL     1      44.269 -19.435   4.856  1.00  0.00     0.116 A 
HETATM   17  C   UNL     1      44.437 -20.062   3.611  1.00  0.00     0.103 A 
HETATM   18  C   UNL     1      44.184 -19.336   2.442  1.00  0.00     0.052 A 
BRANCH  16  19
HETATM   19  O   UNL     1      44.528 -20.157   5.994  1.00  0.00    -0.357 OA
HETATM   20  H   UNL     1      43.761 -20.076   6.588  1.00  0.00     0.218 HD
ENDBRANCH  16  19
BRANCH  17  21
HETATM   21  O   UNL     1      44.855 -21.365   3.647  1.00  0.00    -0.353 OA
HETATM   22  C   UNL     1      44.359 -22.255   2.658  1.00  0.00     0.210 C 
ENDBRANCH  17  21
ENDBRANCH  11  12
ENDBRANCH   7  10
ENDBRANCH   5   6
BRANCH   1  23
HETATM   23  C   UNL     1      40.757 -12.235  -0.787  1.00  0.00     0.296 C 
BRANCH  23  24
HETATM   24  N   UNL     1      42.042 -11.891  -0.052  1.00  0.00    -0.066 N 
HETATM   25  H   UNL     1      42.699 -12.664  -0.236  1.00  0.00     0.280 HD
BRANCH  24  26
HETATM   26  C   UNL     1      41.811 -11.840   1.454  1.00  0.00     0.231 C 
HETATM   27  C   UNL     1      42.313 -13.101   2.135  1.00  0.00     0.034 C 
ENDBRANCH  24  26
BRANCH  24  28
HETATM   28  C   UNL     1      42.670 -10.598  -0.554  1.00  0.00     0.231 C 
HETATM   29  C   UNL     1      41.620  -9.681  -1.162  1.00  0.00     0.034 C 
ENDBRANCH  24  28
ENDBRANCH  23  24
ENDBRANCH   1  23
BRANCH   2  30
HETATM   30  C   UNL     1      40.539 -11.954  -3.919  1.00  0.00     0.225 A 
HETATM   31  N   UNL     1      39.281 -11.503  -3.947  1.00  0.00    -0.081 NA
HETATM   32  O   UNL     1      39.356 -10.373  -4.767  1.00  0.00    -0.103 OA
HETATM   33  N   UNL     1      40.646 -10.179  -5.237  1.00  0.00    -0.083 NA
HETATM   34  C   UNL     1      41.379 -11.159  -4.715  1.00  0.00     0.201 A 
BRANCH  34  35
HETATM   35  N   UNL     1      42.693 -11.324  -4.928  1.00  0.00    -0.379 N 
HETATM   36  H   UNL     1      43.352 -10.595  -4.663  1.00  0.00     0.158 HD
HETATM   37  H   UNL     1      43.091 -12.070  -5.495  1.00  0.00     0.158 HD
ENDBRANCH  34  35
ENDBRANCH   2  30
TORSDOF 11
ENDMDL
