MODEL 1
REMARK VINA RESULT:      -9.3      0.000      0.000
REMARK  2 active torsions:
REMARK  status: ('A' for Active; 'I' for Inactive)
REMARK       I    between atoms: N_8  and  C_9 
REMARK    1  A    between atoms: C_9  and  C_10 
REMARK    2  A    between atoms: N_12  and  C_13 
ROOT
HETATM    1  C   UNL     1      43.875 -16.687   5.791  1.00  0.00     0.021 C 
HETATM    2  C   UNL     1      43.014 -17.944   5.727  1.00  0.00     0.087 C 
HETATM    3  C   UNL     1      43.797 -19.191   6.100  1.00  0.00     0.207 C 
HETATM    4  O   UNL     1      43.468 -19.919   7.032  1.00  0.00    -0.279 OA
HETATM    5  N   UNL     1      44.841 -19.479   5.235  1.00  0.00    -0.227 NA
HETATM    6  C   UNL     1      44.448 -20.271   4.124  1.00  0.00     0.042 A 
HETATM    7  C   UNL     1      43.754 -19.678   3.049  1.00  0.00     0.059 A 
HETATM    8  N   UNL     1      43.190 -18.352   3.189  1.00  0.00    -0.309 N 
HETATM    9  C   UNL     1      43.189 -17.464   2.079  1.00  0.00     0.298 C 
HETATM   10  O   UNL     1      43.748 -17.753   1.017  1.00  0.00    -0.264 OA
HETATM   11  C   UNL     1      42.312 -18.192   4.381  1.00  0.00     0.145 C 
HETATM   12  C   UNL     1      44.889 -21.593   4.074  1.00  0.00     0.026 A 
HETATM   13  C   UNL     1      44.658 -22.346   2.926  1.00  0.00     0.002 A 
HETATM   14  C   UNL     1      44.004 -21.771   1.837  1.00  0.00     0.002 A 
HETATM   15  C   UNL     1      43.555 -20.446   1.895  1.00  0.00     0.031 A 
HETATM   16  H   UNL     1      45.189 -18.604   4.853  1.00  0.00     0.136 HD
ENDROOT
BRANCH   9  17
HETATM   17  C   UNL     1      42.560 -16.121   2.229  1.00  0.00     0.239 A 
HETATM   18  N   UNL     1      41.297 -15.864   1.836  1.00  0.00    -0.140 NA
HETATM   19  N   UNL     1      41.150 -14.542   2.081  1.00  0.00    -0.225 N 
HETATM   20  C   UNL     1      42.314 -14.051   2.611  1.00  0.00     0.237 A 
HETATM   21  N   UNL     1      43.211 -15.002   2.707  1.00  0.00    -0.216 NA
BRANCH  19  22
HETATM   22  C   UNL     1      39.944 -13.848   1.801  1.00  0.00     0.059 A 
HETATM   23  C   UNL     1      38.891 -14.523   1.165  1.00  0.00     0.031 A 
HETATM   24  C   UNL     1      37.702 -13.851   0.876  1.00  0.00     0.002 A 
HETATM   25  C   UNL     1      37.554 -12.509   1.219  1.00  0.00     0.000 A 
HETATM   26  C   UNL     1      38.595 -11.834   1.854  1.00  0.00     0.002 A 
HETATM   27  C   UNL     1      39.790 -12.497   2.144  1.00  0.00     0.031 A 
ENDBRANCH  19  22
ENDBRANCH   9  17
TORSDOF 2
ENDMDL
MODEL 2
REMARK VINA RESULT:      -9.0      1.656      2.048
REMARK  2 active torsions:
REMARK  status: ('A' for Active; 'I' for Inactive)
REMARK       I    between atoms: N_8  and  C_9 
REMARK    1  A    between atoms: C_9  and  C_10 
REMARK    2  A    between atoms: N_12  and  C_13 
ROOT
HETATM    1  C   UNL     1      44.477 -17.118   6.488  1.00  0.00     0.021 C 
HETATM    2  C   UNL     1      43.435 -18.199   6.222  1.00  0.00     0.087 C 
HETATM    3  C   UNL     1      44.020 -19.596   6.332  1.00  0.00     0.207 C 
HETATM    4  O   UNL     1      43.589 -20.428   7.124  1.00  0.00    -0.279 OA
HETATM    5  N   UNL     1      45.004 -19.869   5.395  1.00  0.00    -0.227 NA
HETATM    6  C   UNL     1      44.489 -20.371   4.170  1.00  0.00     0.042 A 
HETATM    7  C   UNL     1      43.888 -19.490   3.247  1.00  0.00     0.059 A 
HETATM    8  N   UNL     1      43.534 -18.146   3.648  1.00  0.00    -0.309 N 
HETATM    9  C   UNL     1      43.663 -17.075   2.722  1.00  0.00     0.298 C 
HETATM   10  O   UNL     1      44.165 -17.239   1.606  1.00  0.00    -0.264 OA
HETATM   11  C   UNL     1      42.696 -18.083   4.878  1.00  0.00     0.145 C 
HETATM   12  C   UNL     1      44.723 -21.711   3.862  1.00  0.00     0.026 A 
HETATM   13  C   UNL     1      44.375 -22.193   2.604  1.00  0.00     0.002 A 
HETATM   14  C   UNL     1      43.810 -21.332   1.661  1.00  0.00     0.002 A 
HETATM   15  C   UNL     1      43.569 -19.990   1.978  1.00  0.00     0.031 A 
HETATM   16  H   UNL     1      45.479 -19.000   5.169  1.00  0.00     0.136 HD
ENDROOT
BRANCH   9  17
HETATM   17  C   UNL     1      43.246 -15.705   3.138  1.00  0.00     0.239 A 
HETATM   18  N   UNL     1      42.035 -15.446   3.668  1.00  0.00    -0.140 NA
HETATM   19  N   UNL     1      42.042 -14.103   3.834  1.00  0.00    -0.225 N 
HETATM   20  C   UNL     1      43.243 -13.603   3.407  1.00  0.00     0.237 A 
HETATM   21  N   UNL     1      44.009 -14.569   2.961  1.00  0.00    -0.216 NA
BRANCH  19  22
HETATM   22  C   UNL     1      40.932 -13.400   4.372  1.00  0.00     0.059 A 
HETATM   23  C   UNL     1      40.505 -13.681   5.679  1.00  0.00     0.031 A 
HETATM   24  C   UNL     1      39.411 -13.003   6.219  1.00  0.00     0.002 A 
HETATM   25  C   UNL     1      38.740 -12.042   5.465  1.00  0.00     0.000 A 
HETATM   26  C   UNL     1      39.161 -11.757   4.168  1.00  0.00     0.002 A 
HETATM   27  C   UNL     1      40.253 -12.432   3.617  1.00  0.00     0.031 A 
ENDBRANCH  19  22
ENDBRANCH   9  17
TORSDOF 2
ENDMDL
MODEL 3
REMARK VINA RESULT:      -8.9      2.399      7.982
REMARK  2 active torsions:
REMARK  status: ('A' for Active; 'I' for Inactive)
REMARK       I    between atoms: N_8  and  C_9 
REMARK    1  A    between atoms: C_9  and  C_10 
REMARK    2  A    between atoms: N_12  and  C_13 
ROOT
HETATM    1  C   UNL     1      40.978 -15.331   0.296  1.00  0.00     0.021 C 
HETATM    2  C   UNL     1      39.850 -15.470   1.313  1.00  0.00     0.087 C 
HETATM    3  C   UNL     1      39.020 -14.203   1.422  1.00  0.00     0.207 C 
HETATM    4  O   UNL     1      37.813 -14.187   1.204  1.00  0.00    -0.279 OA
HETATM    5  N   UNL     1      39.729 -13.106   1.887  1.00  0.00    -0.227 NA
HETATM    6  C   UNL     1      39.747 -13.008   3.303  1.00  0.00     0.042 A 
HETATM    7  C   UNL     1      40.599 -13.844   4.055  1.00  0.00     0.059 A 
HETATM    8  N   UNL     1      41.234 -14.986   3.431  1.00  0.00    -0.309 N 
HETATM    9  C   UNL     1      42.551 -15.358   3.814  1.00  0.00     0.298 C 
HETATM   10  O   UNL     1      43.216 -14.675   4.598  1.00  0.00    -0.264 OA
HETATM   11  C   UNL     1      40.287 -15.893   2.726  1.00  0.00     0.145 C 
HETATM   12  C   UNL     1      39.016 -11.980   3.898  1.00  0.00     0.026 A 
HETATM   13  C   UNL     1      39.140 -11.757   5.266  1.00  0.00     0.002 A 
HETATM   14  C   UNL     1      40.002 -12.549   6.024  1.00  0.00     0.002 A 
HETATM   15  C   UNL     1      40.728 -13.586   5.425  1.00  0.00     0.031 A 
HETATM   16  H   UNL     1      40.697 -13.205   1.595  1.00  0.00     0.136 HD
ENDROOT
BRANCH   9  17
HETATM   17  C   UNL     1      43.169 -16.566   3.196  1.00  0.00     0.239 A 
HETATM   18  N   UNL     1      43.220 -17.756   3.825  1.00  0.00    -0.140 NA
HETATM   19  N   UNL     1      43.908 -18.542   2.964  1.00  0.00    -0.225 N 
HETATM   20  C   UNL     1      44.242 -17.809   1.856  1.00  0.00     0.237 A 
HETATM   21  N   UNL     1      43.807 -16.578   1.972  1.00  0.00    -0.216 NA
BRANCH  19  22
HETATM   22  C   UNL     1      44.198 -19.903   3.245  1.00  0.00     0.059 A 
HETATM   23  C   UNL     1      44.057 -20.861   2.229  1.00  0.00     0.031 A 
HETATM   24  C   UNL     1      44.331 -22.205   2.492  1.00  0.00     0.002 A 
HETATM   25  C   UNL     1      44.748 -22.599   3.761  1.00  0.00     0.000 A 
HETATM   26  C   UNL     1      44.893 -21.652   4.773  1.00  0.00     0.002 A 
HETATM   27  C   UNL     1      44.618 -20.305   4.520  1.00  0.00     0.031 A 
ENDBRANCH  19  22
ENDBRANCH   9  17
TORSDOF 2
ENDMDL
MODEL 4
REMARK VINA RESULT:      -8.9      2.420      7.430
REMARK  2 active torsions:
REMARK  status: ('A' for Active; 'I' for Inactive)
REMARK       I    between atoms: N_8  and  C_9 
REMARK    1  A    between atoms: C_9  and  C_10 
REMARK    2  A    between atoms: N_12  and  C_13 
ROOT
HETATM    1  C   UNL     1      42.861 -15.934   5.620  1.00  0.00     0.021 C 
HETATM    2  C   UNL     1      42.999 -14.507   5.100  1.00  0.00     0.087 C 
HETATM    3  C   UNL     1      42.204 -13.516   5.933  1.00  0.00     0.207 C 
HETATM    4  O   UNL     1      42.730 -12.564   6.500  1.00  0.00    -0.279 OA
HETATM    5  N   UNL     1      40.835 -13.730   5.905  1.00  0.00    -0.227 NA
HETATM    6  C   UNL     1      40.186 -13.075   4.825  1.00  0.00     0.042 A 
HETATM    7  C   UNL     1      40.271 -13.613   3.524  1.00  0.00     0.059 A 
HETATM    8  N   UNL     1      41.237 -14.650   3.227  1.00  0.00    -0.309 N 
HETATM    9  C   UNL     1      40.903 -15.684   2.310  1.00  0.00     0.298 C 
HETATM   10  O   UNL     1      39.771 -15.783   1.828  1.00  0.00    -0.264 OA
HETATM   11  C   UNL     1      42.631 -14.308   3.620  1.00  0.00     0.145 C 
HETATM   12  C   UNL     1      39.364 -11.988   5.118  1.00  0.00     0.026 A 
HETATM   13  C   UNL     1      38.590 -11.426   4.107  1.00  0.00     0.002 A 
HETATM   14  C   UNL     1      38.631 -11.962   2.820  1.00  0.00     0.002 A 
HETATM   15  C   UNL     1      39.465 -13.048   2.529  1.00  0.00     0.031 A 
HETATM   16  H   UNL     1      40.670 -14.725   5.777  1.00  0.00     0.136 HD
ENDROOT
BRANCH   9  17
HETATM   17  C   UNL     1      41.928 -16.714   1.979  1.00  0.00     0.239 A 
HETATM   18  N   UNL     1      42.108 -17.823   2.722  1.00  0.00    -0.140 NA
HETATM   19  N   UNL     1      43.157 -18.438   2.129  1.00  0.00    -0.225 N 
HETATM   20  C   UNL     1      43.569 -17.689   1.058  1.00  0.00     0.237 A 
HETATM   21  N   UNL     1      42.835 -16.610   0.943  1.00  0.00    -0.216 NA
BRANCH  19  22
HETATM   22  C   UNL     1      43.688 -19.664   2.607  1.00  0.00     0.059 A 
HETATM   23  C   UNL     1      43.608 -20.811   1.803  1.00  0.00     0.031 A 
HETATM   24  C   UNL     1      44.119 -22.026   2.263  1.00  0.00     0.002 A 
HETATM   25  C   UNL     1      44.713 -22.105   3.521  1.00  0.00     0.000 A 
HETATM   26  C   UNL     1      44.799 -20.968   4.323  1.00  0.00     0.002 A 
HETATM   27  C   UNL     1      44.287 -19.749   3.873  1.00  0.00     0.031 A 
ENDBRANCH  19  22
ENDBRANCH   9  17
TORSDOF 2
ENDMDL
MODEL 5
REMARK VINA RESULT:      -8.8      2.345      2.820
REMARK  2 active torsions:
REMARK  status: ('A' for Active; 'I' for Inactive)
REMARK       I    between atoms: N_8  and  C_9 
REMARK    1  A    between atoms: C_9  and  C_10 
REMARK    2  A    between atoms: N_12  and  C_13 
ROOT
HETATM    1  C   UNL     1      42.205 -14.789   4.661  1.00  0.00     0.021 C 
HETATM    2  C   UNL     1      41.649 -16.190   4.894  1.00  0.00     0.087 C 
HETATM    3  C   UNL     1      42.404 -16.929   5.985  1.00  0.00     0.207 C 
HETATM    4  O   UNL     1      41.852 -17.354   6.995  1.00  0.00    -0.279 OA
HETATM    5  N   UNL     1      43.737 -17.164   5.685  1.00  0.00    -0.227 NA
HETATM    6  C   UNL     1      43.947 -18.370   4.966  1.00  0.00     0.042 A 
HETATM    7  C   UNL     1      43.653 -18.427   3.588  1.00  0.00     0.059 A 
HETATM    8  N   UNL     1      42.880 -17.374   2.965  1.00  0.00    -0.309 N 
HETATM    9  C   UNL     1      43.180 -16.968   1.636  1.00  0.00     0.298 C 
HETATM   10  O   UNL     1      44.152 -17.420   1.024  1.00  0.00    -0.264 OA
HETATM   11  C   UNL     1      41.587 -17.088   3.647  1.00  0.00     0.145 C 
HETATM   12  C   UNL     1      44.573 -19.427   5.627  1.00  0.00     0.026 A 
HETATM   13  C   UNL     1      44.938 -20.561   4.908  1.00  0.00     0.002 A 
HETATM   14  C   UNL     1      44.689 -20.626   3.537  1.00  0.00     0.002 A 
HETATM   15  C   UNL     1      44.051 -19.567   2.879  1.00  0.00     0.031 A 
HETATM   16  H   UNL     1      44.066 -16.413   5.086  1.00  0.00     0.136 HD
ENDROOT
BRANCH   9  17
HETATM   17  C   UNL     1      42.340 -15.916   0.994  1.00  0.00     0.239 A 
HETATM   18  N   UNL     1      41.541 -16.169  -0.060  1.00  0.00    -0.140 NA
HETATM   19  N   UNL     1      41.025 -14.957  -0.367  1.00  0.00    -0.225 N 
HETATM   20  C   UNL     1      41.522 -14.024   0.504  1.00  0.00     0.237 A 
HETATM   21  N   UNL     1      42.347 -14.584   1.354  1.00  0.00    -0.216 NA
BRANCH  19  22
HETATM   22  C   UNL     1      40.118 -14.769  -1.442  1.00  0.00     0.059 A 
HETATM   23  C   UNL     1      40.370 -15.393  -2.674  1.00  0.00     0.031 A 
HETATM   24  C   UNL     1      39.490 -15.211  -3.743  1.00  0.00     0.002 A 
HETATM   25  C   UNL     1      38.359 -14.412  -3.592  1.00  0.00     0.000 A 
HETATM   26  C   UNL     1      38.103 -13.792  -2.370  1.00  0.00     0.002 A 
HETATM   27  C   UNL     1      38.978 -13.966  -1.296  1.00  0.00     0.031 A 
ENDBRANCH  19  22
ENDBRANCH   9  17
TORSDOF 2
ENDMDL
MODEL 6
REMARK VINA RESULT:      -8.5      2.250      7.871
REMARK  2 active torsions:
REMARK  status: ('A' for Active; 'I' for Inactive)
REMARK       I    between atoms: N_8  and  C_9 
REMARK    1  A    between atoms: C_9  and  C_10 
REMARK    2  A    between atoms: N_12  and  C_13 
ROOT
HETATM    1  C   UNL     1      40.983 -16.639   1.423  1.00  0.00     0.021 C 
HETATM    2  C   UNL     1      39.964 -15.876   2.264  1.00  0.00     0.087 C 
HETATM    3  C   UNL     1      39.303 -14.755   1.481  1.00  0.00     0.207 C 
HETATM    4  O   UNL     1      38.090 -14.698   1.312  1.00  0.00    -0.279 OA
HETATM    5  N   UNL     1      40.181 -13.763   1.072  1.00  0.00    -0.227 NA
HETATM    6  C   UNL     1      40.365 -12.741   2.040  1.00  0.00     0.042 A 
HETATM    7  C   UNL     1      41.191 -12.975   3.160  1.00  0.00     0.059 A 
HETATM    8  N   UNL     1      41.618 -14.320   3.481  1.00  0.00    -0.309 N 
HETATM    9  C   UNL     1      42.918 -14.540   4.013  1.00  0.00     0.298 C 
HETATM   10  O   UNL     1      43.739 -13.625   4.119  1.00  0.00    -0.264 OA
HETATM   11  C   UNL     1      40.502 -15.300   3.585  1.00  0.00     0.145 C 
HETATM   12  C   UNL     1      39.826 -11.483   1.775  1.00  0.00     0.026 A 
HETATM   13  C   UNL     1      40.124 -10.420   2.623  1.00  0.00     0.002 A 
HETATM   14  C   UNL     1      40.967 -10.619   3.718  1.00  0.00     0.002 A 
HETATM   15  C   UNL     1      41.498 -11.887   3.985  1.00  0.00     0.031 A 
HETATM   16  H   UNL     1      41.093 -14.185   0.925  1.00  0.00     0.136 HD
ENDROOT
BRANCH   9  17
HETATM   17  C   UNL     1      43.321 -15.927   4.384  1.00  0.00     0.239 A 
HETATM   18  N   UNL     1      43.430 -16.917   3.477  1.00  0.00    -0.140 NA
HETATM   19  N   UNL     1      43.741 -18.001   4.225  1.00  0.00    -0.225 N 
HETATM   20  C   UNL     1      43.812 -17.632   5.542  1.00  0.00     0.237 A 
HETATM   21  N   UNL     1      43.547 -16.355   5.676  1.00  0.00    -0.216 NA
BRANCH  19  22
HETATM   22  C   UNL     1      43.944 -19.284   3.654  1.00  0.00     0.059 A 
HETATM   23  C   UNL     1      44.656 -20.255   4.375  1.00  0.00     0.031 A 
HETATM   24  C   UNL     1      44.870 -21.520   3.823  1.00  0.00     0.002 A 
HETATM   25  C   UNL     1      44.375 -21.825   2.557  1.00  0.00     0.000 A 
HETATM   26  C   UNL     1      43.665 -20.866   1.837  1.00  0.00     0.002 A 
HETATM   27  C   UNL     1      43.448 -19.597   2.380  1.00  0.00     0.031 A 
ENDBRANCH  19  22
ENDBRANCH   9  17
TORSDOF 2
ENDMDL
MODEL 7
REMARK VINA RESULT:      -8.4      2.570      4.325
REMARK  2 active torsions:
REMARK  status: ('A' for Active; 'I' for Inactive)
REMARK       I    between atoms: N_8  and  C_9 
REMARK    1  A    between atoms: C_9  and  C_10 
REMARK    2  A    between atoms: N_12  and  C_13 
ROOT
HETATM    1  C   UNL     1      41.896 -17.873   1.373  1.00  0.00     0.021 C 
HETATM    2  C   UNL     1      43.285 -17.760   1.995  1.00  0.00     0.087 C 
HETATM    3  C   UNL     1      43.475 -18.730   3.148  1.00  0.00     0.207 C 
HETATM    4  O   UNL     1      44.361 -19.578   3.153  1.00  0.00    -0.279 OA
HETATM    5  N   UNL     1      42.629 -18.500   4.221  1.00  0.00    -0.227 NA
HETATM    6  C   UNL     1      43.147 -17.563   5.154  1.00  0.00     0.042 A 
HETATM    7  C   UNL     1      43.109 -16.184   4.861  1.00  0.00     0.059 A 
HETATM    8  N   UNL     1      42.816 -15.734   3.516  1.00  0.00    -0.309 N 
HETATM    9  C   UNL     1      42.054 -14.550   3.318  1.00  0.00     0.298 C 
HETATM   10  O   UNL     1      41.546 -13.939   4.263  1.00  0.00    -0.264 OA
HETATM   11  C   UNL     1      43.678 -16.351   2.471  1.00  0.00     0.145 C 
HETATM   12  C   UNL     1      43.554 -18.037   6.401  1.00  0.00     0.026 A 
HETATM   13  C   UNL     1      43.915 -17.129   7.392  1.00  0.00     0.002 A 
HETATM   14  C   UNL     1      43.852 -15.759   7.136  1.00  0.00     0.002 A 
HETATM   15  C   UNL     1      43.451 -15.288   5.880  1.00  0.00     0.031 A 
HETATM   16  H   UNL     1      41.765 -18.100   3.867  1.00  0.00     0.136 HD
ENDROOT
BRANCH   9  17
HETATM   17  C   UNL     1      41.806 -14.076   1.927  1.00  0.00     0.239 A 
HETATM   18  N   UNL     1      41.050 -14.765   1.050  1.00  0.00    -0.140 NA
HETATM   19  N   UNL     1      41.138 -14.038  -0.087  1.00  0.00    -0.225 N 
HETATM   20  C   UNL     1      41.934 -12.946   0.138  1.00  0.00     0.237 A 
HETATM   21  N   UNL     1      42.371 -12.944   1.374  1.00  0.00    -0.216 NA
BRANCH  19  22
HETATM   22  C   UNL     1      40.481 -14.421  -1.286  1.00  0.00     0.059 A 
HETATM   23  C   UNL     1      40.956 -15.524  -2.011  1.00  0.00     0.031 A 
HETATM   24  C   UNL     1      40.324 -15.908  -3.196  1.00  0.00     0.002 A 
HETATM   25  C   UNL     1      39.218 -15.200  -3.661  1.00  0.00     0.000 A 
HETATM   26  C   UNL     1      38.740 -14.105  -2.943  1.00  0.00     0.002 A 
HETATM   27  C   UNL     1      39.367 -13.712  -1.758  1.00  0.00     0.031 A 
ENDBRANCH  19  22
ENDBRANCH   9  17
TORSDOF 2
ENDMDL
MODEL 8
REMARK VINA RESULT:      -8.2      3.008      4.576
REMARK  2 active torsions:
REMARK  status: ('A' for Active; 'I' for Inactive)
REMARK       I    between atoms: N_8  and  C_9 
REMARK    1  A    between atoms: C_9  and  C_10 
REMARK    2  A    between atoms: N_12  and  C_13 
ROOT
HETATM    1  C   UNL     1      41.987 -18.096   1.370  1.00  0.00     0.021 C 
HETATM    2  C   UNL     1      43.378 -17.916   1.969  1.00  0.00     0.087 C 
HETATM    3  C   UNL     1      43.617 -18.846   3.146  1.00  0.00     0.207 C 
HETATM    4  O   UNL     1      44.533 -19.661   3.164  1.00  0.00    -0.279 OA
HETATM    5  N   UNL     1      42.778 -18.614   4.225  1.00  0.00    -0.227 NA
HETATM    6  C   UNL     1      43.275 -17.633   5.123  1.00  0.00     0.042 A 
HETATM    7  C   UNL     1      43.184 -16.265   4.791  1.00  0.00     0.059 A 
HETATM    8  N   UNL     1      42.857 -15.865   3.438  1.00  0.00    -0.309 N 
HETATM    9  C   UNL     1      42.052 -14.714   3.217  1.00  0.00     0.298 C 
HETATM   10  O   UNL     1      41.535 -14.095   4.151  1.00  0.00    -0.264 OA
HETATM   11  C   UNL     1      43.728 -16.481   2.399  1.00  0.00     0.145 C 
HETATM   12  C   UNL     1      43.715 -18.056   6.377  1.00  0.00     0.026 A 
HETATM   13  C   UNL     1      44.055 -17.107   7.337  1.00  0.00     0.002 A 
HETATM   14  C   UNL     1      43.941 -15.748   7.042  1.00  0.00     0.002 A 
HETATM   15  C   UNL     1      43.508 -15.328   5.779  1.00  0.00     0.031 A 
HETATM   16  H   UNL     1      41.895 -18.256   3.871  1.00  0.00     0.136 HD
ENDROOT
BRANCH   9  17
HETATM   17  C   UNL     1      41.769 -14.290   1.816  1.00  0.00     0.239 A 
HETATM   18  N   UNL     1      42.389 -13.246   1.235  1.00  0.00    -0.140 NA
HETATM   19  N   UNL     1      41.803 -13.162   0.019  1.00  0.00    -0.225 N 
HETATM   20  C   UNL     1      40.860 -14.150  -0.094  1.00  0.00     0.237 A 
HETATM   21  N   UNL     1      40.807 -14.861   1.007  1.00  0.00    -0.216 NA
BRANCH  19  22
HETATM   22  C   UNL     1      42.165 -12.173  -0.933  1.00  0.00     0.059 A 
HETATM   23  C   UNL     1      42.018 -12.446  -2.301  1.00  0.00     0.031 A 
HETATM   24  C   UNL     1      42.377 -11.486  -3.249  1.00  0.00     0.002 A 
HETATM   25  C   UNL     1      42.880 -10.252  -2.841  1.00  0.00     0.000 A 
HETATM   26  C   UNL     1      43.026  -9.975  -1.483  1.00  0.00     0.002 A 
HETATM   27  C   UNL     1      42.672 -10.930  -0.527  1.00  0.00     0.031 A 
ENDBRANCH  19  22
ENDBRANCH   9  17
TORSDOF 2
ENDMDL
MODEL 9
REMARK VINA RESULT:      -8.1      3.340      8.239
REMARK  2 active torsions:
REMARK  status: ('A' for Active; 'I' for Inactive)
REMARK       I    between atoms: N_8  and  C_9 
REMARK    1  A    between atoms: C_9  and  C_10 
REMARK    2  A    between atoms: N_12  and  C_13 
ROOT
HETATM    1  C   UNL     1      39.865 -13.004   2.450  1.00  0.00     0.021 C 
HETATM    2  C   UNL     1      41.128 -12.291   1.977  1.00  0.00     0.087 C 
HETATM    3  C   UNL     1      40.812 -11.027   1.196  1.00  0.00     0.207 C 
HETATM    4  O   UNL     1      41.218  -9.923   1.541  1.00  0.00    -0.279 OA
HETATM    5  N   UNL     1      40.118 -11.254   0.018  1.00  0.00    -0.227 NA
HETATM    6  C   UNL     1      40.965 -11.518  -1.091  1.00  0.00     0.042 A 
HETATM    7  C   UNL     1      41.565 -12.787  -1.230  1.00  0.00     0.059 A 
HETATM    8  N   UNL     1      41.563 -13.719  -0.123  1.00  0.00    -0.309 N 
HETATM    9  C   UNL     1      41.428 -15.112  -0.372  1.00  0.00     0.298 C 
HETATM   10  O   UNL     1      41.211 -15.550  -1.505  1.00  0.00    -0.264 OA
HETATM   11  C   UNL     1      42.095 -13.151   1.147  1.00  0.00     0.145 C 
HETATM   12  C   UNL     1      41.062 -10.547  -2.086  1.00  0.00     0.026 A 
HETATM   13  C   UNL     1      41.753 -10.838  -3.259  1.00  0.00     0.002 A 
HETATM   14  C   UNL     1      42.326 -12.098  -3.434  1.00  0.00     0.002 A 
HETATM   15  C   UNL     1      42.234 -13.067  -2.428  1.00  0.00     0.031 A 
HETATM   16  H   UNL     1      39.542 -12.083   0.141  1.00  0.00     0.136 HD
ENDROOT
BRANCH   9  17
HETATM   17  C   UNL     1      41.477 -16.060   0.778  1.00  0.00     0.239 A 
HETATM   18  N   UNL     1      42.551 -16.829   1.038  1.00  0.00    -0.140 NA
HETATM   19  N   UNL     1      42.162 -17.573   2.099  1.00  0.00    -0.225 N 
HETATM   20  C   UNL     1      40.881 -17.230   2.441  1.00  0.00     0.237 A 
HETATM   21  N   UNL     1      40.424 -16.301   1.637  1.00  0.00    -0.216 NA
BRANCH  19  22
HETATM   22  C   UNL     1      43.010 -18.539   2.701  1.00  0.00     0.059 A 
HETATM   23  C   UNL     1      43.457 -19.632   1.943  1.00  0.00     0.031 A 
HETATM   24  C   UNL     1      44.285 -20.594   2.523  1.00  0.00     0.002 A 
HETATM   25  C   UNL     1      44.674 -20.473   3.856  1.00  0.00     0.000 A 
HETATM   26  C   UNL     1      44.236 -19.388   4.612  1.00  0.00     0.002 A 
HETATM   27  C   UNL     1      43.404 -18.421   4.041  1.00  0.00     0.031 A 
ENDBRANCH  19  22
ENDBRANCH   9  17
TORSDOF 2
ENDMDL
MODEL 10
REMARK VINA RESULT:      -7.8      2.694      8.122
REMARK  2 active torsions:
REMARK  status: ('A' for Active; 'I' for Inactive)
REMARK       I    between atoms: N_8  and  C_9 
REMARK    1  A    between atoms: C_9  and  C_10 
REMARK    2  A    between atoms: N_12  and  C_13 
ROOT
HETATM    1  C   UNL     1      42.062 -16.600  -0.417  1.00  0.00     0.021 C 
HETATM    2  C   UNL     1      40.852 -15.672  -0.397  1.00  0.00     0.087 C 
HETATM    3  C   UNL     1      40.859 -14.701  -1.565  1.00  0.00     0.207 C 
HETATM    4  O   UNL     1      39.946 -14.649  -2.382  1.00  0.00    -0.279 OA
HETATM    5  N   UNL     1      41.931 -13.822  -1.558  1.00  0.00    -0.227 NA
HETATM    6  C   UNL     1      41.686 -12.643  -0.806  1.00  0.00     0.042 A 
HETATM    7  C   UNL     1      41.743 -12.683   0.603  1.00  0.00     0.059 A 
HETATM    8  N   UNL     1      41.763 -13.955   1.294  1.00  0.00    -0.309 N 
HETATM    9  C   UNL     1      42.533 -14.103   2.480  1.00  0.00     0.298 C 
HETATM   10  O   UNL     1      43.271 -13.203   2.891  1.00  0.00    -0.264 OA
HETATM   11  C   UNL     1      40.658 -14.873   0.903  1.00  0.00     0.145 C 
HETATM   12  C   UNL     1      41.533 -11.443  -1.500  1.00  0.00     0.026 A 
HETATM   13  C   UNL     1      41.453 -10.249  -0.790  1.00  0.00     0.002 A 
HETATM   14  C   UNL     1      41.541 -10.261   0.603  1.00  0.00     0.002 A 
HETATM   15  C   UNL     1      41.686 -11.468   1.296  1.00  0.00     0.031 A 
HETATM   16  H   UNL     1      42.720 -14.284  -1.115  1.00  0.00     0.136 HD
ENDROOT
BRANCH   9  17
HETATM   17  C   UNL     1      42.501 -15.405   3.205  1.00  0.00     0.239 A 
HETATM   18  N   UNL     1      43.336 -16.420   2.910  1.00  0.00    -0.140 NA
HETATM   19  N   UNL     1      42.934 -17.414   3.734  1.00  0.00    -0.225 N 
HETATM   20  C   UNL     1      41.882 -16.971   4.492  1.00  0.00     0.237 A 
HETATM   21  N   UNL     1      41.583 -15.733   4.182  1.00  0.00    -0.216 NA
BRANCH  19  22
HETATM   22  C   UNL     1      43.557 -18.689   3.746  1.00  0.00     0.059 A 
HETATM   23  C   UNL     1      43.583 -19.455   2.570  1.00  0.00     0.031 A 
HETATM   24  C   UNL     1      44.186 -20.714   2.568  1.00  0.00     0.002 A 
HETATM   25  C   UNL     1      44.767 -21.215   3.732  1.00  0.00     0.000 A 
HETATM   26  C   UNL     1      44.746 -20.458   4.901  1.00  0.00     0.002 A 
HETATM   27  C   UNL     1      44.143 -19.198   4.914  1.00  0.00     0.031 A 
ENDBRANCH  19  22
ENDBRANCH   9  17
TORSDOF 2
ENDMDL
