MODEL 1
REMARK VINA RESULT:      -8.8      0.000      0.000
REMARK  2 active torsions:
REMARK  status: ('A' for Active; 'I' for Inactive)
REMARK    1  A    between atoms: C_6  and  N_7 
REMARK    2  A    between atoms: N_7  and  C_8 
ROOT
HETATM    1  C   UNL     1      42.933 -14.481   6.071  1.00  0.00     0.093 C 
HETATM    2  C   UNL     1      43.060 -15.769   5.318  1.00  0.00     0.125 A 
HETATM    3  N   UNL     1      43.872 -16.697   5.820  1.00  0.00    -0.226 NA
HETATM    4  C   UNL     1      43.940 -17.803   5.065  1.00  0.00     0.114 A 
HETATM    5  C   UNL     1      43.278 -18.042   3.865  1.00  0.00     0.053 A 
HETATM    6  C   UNL     1      42.414 -17.003   3.429  1.00  0.00     0.143 A 
HETATM    7  N   UNL     1      42.348 -15.879   4.184  1.00  0.00    -0.215 NA
HETATM    8  S   UNL     1      44.914 -19.103   5.570  1.00  0.00    -0.073 SA
HETATM    9  C   UNL     1      44.492 -20.025   4.212  1.00  0.00    -0.008 A 
HETATM   10  C   UNL     1      43.646 -19.352   3.346  1.00  0.00    -0.028 A 
HETATM   11  C   UNL     1      43.183 -19.999   2.069  1.00  0.00     0.041 C 
HETATM   12  C   UNL     1      43.983 -21.262   1.716  1.00  0.00     0.005 C 
HETATM   13  C   UNL     1      44.224 -22.149   2.942  1.00  0.00     0.005 C 
HETATM   14  C   UNL     1      45.038 -21.405   4.008  1.00  0.00     0.047 C 
ENDROOT
BRANCH   6  15
HETATM   15  N   UNL     1      41.654 -17.102   2.252  1.00  0.00    -0.340 N 
HETATM   16  H   UNL     1      41.460 -18.048   1.974  1.00  0.00     0.167 HD
BRANCH  15  17
HETATM   17  C   UNL     1      40.982 -16.144   1.467  1.00  0.00     0.036 A 
HETATM   18  C   UNL     1      41.557 -15.778   0.236  1.00  0.00     0.069 A 
HETATM   19  C   UNL     1      40.929 -14.823  -0.538  1.00  0.00     0.107 A 
HETATM   20  C   UNL     1      39.766 -14.216  -0.136  1.00  0.00     0.105 A 
HETATM   21  O   UNL     1      41.357 -14.374  -1.749  1.00  0.00    -0.323 OA
HETATM   22  O   UNL     1      39.311 -13.310  -1.041  1.00  0.00    -0.323 OA
HETATM   23  C   UNL     1      39.174 -14.528   1.064  1.00  0.00     0.042 A 
HETATM   24  C   UNL     1      40.325 -13.414  -2.061  1.00  0.00     0.352 A 
HETATM   25  C   UNL     1      39.796 -15.494   1.868  1.00  0.00     0.032 A 
ENDBRANCH  15  17
ENDBRANCH   6  15
TORSDOF 2
ENDMDL
MODEL 2
REMARK VINA RESULT:      -8.6      1.530      3.939
REMARK  2 active torsions:
REMARK  status: ('A' for Active; 'I' for Inactive)
REMARK    1  A    between atoms: C_6  and  N_7 
REMARK    2  A    between atoms: N_7  and  C_8 
ROOT
HETATM    1  C   UNL     1      44.096 -21.738   1.721  1.00  0.00     0.093 C 
HETATM    2  C   UNL     1      43.991 -20.444   2.468  1.00  0.00     0.125 A 
HETATM    3  N   UNL     1      44.250 -20.465   3.774  1.00  0.00    -0.226 NA
HETATM    4  C   UNL     1      44.104 -19.268   4.359  1.00  0.00     0.114 A 
HETATM    5  C   UNL     1      43.719 -18.078   3.752  1.00  0.00     0.053 A 
HETATM    6  C   UNL     1      43.494 -18.154   2.352  1.00  0.00     0.143 A 
HETATM    7  N   UNL     1      43.631 -19.364   1.756  1.00  0.00    -0.215 NA
HETATM    8  S   UNL     1      44.419 -19.107   6.024  1.00  0.00    -0.073 SA
HETATM    9  C   UNL     1      44.050 -17.453   5.994  1.00  0.00    -0.008 A 
HETATM   10  C   UNL     1      43.651 -17.013   4.742  1.00  0.00    -0.028 A 
HETATM   11  C   UNL     1      43.257 -15.577   4.524  1.00  0.00     0.041 C 
HETATM   12  C   UNL     1      43.041 -14.811   5.839  1.00  0.00     0.005 C 
HETATM   13  C   UNL     1      44.131 -15.124   6.869  1.00  0.00     0.005 C 
HETATM   14  C   UNL     1      44.134 -16.614   7.232  1.00  0.00     0.047 C 
ENDROOT
BRANCH   6  15
HETATM   15  N   UNL     1      43.127 -17.034   1.587  1.00  0.00    -0.340 N 
HETATM   16  H   UNL     1      43.851 -16.709   0.971  1.00  0.00     0.167 HD
BRANCH  15  17
HETATM   17  C   UNL     1      41.900 -16.367   1.401  1.00  0.00     0.036 A 
HETATM   18  C   UNL     1      41.817 -15.413   0.370  1.00  0.00     0.069 A 
HETATM   19  C   UNL     1      40.633 -14.729   0.185  1.00  0.00     0.107 A 
HETATM   20  C   UNL     1      39.539 -14.947   0.983  1.00  0.00     0.105 A 
HETATM   21  O   UNL     1      40.400 -13.788  -0.770  1.00  0.00    -0.323 OA
HETATM   22  O   UNL     1      38.477 -14.176   0.634  1.00  0.00    -0.323 OA
HETATM   23  C   UNL     1      39.574 -15.858   2.012  1.00  0.00     0.042 A 
HETATM   24  C   UNL     1      39.029 -13.441  -0.478  1.00  0.00     0.352 A 
HETATM   25  C   UNL     1      40.769 -16.563   2.220  1.00  0.00     0.032 A 
ENDBRANCH  15  17
ENDBRANCH   6  15
TORSDOF 2
ENDMDL
MODEL 3
REMARK VINA RESULT:      -8.3      3.779      7.042
REMARK  2 active torsions:
REMARK  status: ('A' for Active; 'I' for Inactive)
REMARK    1  A    between atoms: C_6  and  N_7 
REMARK    2  A    between atoms: N_7  and  C_8 
ROOT
HETATM    1  C   UNL     1      41.054 -16.419   6.608  1.00  0.00     0.093 C 
HETATM    2  C   UNL     1      41.124 -16.237   5.124  1.00  0.00     0.125 A 
HETATM    3  N   UNL     1      40.322 -15.325   4.578  1.00  0.00    -0.226 NA
HETATM    4  C   UNL     1      40.437 -15.253   3.244  1.00  0.00     0.114 A 
HETATM    5  C   UNL     1      41.270 -16.014   2.431  1.00  0.00     0.053 A 
HETATM    6  C   UNL     1      42.107 -16.938   3.111  1.00  0.00     0.143 A 
HETATM    7  N   UNL     1      41.988 -17.022   4.460  1.00  0.00    -0.215 NA
HETATM    8  S   UNL     1      39.501 -14.122   2.383  1.00  0.00    -0.073 SA
HETATM    9  C   UNL     1      40.168 -14.608   0.903  1.00  0.00    -0.008 A 
HETATM   10  C   UNL     1      41.071 -15.650   1.035  1.00  0.00    -0.028 A 
HETATM   11  C   UNL     1      41.748 -16.236  -0.174  1.00  0.00     0.041 C 
HETATM   12  C   UNL     1      41.097 -15.795  -1.495  1.00  0.00     0.005 C 
HETATM   13  C   UNL     1      40.759 -14.301  -1.495  1.00  0.00     0.005 C 
HETATM   14  C   UNL     1      39.757 -13.962  -0.385  1.00  0.00     0.047 C 
ENDROOT
BRANCH   6  15
HETATM   15  N   UNL     1      43.024 -17.760   2.436  1.00  0.00    -0.340 N 
HETATM   16  H   UNL     1      43.587 -17.271   1.763  1.00  0.00     0.167 HD
BRANCH  15  17
HETATM   17  C   UNL     1      43.416 -19.101   2.618  1.00  0.00     0.036 A 
HETATM   18  C   UNL     1      44.028 -19.452   3.836  1.00  0.00     0.069 A 
HETATM   19  C   UNL     1      44.443 -20.754   4.025  1.00  0.00     0.107 A 
HETATM   20  C   UNL     1      44.285 -21.712   3.056  1.00  0.00     0.105 A 
HETATM   21  O   UNL     1      45.039 -21.242   5.146  1.00  0.00    -0.323 OA
HETATM   22  O   UNL     1      44.758 -22.926   3.442  1.00  0.00    -0.323 OA
HETATM   23  C   UNL     1      43.708 -21.416   1.845  1.00  0.00     0.042 A 
HETATM   24  C   UNL     1      45.236 -22.622   4.768  1.00  0.00     0.352 A 
HETATM   25  C   UNL     1      43.280 -20.098   1.629  1.00  0.00     0.032 A 
ENDBRANCH  15  17
ENDBRANCH   6  15
TORSDOF 2
ENDMDL
MODEL 4
REMARK VINA RESULT:      -8.2      2.214      2.975
REMARK  2 active torsions:
REMARK  status: ('A' for Active; 'I' for Inactive)
REMARK    1  A    between atoms: C_6  and  N_7 
REMARK    2  A    between atoms: N_7  and  C_8 
ROOT
HETATM    1  C   UNL     1      39.527 -13.282   6.109  1.00  0.00     0.093 C 
HETATM    2  C   UNL     1      40.210 -14.309   5.259  1.00  0.00     0.125 A 
HETATM    3  N   UNL     1      41.016 -15.175   5.870  1.00  0.00    -0.226 NA
HETATM    4  C   UNL     1      41.601 -16.036   5.025  1.00  0.00     0.114 A 
HETATM    5  C   UNL     1      41.450 -16.090   3.644  1.00  0.00     0.053 A 
HETATM    6  C   UNL     1      40.547 -15.144   3.092  1.00  0.00     0.143 A 
HETATM    7  N   UNL     1      39.960 -14.264   3.941  1.00  0.00    -0.215 NA
HETATM    8  S   UNL     1      42.646 -17.230   5.639  1.00  0.00    -0.073 SA
HETATM    9  C   UNL     1      42.937 -17.856   4.091  1.00  0.00    -0.008 A 
HETATM   10  C   UNL     1      42.282 -17.152   3.094  1.00  0.00    -0.028 A 
HETATM   11  C   UNL     1      42.439 -17.543   1.650  1.00  0.00     0.041 C 
HETATM   12  C   UNL     1      43.599 -18.525   1.420  1.00  0.00     0.005 C 
HETATM   13  C   UNL     1      43.637 -19.625   2.486  1.00  0.00     0.005 C 
HETATM   14  C   UNL     1      43.844 -19.030   3.884  1.00  0.00     0.047 C 
ENDROOT
BRANCH   6  15
HETATM   15  N   UNL     1      40.264 -15.087   1.718  1.00  0.00    -0.340 N 
HETATM   16  H   UNL     1      39.387 -15.510   1.467  1.00  0.00     0.167 HD
BRANCH  15  17
HETATM   17  C   UNL     1      40.889 -14.427   0.641  1.00  0.00     0.036 A 
HETATM   18  C   UNL     1      41.556 -13.216   0.906  1.00  0.00     0.069 A 
HETATM   19  C   UNL     1      42.153 -12.539  -0.138  1.00  0.00     0.107 A 
HETATM   20  C   UNL     1      42.107 -13.009  -1.426  1.00  0.00     0.105 A 
HETATM   21  O   UNL     1      42.837 -11.367  -0.037  1.00  0.00    -0.323 OA
HETATM   22  O   UNL     1      42.757 -12.198  -2.300  1.00  0.00    -0.323 OA
HETATM   23  C   UNL     1      41.456 -14.179  -1.738  1.00  0.00     0.042 A 
HETATM   24  C   UNL     1      43.216 -11.158  -1.414  1.00  0.00     0.352 A 
HETATM   25  C   UNL     1      40.839 -14.882  -0.693  1.00  0.00     0.032 A 
ENDBRANCH  15  17
ENDBRANCH   6  15
TORSDOF 2
ENDMDL
MODEL 5
REMARK VINA RESULT:      -8.0      1.783      2.547
REMARK  2 active torsions:
REMARK  status: ('A' for Active; 'I' for Inactive)
REMARK    1  A    between atoms: C_6  and  N_7 
REMARK    2  A    between atoms: N_7  and  C_8 
ROOT
HETATM    1  C   UNL     1      40.061 -12.577   6.243  1.00  0.00     0.093 C 
HETATM    2  C   UNL     1      40.549 -13.766   5.476  1.00  0.00     0.125 A 
HETATM    3  N   UNL     1      41.642 -14.380   5.925  1.00  0.00    -0.226 NA
HETATM    4  C   UNL     1      42.017 -15.416   5.160  1.00  0.00     0.114 A 
HETATM    5  C   UNL     1      41.399 -15.868   3.999  1.00  0.00     0.053 A 
HETATM    6  C   UNL     1      40.225 -15.165   3.619  1.00  0.00     0.143 A 
HETATM    7  N   UNL     1      39.847 -14.111   4.385  1.00  0.00    -0.215 NA
HETATM    8  S   UNL     1      43.382 -16.331   5.600  1.00  0.00    -0.073 SA
HETATM    9  C   UNL     1      43.201 -17.355   4.263  1.00  0.00    -0.008 A 
HETATM   10  C   UNL     1      42.136 -16.998   3.451  1.00  0.00    -0.028 A 
HETATM   11  C   UNL     1      41.832 -17.775   2.199  1.00  0.00     0.041 C 
HETATM   12  C   UNL     1      42.973 -18.722   1.792  1.00  0.00     0.005 C 
HETATM   13  C   UNL     1      43.553 -19.470   2.997  1.00  0.00     0.005 C 
HETATM   14  C   UNL     1      44.146 -18.491   4.019  1.00  0.00     0.047 C 
ENDROOT
BRANCH   6  15
HETATM   15  N   UNL     1      39.471 -15.516   2.489  1.00  0.00    -0.340 N 
HETATM   16  H   UNL     1      38.863 -16.303   2.635  1.00  0.00     0.167 HD
BRANCH  15  17
HETATM   17  C   UNL     1      39.284 -14.897   1.237  1.00  0.00     0.036 A 
HETATM   18  C   UNL     1      40.354 -14.915   0.324  1.00  0.00     0.069 A 
HETATM   19  C   UNL     1      40.202 -14.293  -0.899  1.00  0.00     0.107 A 
HETATM   20  C   UNL     1      39.040 -13.651  -1.244  1.00  0.00     0.105 A 
HETATM   21  O   UNL     1      41.140 -14.234  -1.882  1.00  0.00    -0.323 OA
HETATM   22  O   UNL     1      39.094 -13.108  -2.488  1.00  0.00    -0.323 OA
HETATM   23  C   UNL     1      37.971 -13.593  -0.382  1.00  0.00     0.042 A 
HETATM   24  C   UNL     1      40.429 -13.480  -2.888  1.00  0.00     0.352 A 
HETATM   25  C   UNL     1      38.105 -14.216   0.868  1.00  0.00     0.032 A 
ENDBRANCH  15  17
ENDBRANCH   6  15
TORSDOF 2
ENDMDL
MODEL 6
REMARK VINA RESULT:      -7.9      3.202      6.493
REMARK  2 active torsions:
REMARK  status: ('A' for Active; 'I' for Inactive)
REMARK    1  A    between atoms: C_6  and  N_7 
REMARK    2  A    between atoms: N_7  and  C_8 
ROOT
HETATM    1  C   UNL     1      45.086 -13.734   7.397  1.00  0.00     0.093 C 
HETATM    2  C   UNL     1      44.096 -14.108   6.337  1.00  0.00     0.125 A 
HETATM    3  N   UNL     1      43.605 -13.128   5.581  1.00  0.00    -0.226 NA
HETATM    4  C   UNL     1      42.709 -13.556   4.680  1.00  0.00     0.114 A 
HETATM    5  C   UNL     1      42.270 -14.861   4.488  1.00  0.00     0.053 A 
HETATM    6  C   UNL     1      42.875 -15.837   5.324  1.00  0.00     0.143 A 
HETATM    7  N   UNL     1      43.775 -15.408   6.243  1.00  0.00    -0.215 NA
HETATM    8  S   UNL     1      41.997 -12.439   3.612  1.00  0.00    -0.073 SA
HETATM    9  C   UNL     1      41.080 -13.650   2.862  1.00  0.00    -0.008 A 
HETATM   10  C   UNL     1      41.270 -14.900   3.430  1.00  0.00    -0.028 A 
HETATM   11  C   UNL     1      40.520 -16.098   2.916  1.00  0.00     0.041 C 
HETATM   12  C   UNL     1      39.356 -15.719   1.986  1.00  0.00     0.005 C 
HETATM   13  C   UNL     1      39.749 -14.619   0.995  1.00  0.00     0.005 C 
HETATM   14  C   UNL     1      40.152 -13.335   1.730  1.00  0.00     0.047 C 
ENDROOT
BRANCH   6  15
HETATM   15  N   UNL     1      42.561 -17.203   5.235  1.00  0.00    -0.340 N 
HETATM   16  H   UNL     1      41.616 -17.419   5.501  1.00  0.00     0.167 HD
BRANCH  15  17
HETATM   17  C   UNL     1      43.255 -18.309   4.706  1.00  0.00     0.036 A 
HETATM   18  C   UNL     1      42.892 -18.766   3.426  1.00  0.00     0.069 A 
HETATM   19  C   UNL     1      43.541 -19.864   2.899  1.00  0.00     0.107 A 
HETATM   20  C   UNL     1      44.523 -20.526   3.591  1.00  0.00     0.105 A 
HETATM   21  O   UNL     1      43.306 -20.415   1.677  1.00  0.00    -0.323 OA
HETATM   22  O   UNL     1      45.035 -21.575   2.896  1.00  0.00    -0.323 OA
HETATM   23  C   UNL     1      44.903 -20.127   4.850  1.00  0.00     0.042 A 
HETATM   24  C   UNL     1      44.258 -21.500   1.683  1.00  0.00     0.352 A 
HETATM   25  C   UNL     1      44.255 -19.014   5.407  1.00  0.00     0.032 A 
ENDBRANCH  15  17
ENDBRANCH   6  15
TORSDOF 2
ENDMDL
MODEL 7
REMARK VINA RESULT:      -7.8      3.740      6.889
REMARK  2 active torsions:
REMARK  status: ('A' for Active; 'I' for Inactive)
REMARK    1  A    between atoms: C_6  and  N_7 
REMARK    2  A    between atoms: N_7  and  C_8 
ROOT
HETATM    1  C   UNL     1      42.153 -12.877   5.219  1.00  0.00     0.093 C 
HETATM    2  C   UNL     1      42.004 -13.401   3.824  1.00  0.00     0.125 A 
HETATM    3  N   UNL     1      42.026 -12.516   2.829  1.00  0.00    -0.226 NA
HETATM    4  C   UNL     1      41.860 -13.075   1.622  1.00  0.00     0.114 A 
HETATM    5  C   UNL     1      41.669 -14.423   1.341  1.00  0.00     0.053 A 
HETATM    6  C   UNL     1      41.690 -15.289   2.466  1.00  0.00     0.143 A 
HETATM    7  N   UNL     1      41.849 -14.728   3.691  1.00  0.00    -0.215 NA
HETATM    8  S   UNL     1      41.886 -12.091   0.234  1.00  0.00    -0.073 SA
HETATM    9  C   UNL     1      41.640 -13.422  -0.786  1.00  0.00    -0.008 A 
HETATM   10  C   UNL     1      41.498 -14.613  -0.093  1.00  0.00    -0.028 A 
HETATM   11  C   UNL     1      41.246 -15.902  -0.826  1.00  0.00     0.041 C 
HETATM   12  C   UNL     1      40.853 -15.685  -2.296  1.00  0.00     0.005 C 
HETATM   13  C   UNL     1      41.720 -14.616  -2.969  1.00  0.00     0.005 C 
HETATM   14  C   UNL     1      41.559 -13.259  -2.273  1.00  0.00     0.047 C 
ENDROOT
BRANCH   6  15
HETATM   15  N   UNL     1      41.539 -16.680   2.347  1.00  0.00    -0.340 N 
HETATM   16  H   UNL     1      40.687 -16.958   1.893  1.00  0.00     0.167 HD
BRANCH  15  17
HETATM   17  C   UNL     1      42.409 -17.759   2.601  1.00  0.00     0.036 A 
HETATM   18  C   UNL     1      42.645 -18.117   3.941  1.00  0.00     0.069 A 
HETATM   19  C   UNL     1      43.513 -19.154   4.214  1.00  0.00     0.107 A 
HETATM   20  C   UNL     1      44.159 -19.839   3.216  1.00  0.00     0.105 A 
HETATM   21  O   UNL     1      43.834 -19.617   5.452  1.00  0.00    -0.323 OA
HETATM   22  O   UNL     1      44.965 -20.822   3.695  1.00  0.00    -0.323 OA
HETATM   23  C   UNL     1      43.973 -19.518   1.892  1.00  0.00     0.042 A 
HETATM   24  C   UNL     1      44.756 -20.676   5.114  1.00  0.00     0.352 A 
HETATM   25  C   UNL     1      43.096 -18.466   1.592  1.00  0.00     0.032 A 
ENDBRANCH  15  17
ENDBRANCH   6  15
TORSDOF 2
ENDMDL
MODEL 8
REMARK VINA RESULT:      -7.8      3.545      7.017
REMARK  2 active torsions:
REMARK  status: ('A' for Active; 'I' for Inactive)
REMARK    1  A    between atoms: C_6  and  N_7 
REMARK    2  A    between atoms: N_7  and  C_8 
ROOT
HETATM    1  C   UNL     1      39.970 -14.162   5.161  1.00  0.00     0.093 C 
HETATM    2  C   UNL     1      40.176 -14.372   3.693  1.00  0.00     0.125 A 
HETATM    3  N   UNL     1      39.340 -13.753   2.861  1.00  0.00    -0.226 NA
HETATM    4  C   UNL     1      39.587 -14.023   1.571  1.00  0.00     0.114 A 
HETATM    5  C   UNL     1      40.579 -14.854   1.061  1.00  0.00     0.053 A 
HETATM    6  C   UNL     1      41.435 -15.444   2.028  1.00  0.00     0.143 A 
HETATM    7  N   UNL     1      41.185 -15.182   3.335  1.00  0.00    -0.215 NA
HETATM    8  S   UNL     1      38.629 -13.297   0.366  1.00  0.00    -0.073 SA
HETATM    9  C   UNL     1      39.496 -14.064  -0.871  1.00  0.00    -0.008 A 
HETATM   10  C   UNL     1      40.490 -14.903  -0.392  1.00  0.00    -0.028 A 
HETATM   11  C   UNL     1      41.350 -15.692  -1.340  1.00  0.00     0.041 C 
HETATM   12  C   UNL     1      40.797 -15.708  -2.774  1.00  0.00     0.005 C 
HETATM   13  C   UNL     1      40.300 -14.327  -3.212  1.00  0.00     0.005 C 
HETATM   14  C   UNL     1      39.155 -13.844  -2.312  1.00  0.00     0.047 C 
ENDROOT
BRANCH   6  15
HETATM   15  N   UNL     1      42.503 -16.284   1.674  1.00  0.00    -0.340 N 
HETATM   16  H   UNL     1      43.029 -15.959   0.882  1.00  0.00     0.167 HD
BRANCH  15  17
HETATM   17  C   UNL     1      43.075 -17.412   2.294  1.00  0.00     0.036 A 
HETATM   18  C   UNL     1      43.104 -18.620   1.572  1.00  0.00     0.069 A 
HETATM   19  C   UNL     1      43.637 -19.744   2.170  1.00  0.00     0.107 A 
HETATM   20  C   UNL     1      44.131 -19.718   3.449  1.00  0.00     0.105 A 
HETATM   21  O   UNL     1      43.740 -20.974   1.598  1.00  0.00    -0.323 OA
HETATM   22  O   UNL     1      44.610 -20.925   3.847  1.00  0.00    -0.323 OA
HETATM   23  C   UNL     1      44.112 -18.567   4.200  1.00  0.00     0.042 A 
HETATM   24  C   UNL     1      44.359 -21.718   2.669  1.00  0.00     0.352 A 
HETATM   25  C   UNL     1      43.572 -17.413   3.614  1.00  0.00     0.032 A 
ENDBRANCH  15  17
ENDBRANCH   6  15
TORSDOF 2
ENDMDL
MODEL 9
REMARK VINA RESULT:      -7.7      3.908      7.508
REMARK  2 active torsions:
REMARK  status: ('A' for Active; 'I' for Inactive)
REMARK    1  A    between atoms: C_6  and  N_7 
REMARK    2  A    between atoms: N_7  and  C_8 
ROOT
HETATM    1  C   UNL     1      41.075 -14.986  -2.119  1.00  0.00     0.093 C 
HETATM    2  C   UNL     1      40.814 -14.759  -0.662  1.00  0.00     0.125 A 
HETATM    3  N   UNL     1      40.556 -13.513  -0.271  1.00  0.00    -0.226 NA
HETATM    4  C   UNL     1      40.361 -13.406   1.051  1.00  0.00     0.114 A 
HETATM    5  C   UNL     1      40.413 -14.428   1.993  1.00  0.00     0.053 A 
HETATM    6  C   UNL     1      40.666 -15.724   1.471  1.00  0.00     0.143 A 
HETATM    7  N   UNL     1      40.873 -15.837   0.136  1.00  0.00    -0.215 NA
HETATM    8  S   UNL     1      39.995 -11.886   1.723  1.00  0.00    -0.073 SA
HETATM    9  C   UNL     1      39.897 -12.533   3.286  1.00  0.00    -0.008 A 
HETATM   10  C   UNL     1      40.175 -13.890   3.325  1.00  0.00    -0.028 A 
HETATM   11  C   UNL     1      40.164 -14.637   4.631  1.00  0.00     0.041 C 
HETATM   12  C   UNL     1      40.146 -13.705   5.852  1.00  0.00     0.005 C 
HETATM   13  C   UNL     1      39.172 -12.537   5.667  1.00  0.00     0.005 C 
HETATM   14  C   UNL     1      39.573 -11.670   4.466  1.00  0.00     0.047 C 
ENDROOT
BRANCH   6  15
HETATM   15  N   UNL     1      40.721 -16.865   2.288  1.00  0.00    -0.340 N 
HETATM   16  H   UNL     1      39.819 -17.244   2.517  1.00  0.00     0.167 HD
BRANCH  15  17
HETATM   17  C   UNL     1      41.789 -17.674   2.727  1.00  0.00     0.036 A 
HETATM   18  C   UNL     1      42.012 -17.777   4.113  1.00  0.00     0.069 A 
HETATM   19  C   UNL     1      43.067 -18.543   4.565  1.00  0.00     0.107 A 
HETATM   20  C   UNL     1      43.908 -19.198   3.701  1.00  0.00     0.105 A 
HETATM   21  O   UNL     1      43.403 -18.743   5.868  1.00  0.00    -0.323 OA
HETATM   22  O   UNL     1      44.878 -19.896   4.347  1.00  0.00    -0.323 OA
HETATM   23  C   UNL     1      43.740 -19.116   2.339  1.00  0.00     0.042 A 
HETATM   24  C   UNL     1      44.553 -19.603   5.721  1.00  0.00     0.352 A 
HETATM   25  C   UNL     1      42.676 -18.341   1.857  1.00  0.00     0.032 A 
ENDBRANCH  15  17
ENDBRANCH   6  15
TORSDOF 2
ENDMDL
MODEL 10
REMARK VINA RESULT:      -7.5      3.619      6.714
REMARK  2 active torsions:
REMARK  status: ('A' for Active; 'I' for Inactive)
REMARK    1  A    between atoms: C_6  and  N_7 
REMARK    2  A    between atoms: N_7  and  C_8 
ROOT
HETATM    1  C   UNL     1      39.433 -12.650   6.520  1.00  0.00     0.093 C 
HETATM    2  C   UNL     1      39.808 -13.039   5.123  1.00  0.00     0.125 A 
HETATM    3  N   UNL     1      39.993 -12.058   4.241  1.00  0.00    -0.226 NA
HETATM    4  C   UNL     1      40.299 -12.504   3.014  1.00  0.00     0.114 A 
HETATM    5  C   UNL     1      40.424 -13.829   2.610  1.00  0.00     0.053 A 
HETATM    6  C   UNL     1      40.236 -14.798   3.630  1.00  0.00     0.143 A 
HETATM    7  N   UNL     1      39.917 -14.353   4.871  1.00  0.00    -0.215 NA
HETATM    8  S   UNL     1      40.592 -11.385   1.766  1.00  0.00    -0.073 SA
HETATM    9  C   UNL     1      40.891 -12.622   0.647  1.00  0.00    -0.008 A 
HETATM   10  C   UNL     1      40.736 -13.888   1.188  1.00  0.00    -0.028 A 
HETATM   11  C   UNL     1      40.934 -15.114   0.340  1.00  0.00     0.041 C 
HETATM   12  C   UNL     1      40.983 -14.798  -1.163  1.00  0.00     0.005 C 
HETATM   13  C   UNL     1      41.832 -13.557  -1.460  1.00  0.00     0.005 C 
HETATM   14  C   UNL     1      41.247 -12.315  -0.775  1.00  0.00     0.047 C 
ENDROOT
BRANCH   6  15
HETATM   15  N   UNL     1      40.356 -16.176   3.390  1.00  0.00    -0.340 N 
HETATM   16  H   UNL     1      39.621 -16.553   2.817  1.00  0.00     0.167 HD
BRANCH  15  17
HETATM   17  C   UNL     1      41.377 -17.107   3.664  1.00  0.00     0.036 A 
HETATM   18  C   UNL     1      42.009 -17.735   2.574  1.00  0.00     0.069 A 
HETATM   19  C   UNL     1      42.994 -18.669   2.820  1.00  0.00     0.107 A 
HETATM   20  C   UNL     1      43.368 -19.008   4.096  1.00  0.00     0.105 A 
HETATM   21  O   UNL     1      43.697 -19.351   1.875  1.00  0.00    -0.323 OA
HETATM   22  O   UNL     1      44.354 -19.943   4.119  1.00  0.00    -0.323 OA
HETATM   23  C   UNL     1      42.772 -18.434   5.193  1.00  0.00     0.042 A 
HETATM   24  C   UNL     1      44.557 -20.157   2.708  1.00  0.00     0.352 A 
HETATM   25  C   UNL     1      41.766 -17.484   4.967  1.00  0.00     0.032 A 
ENDBRANCH  15  17
ENDBRANCH   6  15
TORSDOF 2
ENDMDL
