MODEL 1
REMARK VINA RESULT:      -8.5      0.000      0.000
REMARK  10 active torsions:
REMARK  status: ('A' for Active; 'I' for Inactive)
REMARK    1  A    between atoms: N_7  and  C_8 
REMARK    2  A    between atoms: C_8  and  C_9 
REMARK       I    between atoms: C_9  and  N_10 
REMARK    3  A    between atoms: N_10  and  C_11 
REMARK    4  A    between atoms: C_11  and  C_12 
REMARK    5  A    between atoms: C_12  and  C_13 
REMARK    6  A    between atoms: C_13  and  C_14 
REMARK       I    between atoms: C_14  and  N_15 
REMARK    7  A    between atoms: N_15  and  C_16 
REMARK    8  A    between atoms: C_16  and  C_17 
REMARK    9  A    between atoms: C_17  and  C_18 
REMARK   10  A    between atoms: C_18  and  N_19 
ROOT
HETATM    1  C   UNL     1      40.326 -13.937   6.086  1.00  0.00     0.123 C 
ENDROOT
BRANCH   1   2
HETATM    2  N   UNL     1      40.762 -12.597   6.421  1.00  0.00    -0.360 N 
HETATM    3  C   UNL     1      39.936 -11.502   6.250  1.00  0.00     0.235 C 
HETATM    4  O   UNL     1      38.801 -11.594   5.789  1.00  0.00    -0.272 OA
HETATM    5  H   UNL     1      41.718 -12.464   6.729  1.00  0.00     0.162 HD
BRANCH   3   6
HETATM    6  C   UNL     1      40.529 -10.188   6.754  1.00  0.00     0.235 C 
BRANCH   6   7
HETATM    7  N   UNL     1      40.466 -10.130   8.202  1.00  0.00    -0.299 N 
HETATM    8  C   UNL     1      39.247  -9.999   8.840  1.00  0.00     0.214 A 
HETATM    9  N   UNL     1      39.069  -9.966  10.120  1.00  0.00    -0.235 NA
HETATM   10  C   UNL     1      40.210 -10.071  10.846  1.00  0.00     0.115 A 
HETATM   11  C   UNL     1      41.495 -10.157  10.357  1.00  0.00     0.075 A 
HETATM   12  S   UNL     1      40.177 -10.119  12.544  1.00  0.00    -0.074 SA
HETATM   13  C   UNL     1      42.487 -10.250  11.400  1.00  0.00    -0.031 A 
HETATM   14  C   UNL     1      41.663 -10.151   8.912  1.00  0.00     0.262 A 
HETATM   15  C   UNL     1      43.958 -10.340  11.153  1.00  0.00     0.050 C 
HETATM   16  C   UNL     1      41.880 -10.277  12.649  1.00  0.00    -0.012 A 
HETATM   17  C   UNL     1      42.511 -10.409  13.997  1.00  0.00     0.057 C 
HETATM   18  O   UNL     1      42.765 -10.164   8.366  1.00  0.00    -0.267 OA
ENDBRANCH   6   7
ENDBRANCH   3   6
ENDBRANCH   1   2
BRANCH   1  19
HETATM   19  C   UNL     1      41.330 -14.665   5.196  1.00  0.00     0.029 C 
BRANCH  19  20
HETATM   20  C   UNL     1      42.659 -13.919   5.160  1.00  0.00     0.104 C 
BRANCH  20  21
HETATM   21  C   UNL     1      43.708 -14.591   6.015  1.00  0.00     0.217 C 
HETATM   22  N   UNL     1      43.568 -15.956   6.137  1.00  0.00    -0.361 N 
HETATM   23  H   UNL     1      42.718 -16.376   5.769  1.00  0.00     0.162 HD
HETATM   24  O   UNL     1      44.625 -13.971   6.546  1.00  0.00    -0.274 OA
BRANCH  22  25
HETATM   25  C   UNL     1      44.338 -16.728   7.091  1.00  0.00     0.124 C 
BRANCH  25  26
HETATM   26  C   UNL     1      45.189 -17.833   6.456  1.00  0.00     0.047 C 
BRANCH  26  27
HETATM   27  C   UNL     1      44.355 -19.027   5.998  1.00  0.00     0.236 C 
BRANCH  27  28
HETATM   28  N   UNL     1      44.327 -19.137   4.476  1.00  0.00    -0.070 N 
HETATM   29  H   UNL     1      45.133 -18.607   4.124  1.00  0.00     0.279 HD
HETATM   30  C   UNL     1      44.445 -20.563   3.987  1.00  0.00     0.239 C 
HETATM   31  C   UNL     1      44.479 -20.587   2.457  1.00  0.00     0.008 C 
HETATM   32  C   UNL     1      43.251 -19.887   1.866  1.00  0.00     0.011 C 
HETATM   33  C   UNL     1      44.567 -22.028   1.954  1.00  0.00     0.011 C 
HETATM   34  C   UNL     1      43.063 -18.466   2.412  1.00  0.00     0.008 C 
HETATM   35  C   UNL     1      43.074 -18.467   3.942  1.00  0.00     0.239 C 
HETATM   36  C   UNL     1      44.088 -17.490   1.829  1.00  0.00     0.011 C 
ENDBRANCH  27  28
ENDBRANCH  26  27
ENDBRANCH  25  26
ENDBRANCH  22  25
ENDBRANCH  20  21
ENDBRANCH  19  20
ENDBRANCH   1  19
TORSDOF 10
ENDMDL
MODEL 2
REMARK VINA RESULT:      -8.5      3.052      9.808
REMARK  10 active torsions:
REMARK  status: ('A' for Active; 'I' for Inactive)
REMARK    1  A    between atoms: N_7  and  C_8 
REMARK    2  A    between atoms: C_8  and  C_9 
REMARK       I    between atoms: C_9  and  N_10 
REMARK    3  A    between atoms: N_10  and  C_11 
REMARK    4  A    between atoms: C_11  and  C_12 
REMARK    5  A    between atoms: C_12  and  C_13 
REMARK    6  A    between atoms: C_13  and  C_14 
REMARK       I    between atoms: C_14  and  N_15 
REMARK    7  A    between atoms: N_15  and  C_16 
REMARK    8  A    between atoms: C_16  and  C_17 
REMARK    9  A    between atoms: C_17  and  C_18 
REMARK   10  A    between atoms: C_18  and  N_19 
ROOT
HETATM    1  C   UNL     1      42.468 -12.904   4.638  1.00  0.00     0.123 C 
ENDROOT
BRANCH   1   2
HETATM    2  N   UNL     1      42.062 -14.205   5.127  1.00  0.00    -0.360 N 
HETATM    3  C   UNL     1      42.842 -14.922   6.013  1.00  0.00     0.235 C 
HETATM    4  O   UNL     1      43.926 -14.514   6.422  1.00  0.00    -0.272 OA
HETATM    5  H   UNL     1      41.214 -14.617   4.755  1.00  0.00     0.162 HD
BRANCH   3   6
HETATM    6  C   UNL     1      42.204 -16.223   6.496  1.00  0.00     0.235 C 
BRANCH   6   7
HETATM    7  N   UNL     1      42.936 -17.365   5.983  1.00  0.00    -0.299 N 
HETATM    8  C   UNL     1      43.786 -18.074   6.810  1.00  0.00     0.214 A 
HETATM    9  N   UNL     1      44.464 -19.122   6.471  1.00  0.00    -0.235 NA
HETATM   10  C   UNL     1      44.288 -19.508   5.183  1.00  0.00     0.115 A 
HETATM   11  C   UNL     1      43.520 -18.878   4.229  1.00  0.00     0.075 A 
HETATM   12  S   UNL     1      45.038 -20.903   4.567  1.00  0.00    -0.074 SA
HETATM   13  C   UNL     1      43.553 -19.544   2.951  1.00  0.00    -0.031 A 
HETATM   14  C   UNL     1      42.801 -17.679   4.634  1.00  0.00     0.262 A 
HETATM   15  C   UNL     1      42.823 -19.069   1.737  1.00  0.00     0.050 C 
HETATM   16  C   UNL     1      44.328 -20.695   3.022  1.00  0.00    -0.012 A 
HETATM   17  C   UNL     1      44.604 -21.708   1.958  1.00  0.00     0.057 C 
HETATM   18  O   UNL     1      42.132 -17.004   3.853  1.00  0.00    -0.267 OA
ENDBRANCH   6   7
ENDBRANCH   3   6
ENDBRANCH   1   2
BRANCH   1  19
HETATM   19  C   UNL     1      41.275 -11.992   4.360  1.00  0.00     0.029 C 
BRANCH  19  20
HETATM   20  C   UNL     1      39.986 -12.619   4.879  1.00  0.00     0.104 C 
BRANCH  20  21
HETATM   21  C   UNL     1      39.433 -11.872   6.070  1.00  0.00     0.217 C 
HETATM   22  N   UNL     1      39.791 -12.389   7.295  1.00  0.00    -0.361 N 
HETATM   23  H   UNL     1      40.270 -13.286   7.305  1.00  0.00     0.162 HD
HETATM   24  O   UNL     1      38.731 -10.870   5.955  1.00  0.00    -0.274 OA
BRANCH  22  25
HETATM   25  C   UNL     1      39.176 -11.945   8.529  1.00  0.00     0.124 C 
BRANCH  25  26
HETATM   26  C   UNL     1      39.877 -10.747   9.179  1.00  0.00     0.047 C 
BRANCH  26  27
HETATM   27  C   UNL     1      41.248 -10.465   8.568  1.00  0.00     0.236 C 
BRANCH  27  28
HETATM   28  N   UNL     1      42.372 -11.016   9.442  1.00  0.00    -0.070 N 
HETATM   29  H   UNL     1      42.005 -11.855   9.906  1.00  0.00     0.279 HD
HETATM   30  C   UNL     1      43.596 -11.410   8.645  1.00  0.00     0.239 C 
HETATM   31  C   UNL     1      44.648 -12.016   9.576  1.00  0.00     0.008 C 
HETATM   32  C   UNL     1      45.001 -11.051  10.713  1.00  0.00     0.011 C 
HETATM   33  C   UNL     1      45.901 -12.388   8.783  1.00  0.00     0.011 C 
HETATM   34  C   UNL     1      43.765 -10.570  11.483  1.00  0.00     0.008 C 
HETATM   35  C   UNL     1      42.713 -10.009  10.524  1.00  0.00     0.239 C 
HETATM   36  C   UNL     1      43.194 -11.666  12.387  1.00  0.00     0.011 C 
ENDBRANCH  27  28
ENDBRANCH  26  27
ENDBRANCH  25  26
ENDBRANCH  22  25
ENDBRANCH  20  21
ENDBRANCH  19  20
ENDBRANCH   1  19
TORSDOF 10
ENDMDL
MODEL 3
REMARK VINA RESULT:      -8.5      3.130     10.656
REMARK  10 active torsions:
REMARK  status: ('A' for Active; 'I' for Inactive)
REMARK    1  A    between atoms: N_7  and  C_8 
REMARK    2  A    between atoms: C_8  and  C_9 
REMARK       I    between atoms: C_9  and  N_10 
REMARK    3  A    between atoms: N_10  and  C_11 
REMARK    4  A    between atoms: C_11  and  C_12 
REMARK    5  A    between atoms: C_12  and  C_13 
REMARK    6  A    between atoms: C_13  and  C_14 
REMARK       I    between atoms: C_14  and  N_15 
REMARK    7  A    between atoms: N_15  and  C_16 
REMARK    8  A    between atoms: C_16  and  C_17 
REMARK    9  A    between atoms: C_17  and  C_18 
REMARK   10  A    between atoms: C_18  and  N_19 
ROOT
HETATM    1  C   UNL     1      40.243 -14.802   5.777  1.00  0.00     0.123 C 
ENDROOT
BRANCH   1   2
HETATM    2  N   UNL     1      41.576 -15.210   6.167  1.00  0.00    -0.360 N 
HETATM    3  C   UNL     1      41.818 -16.442   6.746  1.00  0.00     0.235 C 
HETATM    4  O   UNL     1      40.923 -17.249   6.981  1.00  0.00    -0.272 OA
HETATM    5  H   UNL     1      42.333 -14.545   6.065  1.00  0.00     0.162 HD
BRANCH   3   6
HETATM    6  C   UNL     1      43.296 -16.737   6.992  1.00  0.00     0.235 C 
BRANCH   6   7
HETATM    7  N   UNL     1      43.681 -17.968   6.328  1.00  0.00    -0.299 N 
HETATM    8  C   UNL     1      44.029 -19.079   7.071  1.00  0.00     0.214 A 
HETATM    9  N   UNL     1      44.360 -20.233   6.589  1.00  0.00    -0.235 NA
HETATM   10  C   UNL     1      44.347 -20.296   5.234  1.00  0.00     0.115 A 
HETATM   11  C   UNL     1      44.073 -19.266   4.361  1.00  0.00     0.075 A 
HETATM   12  S   UNL     1      44.683 -21.745   4.412  1.00  0.00    -0.074 SA
HETATM   13  C   UNL     1      44.152 -19.666   2.978  1.00  0.00    -0.031 A 
HETATM   14  C   UNL     1      43.744 -17.971   4.937  1.00  0.00     0.262 A 
HETATM   15  C   UNL     1      43.916 -18.746   1.824  1.00  0.00     0.050 C 
HETATM   16  C   UNL     1      44.445 -21.019   2.878  1.00  0.00    -0.012 A 
HETATM   17  C   UNL     1      44.579 -21.864   1.652  1.00  0.00     0.057 C 
HETATM   18  O   UNL     1      43.538 -16.968   4.255  1.00  0.00    -0.267 OA
ENDBRANCH   6   7
ENDBRANCH   3   6
ENDBRANCH   1   2
BRANCH   1  19
HETATM   19  C   UNL     1      40.261 -13.702   4.719  1.00  0.00     0.029 C 
BRANCH  19  20
HETATM   20  C   UNL     1      40.840 -12.414   5.292  1.00  0.00     0.104 C 
BRANCH  20  21
HETATM   21  C   UNL     1      39.861 -11.709   6.203  1.00  0.00     0.217 C 
HETATM   22  N   UNL     1      40.294 -11.544   7.500  1.00  0.00    -0.361 N 
HETATM   23  H   UNL     1      41.152 -12.017   7.772  1.00  0.00     0.162 HD
HETATM   24  O   UNL     1      38.771 -11.299   5.813  1.00  0.00    -0.274 OA
BRANCH  22  25
HETATM   25  C   UNL     1      39.409 -11.099   8.557  1.00  0.00     0.124 C 
BRANCH  25  26
HETATM   26  C   UNL     1      40.056 -10.119   9.541  1.00  0.00     0.047 C 
BRANCH  26  27
HETATM   27  C   UNL     1      39.796 -10.492  10.999  1.00  0.00     0.236 C 
BRANCH  27  28
HETATM   28  N   UNL     1      41.098 -10.592  11.790  1.00  0.00    -0.070 N 
HETATM   29  H   UNL     1      40.945 -11.288  12.530  1.00  0.00     0.279 HD
HETATM   30  C   UNL     1      42.266 -11.047  10.944  1.00  0.00     0.239 C 
HETATM   31  C   UNL     1      43.515 -11.191  11.817  1.00  0.00     0.008 C 
HETATM   32  C   UNL     1      43.827  -9.884  12.554  1.00  0.00     0.011 C 
HETATM   33  C   UNL     1      44.708 -11.621  10.963  1.00  0.00     0.011 C 
HETATM   34  C   UNL     1      42.628  -9.358  13.353  1.00  0.00     0.008 C 
HETATM   35  C   UNL     1      41.384  -9.264  12.466  1.00  0.00     0.239 C 
HETATM   36  C   UNL     1      42.375 -10.187  14.615  1.00  0.00     0.011 C 
ENDBRANCH  27  28
ENDBRANCH  26  27
ENDBRANCH  25  26
ENDBRANCH  22  25
ENDBRANCH  20  21
ENDBRANCH  19  20
ENDBRANCH   1  19
TORSDOF 10
ENDMDL
MODEL 4
REMARK VINA RESULT:      -8.3      4.810      9.145
REMARK  10 active torsions:
REMARK  status: ('A' for Active; 'I' for Inactive)
REMARK    1  A    between atoms: N_7  and  C_8 
REMARK    2  A    between atoms: C_8  and  C_9 
REMARK       I    between atoms: C_9  and  N_10 
REMARK    3  A    between atoms: N_10  and  C_11 
REMARK    4  A    between atoms: C_11  and  C_12 
REMARK    5  A    between atoms: C_12  and  C_13 
REMARK    6  A    between atoms: C_13  and  C_14 
REMARK       I    between atoms: C_14  and  N_15 
REMARK    7  A    between atoms: N_15  and  C_16 
REMARK    8  A    between atoms: C_16  and  C_17 
REMARK    9  A    between atoms: C_17  and  C_18 
REMARK   10  A    between atoms: C_18  and  N_19 
ROOT
HETATM    1  C   UNL     1      42.381 -13.101   6.241  1.00  0.00     0.123 C 
ENDROOT
BRANCH   1   2
HETATM    2  N   UNL     1      42.708 -14.500   6.422  1.00  0.00    -0.360 N 
HETATM    3  C   UNL     1      44.009 -14.921   6.622  1.00  0.00     0.235 C 
HETATM    4  O   UNL     1      44.961 -14.145   6.640  1.00  0.00    -0.272 OA
HETATM    5  H   UNL     1      41.965 -15.184   6.335  1.00  0.00     0.162 HD
BRANCH   3   6
HETATM    6  C   UNL     1      44.147 -16.417   6.897  1.00  0.00     0.235 C 
BRANCH   6   7
HETATM    7  N   UNL     1      43.968 -17.173   5.672  1.00  0.00    -0.299 N 
HETATM    8  C   UNL     1      43.429 -16.566   4.554  1.00  0.00     0.214 A 
HETATM    9  N   UNL     1      43.252 -17.131   3.404  1.00  0.00    -0.235 NA
HETATM   10  C   UNL     1      43.644 -18.428   3.353  1.00  0.00     0.115 A 
HETATM   11  C   UNL     1      44.149 -19.180   4.391  1.00  0.00     0.075 A 
HETATM   12  S   UNL     1      43.558 -19.323   1.911  1.00  0.00    -0.074 SA
HETATM   13  C   UNL     1      44.463 -20.533   4.002  1.00  0.00    -0.031 A 
HETATM   14  C   UNL     1      44.298 -18.525   5.681  1.00  0.00     0.262 A 
HETATM   15  C   UNL     1      45.010 -21.568   4.932  1.00  0.00     0.050 C 
HETATM   16  C   UNL     1      44.215 -20.722   2.649  1.00  0.00    -0.012 A 
HETATM   17  C   UNL     1      44.434 -21.943   1.816  1.00  0.00     0.057 C 
HETATM   18  O   UNL     1      44.684 -19.114   6.690  1.00  0.00    -0.267 OA
ENDBRANCH   6   7
ENDBRANCH   3   6
ENDBRANCH   1   2
BRANCH   1  19
HETATM   19  C   UNL     1      41.080 -12.907   5.466  1.00  0.00     0.029 C 
BRANCH  19  20
HETATM   20  C   UNL     1      40.353 -14.235   5.294  1.00  0.00     0.104 C 
BRANCH  20  21
HETATM   21  C   UNL     1      39.963 -14.485   3.855  1.00  0.00     0.217 C 
HETATM   22  N   UNL     1      40.223 -15.758   3.398  1.00  0.00    -0.361 N 
HETATM   23  H   UNL     1      40.766 -16.371   4.000  1.00  0.00     0.162 HD
HETATM   24  O   UNL     1      39.440 -13.625   3.152  1.00  0.00    -0.274 OA
BRANCH  22  25
HETATM   25  C   UNL     1      40.127 -16.108   1.995  1.00  0.00     0.124 C 
BRANCH  25  26
HETATM   26  C   UNL     1      41.170 -15.419   1.108  1.00  0.00     0.047 C 
BRANCH  26  27
HETATM   27  C   UNL     1      41.336 -16.105  -0.246  1.00  0.00     0.236 C 
BRANCH  27  28
HETATM   28  N   UNL     1      40.368 -15.537  -1.281  1.00  0.00    -0.070 N 
HETATM   29  H   UNL     1      39.556 -16.165  -1.306  1.00  0.00     0.279 HD
HETATM   30  C   UNL     1      39.885 -14.147  -0.933  1.00  0.00     0.239 C 
HETATM   31  C   UNL     1      38.870 -13.674  -1.975  1.00  0.00     0.008 C 
HETATM   32  C   UNL     1      39.462 -13.729  -3.388  1.00  0.00     0.011 C 
HETATM   33  C   UNL     1      38.399 -12.257  -1.648  1.00  0.00     0.011 C 
HETATM   34  C   UNL     1      40.035 -15.109  -3.733  1.00  0.00     0.008 C 
HETATM   35  C   UNL     1      41.014 -15.575  -2.653  1.00  0.00     0.239 C 
HETATM   36  C   UNL     1      38.931 -16.138  -3.992  1.00  0.00     0.011 C 
ENDBRANCH  27  28
ENDBRANCH  26  27
ENDBRANCH  25  26
ENDBRANCH  22  25
ENDBRANCH  20  21
ENDBRANCH  19  20
ENDBRANCH   1  19
TORSDOF 10
ENDMDL
MODEL 5
REMARK VINA RESULT:      -8.3      3.160      9.964
REMARK  10 active torsions:
REMARK  status: ('A' for Active; 'I' for Inactive)
REMARK    1  A    between atoms: N_7  and  C_8 
REMARK    2  A    between atoms: C_8  and  C_9 
REMARK       I    between atoms: C_9  and  N_10 
REMARK    3  A    between atoms: N_10  and  C_11 
REMARK    4  A    between atoms: C_11  and  C_12 
REMARK    5  A    between atoms: C_12  and  C_13 
REMARK    6  A    between atoms: C_13  and  C_14 
REMARK       I    between atoms: C_14  and  N_15 
REMARK    7  A    between atoms: N_15  and  C_16 
REMARK    8  A    between atoms: C_16  and  C_17 
REMARK    9  A    between atoms: C_17  and  C_18 
REMARK   10  A    between atoms: C_18  and  N_19 
ROOT
HETATM    1  C   UNL     1      39.948 -14.059   4.958  1.00  0.00     0.123 C 
ENDROOT
BRANCH   1   2
HETATM    2  N   UNL     1      41.354 -14.275   5.229  1.00  0.00    -0.360 N 
HETATM    3  C   UNL     1      41.793 -15.364   5.958  1.00  0.00     0.235 C 
HETATM    4  O   UNL     1      41.025 -16.195   6.434  1.00  0.00    -0.272 OA
HETATM    5  H   UNL     1      42.017 -13.572   4.924  1.00  0.00     0.162 HD
BRANCH   3   6
HETATM    6  C   UNL     1      43.313 -15.481   6.052  1.00  0.00     0.235 C 
BRANCH   6   7
HETATM    7  N   UNL     1      43.741 -16.811   5.664  1.00  0.00    -0.299 N 
HETATM    8  C   UNL     1      44.315 -17.656   6.595  1.00  0.00     0.214 A 
HETATM    9  N   UNL     1      44.705 -18.868   6.370  1.00  0.00    -0.235 NA
HETATM   10  C   UNL     1      44.511 -19.290   5.096  1.00  0.00     0.115 A 
HETATM   11  C   UNL     1      44.001 -18.553   4.050  1.00  0.00     0.075 A 
HETATM   12  S   UNL     1      44.893 -20.876   4.621  1.00  0.00    -0.074 SA
HETATM   13  C   UNL     1      43.932 -19.299   2.818  1.00  0.00    -0.031 A 
HETATM   14  C   UNL     1      43.609 -17.179   4.327  1.00  0.00     0.262 A 
HETATM   15  C   UNL     1      43.433 -18.740   1.525  1.00  0.00     0.050 C 
HETATM   16  C   UNL     1      44.362 -20.605   3.015  1.00  0.00    -0.012 A 
HETATM   17  C   UNL     1      44.420 -21.732   2.035  1.00  0.00     0.057 C 
HETATM   18  O   UNL     1      43.196 -16.412   3.459  1.00  0.00    -0.267 OA
ENDBRANCH   6   7
ENDBRANCH   3   6
ENDBRANCH   1   2
BRANCH   1  19
HETATM   19  C   UNL     1      39.382 -12.881   5.746  1.00  0.00     0.029 C 
BRANCH  19  20
HETATM   20  C   UNL     1      38.866 -11.800   4.802  1.00  0.00     0.104 C 
BRANCH  20  21
HETATM   21  C   UNL     1      39.235 -10.413   5.274  1.00  0.00     0.217 C 
HETATM   22  N   UNL     1      40.568 -10.240   5.577  1.00  0.00    -0.361 N 
HETATM   23  H   UNL     1      41.157 -11.069   5.592  1.00  0.00     0.162 HD
HETATM   24  O   UNL     1      38.414  -9.505   5.365  1.00  0.00    -0.274 OA
BRANCH  22  25
HETATM   25  C   UNL     1      41.057  -9.057   6.253  1.00  0.00     0.124 C 
BRANCH  25  26
HETATM   26  C   UNL     1      41.447  -9.291   7.717  1.00  0.00     0.047 C 
BRANCH  26  27
HETATM   27  C   UNL     1      41.991 -10.697   7.963  1.00  0.00     0.236 C 
BRANCH  27  28
HETATM   28  N   UNL     1      43.144 -10.682   8.962  1.00  0.00    -0.070 N 
HETATM   29  H   UNL     1      43.799  -9.954   8.651  1.00  0.00     0.279 HD
HETATM   30  C   UNL     1      42.699 -10.351  10.369  1.00  0.00     0.239 C 
HETATM   31  C   UNL     1      43.914 -10.286  11.297  1.00  0.00     0.008 C 
HETATM   32  C   UNL     1      44.715 -11.592  11.250  1.00  0.00     0.011 C 
HETATM   33  C   UNL     1      43.469  -9.983  12.728  1.00  0.00     0.011 C 
HETATM   34  C   UNL     1      45.106 -11.992   9.822  1.00  0.00     0.008 C 
HETATM   35  C   UNL     1      43.880 -12.008   8.908  1.00  0.00     0.239 C 
HETATM   36  C   UNL     1      46.226 -11.108   9.268  1.00  0.00     0.011 C 
ENDBRANCH  27  28
ENDBRANCH  26  27
ENDBRANCH  25  26
ENDBRANCH  22  25
ENDBRANCH  20  21
ENDBRANCH  19  20
ENDBRANCH   1  19
TORSDOF 10
ENDMDL
MODEL 6
REMARK VINA RESULT:      -8.2      1.706      2.158
REMARK  10 active torsions:
REMARK  status: ('A' for Active; 'I' for Inactive)
REMARK    1  A    between atoms: N_7  and  C_8 
REMARK    2  A    between atoms: C_8  and  C_9 
REMARK       I    between atoms: C_9  and  N_10 
REMARK    3  A    between atoms: N_10  and  C_11 
REMARK    4  A    between atoms: C_11  and  C_12 
REMARK    5  A    between atoms: C_12  and  C_13 
REMARK    6  A    between atoms: C_13  and  C_14 
REMARK       I    between atoms: C_14  and  N_15 
REMARK    7  A    between atoms: N_15  and  C_16 
REMARK    8  A    between atoms: C_16  and  C_17 
REMARK    9  A    between atoms: C_17  and  C_18 
REMARK   10  A    between atoms: C_18  and  N_19 
ROOT
HETATM    1  C   UNL     1      42.374 -12.972   4.717  1.00  0.00     0.123 C 
ENDROOT
BRANCH   1   2
HETATM    2  N   UNL     1      41.646 -12.388   5.823  1.00  0.00    -0.360 N 
HETATM    3  C   UNL     1      41.221 -11.073   5.798  1.00  0.00     0.235 C 
HETATM    4  O   UNL     1      41.449 -10.321   4.853  1.00  0.00    -0.272 OA
HETATM    5  H   UNL     1      41.505 -12.946   6.657  1.00  0.00     0.162 HD
BRANCH   3   6
HETATM    6  C   UNL     1      40.380 -10.664   7.006  1.00  0.00     0.235 C 
BRANCH   6   7
HETATM    7  N   UNL     1      41.197 -10.639   8.204  1.00  0.00    -0.299 N 
HETATM    8  C   UNL     1      42.574 -10.580   8.104  1.00  0.00     0.214 A 
HETATM    9  N   UNL     1      43.399 -10.524   9.099  1.00  0.00    -0.235 NA
HETATM   10  C   UNL     1      42.803 -10.529  10.317  1.00  0.00     0.115 A 
HETATM   11  C   UNL     1      41.455 -10.635  10.578  1.00  0.00     0.075 A 
HETATM   12  S   UNL     1      43.712 -10.390  11.747  1.00  0.00    -0.074 SA
HETATM   13  C   UNL     1      41.152 -10.616  11.988  1.00  0.00    -0.031 A 
HETATM   14  C   UNL     1      40.558 -10.736   9.437  1.00  0.00     0.262 A 
HETATM   15  C   UNL     1      39.773 -10.729  12.552  1.00  0.00     0.050 C 
HETATM   16  C   UNL     1      42.312 -10.448  12.733  1.00  0.00    -0.012 A 
HETATM   17  C   UNL     1      42.468 -10.329  14.215  1.00  0.00     0.057 C 
HETATM   18  O   UNL     1      39.344 -10.892   9.551  1.00  0.00    -0.267 OA
ENDBRANCH   6   7
ENDBRANCH   3   6
ENDBRANCH   1   2
BRANCH   1  19
HETATM   19  C   UNL     1      42.425 -14.496   4.799  1.00  0.00     0.029 C 
BRANCH  19  20
HETATM   20  C   UNL     1      41.201 -15.037   5.529  1.00  0.00     0.104 C 
BRANCH  20  21
HETATM   21  C   UNL     1      41.533 -16.245   6.373  1.00  0.00     0.217 C 
HETATM   22  N   UNL     1      42.766 -16.201   6.987  1.00  0.00    -0.361 N 
HETATM   23  H   UNL     1      43.395 -15.447   6.722  1.00  0.00     0.162 HD
HETATM   24  O   UNL     1      40.758 -17.187   6.516  1.00  0.00    -0.274 OA
BRANCH  22  25
HETATM   25  C   UNL     1      43.342 -17.356   7.643  1.00  0.00     0.124 C 
BRANCH  25  26
HETATM   26  C   UNL     1      44.488 -18.010   6.863  1.00  0.00     0.047 C 
BRANCH  26  27
HETATM   27  C   UNL     1      44.094 -19.354   6.254  1.00  0.00     0.236 C 
BRANCH  27  28
HETATM   28  N   UNL     1      44.155 -19.315   4.730  1.00  0.00    -0.070 N 
HETATM   29  H   UNL     1      44.968 -18.740   4.478  1.00  0.00     0.279 HD
HETATM   30  C   UNL     1      44.334 -20.685   4.114  1.00  0.00     0.239 C 
HETATM   31  C   UNL     1      44.456 -20.560   2.594  1.00  0.00     0.008 C 
HETATM   32  C   UNL     1      43.248 -19.827   2.001  1.00  0.00     0.011 C 
HETATM   33  C   UNL     1      44.606 -21.943   1.961  1.00  0.00     0.011 C 
HETATM   34  C   UNL     1      42.996 -18.470   2.669  1.00  0.00     0.008 C 
HETATM   35  C   UNL     1      42.920 -18.619   4.190  1.00  0.00     0.239 C 
HETATM   36  C   UNL     1      44.030 -17.424   2.244  1.00  0.00     0.011 C 
ENDBRANCH  27  28
ENDBRANCH  26  27
ENDBRANCH  25  26
ENDBRANCH  22  25
ENDBRANCH  20  21
ENDBRANCH  19  20
ENDBRANCH   1  19
TORSDOF 10
ENDMDL
MODEL 7
REMARK VINA RESULT:      -8.1      3.283     10.458
REMARK  10 active torsions:
REMARK  status: ('A' for Active; 'I' for Inactive)
REMARK    1  A    between atoms: N_7  and  C_8 
REMARK    2  A    between atoms: C_8  and  C_9 
REMARK       I    between atoms: C_9  and  N_10 
REMARK    3  A    between atoms: N_10  and  C_11 
REMARK    4  A    between atoms: C_11  and  C_12 
REMARK    5  A    between atoms: C_12  and  C_13 
REMARK    6  A    between atoms: C_13  and  C_14 
REMARK       I    between atoms: C_14  and  N_15 
REMARK    7  A    between atoms: N_15  and  C_16 
REMARK    8  A    between atoms: C_16  and  C_17 
REMARK    9  A    between atoms: C_17  and  C_18 
REMARK   10  A    between atoms: C_18  and  N_19 
ROOT
HETATM    1  C   UNL     1      39.835 -14.386   4.739  1.00  0.00     0.123 C 
ENDROOT
BRANCH   1   2
HETATM    2  N   UNL     1      41.225 -14.697   4.481  1.00  0.00    -0.360 N 
HETATM    3  C   UNL     1      41.673 -15.017   3.214  1.00  0.00     0.235 C 
HETATM    4  O   UNL     1      40.924 -15.076   2.242  1.00  0.00    -0.272 OA
HETATM    5  H   UNL     1      41.864 -14.739   5.267  1.00  0.00     0.162 HD
BRANCH   3   6
HETATM    6  C   UNL     1      43.185 -15.212   3.117  1.00  0.00     0.235 C 
BRANCH   6   7
HETATM    7  N   UNL     1      43.508 -16.624   3.050  1.00  0.00    -0.299 N 
HETATM    8  C   UNL     1      43.653 -17.247   1.825  1.00  0.00     0.214 A 
HETATM    9  N   UNL     1      43.967 -18.489   1.646  1.00  0.00    -0.235 NA
HETATM   10  C   UNL     1      44.155 -19.188   2.792  1.00  0.00     0.115 A 
HETATM   11  C   UNL     1      43.998 -18.723   4.079  1.00  0.00     0.075 A 
HETATM   12  S   UNL     1      44.642 -20.816   2.766  1.00  0.00    -0.074 SA
HETATM   13  C   UNL     1      44.269 -19.729   5.077  1.00  0.00    -0.031 A 
HETATM   14  C   UNL     1      43.605 -17.332   4.245  1.00  0.00     0.262 A 
HETATM   15  C   UNL     1      44.161 -19.501   6.550  1.00  0.00     0.050 C 
HETATM   16  C   UNL     1      44.670 -20.915   4.476  1.00  0.00    -0.012 A 
HETATM   17  C   UNL     1      45.088 -22.199   5.118  1.00  0.00     0.057 C 
HETATM   18  O   UNL     1      43.380 -16.826   5.343  1.00  0.00    -0.267 OA
ENDBRANCH   6   7
ENDBRANCH   3   6
ENDBRANCH   1   2
BRANCH   1  19
HETATM   19  C   UNL     1      39.666 -13.063   5.483  1.00  0.00     0.029 C 
BRANCH  19  20
HETATM   20  C   UNL     1      41.020 -12.512   5.914  1.00  0.00     0.104 C 
BRANCH  20  21
HETATM   21  C   UNL     1      40.883 -11.248   6.732  1.00  0.00     0.217 C 
HETATM   22  N   UNL     1      39.713 -11.150   7.452  1.00  0.00    -0.361 N 
HETATM   23  H   UNL     1      38.993 -11.846   7.275  1.00  0.00     0.162 HD
HETATM   24  O   UNL     1      41.754 -10.384   6.766  1.00  0.00    -0.274 OA
BRANCH  22  25
HETATM   25  C   UNL     1      39.311  -9.921   8.105  1.00  0.00     0.124 C 
BRANCH  25  26
HETATM   26  C   UNL     1      39.702  -9.845   9.585  1.00  0.00     0.047 C 
BRANCH  26  27
HETATM   27  C   UNL     1      40.688  -8.716   9.876  1.00  0.00     0.236 C 
BRANCH  27  28
HETATM   28  N   UNL     1      41.920  -9.228  10.618  1.00  0.00    -0.070 N 
HETATM   29  H   UNL     1      42.727  -8.714  10.245  1.00  0.00     0.279 HD
HETATM   30  C   UNL     1      41.851  -8.987  12.110  1.00  0.00     0.239 C 
HETATM   31  C   UNL     1      43.145  -9.461  12.773  1.00  0.00     0.008 C 
HETATM   32  C   UNL     1      43.424 -10.933  12.451  1.00  0.00     0.011 C 
HETATM   33  C   UNL     1      43.070  -9.250  14.285  1.00  0.00     0.011 C 
HETATM   34  C   UNL     1      43.415 -11.218  10.944  1.00  0.00     0.008 C 
HETATM   35  C   UNL     1      42.129 -10.697  10.300  1.00  0.00     0.239 C 
HETATM   36  C   UNL     1      44.668 -10.673  10.253  1.00  0.00     0.011 C 
ENDBRANCH  27  28
ENDBRANCH  26  27
ENDBRANCH  25  26
ENDBRANCH  22  25
ENDBRANCH  20  21
ENDBRANCH  19  20
ENDBRANCH   1  19
TORSDOF 10
ENDMDL
MODEL 8
REMARK VINA RESULT:      -7.9      6.685     10.501
REMARK  10 active torsions:
REMARK  status: ('A' for Active; 'I' for Inactive)
REMARK    1  A    between atoms: N_7  and  C_8 
REMARK    2  A    between atoms: C_8  and  C_9 
REMARK       I    between atoms: C_9  and  N_10 
REMARK    3  A    between atoms: N_10  and  C_11 
REMARK    4  A    between atoms: C_11  and  C_12 
REMARK    5  A    between atoms: C_12  and  C_13 
REMARK    6  A    between atoms: C_13  and  C_14 
REMARK       I    between atoms: C_14  and  N_15 
REMARK    7  A    between atoms: N_15  and  C_16 
REMARK    8  A    between atoms: C_16  and  C_17 
REMARK    9  A    between atoms: C_17  and  C_18 
REMARK   10  A    between atoms: C_18  and  N_19 
ROOT
HETATM    1  C   UNL     1      39.193 -14.432   1.396  1.00  0.00     0.123 C 
ENDROOT
BRANCH   1   2
HETATM    2  N   UNL     1      40.611 -14.725   1.410  1.00  0.00    -0.360 N 
HETATM    3  C   UNL     1      41.088 -15.990   1.693  1.00  0.00     0.235 C 
HETATM    4  O   UNL     1      40.347 -16.931   1.967  1.00  0.00    -0.272 OA
HETATM    5  H   UNL     1      41.262 -13.961   1.269  1.00  0.00     0.162 HD
BRANCH   3   6
HETATM    6  C   UNL     1      42.603 -16.132   1.559  1.00  0.00     0.235 C 
BRANCH   6   7
HETATM    7  N   UNL     1      43.120 -17.009   2.592  1.00  0.00    -0.299 N 
HETATM    8  C   UNL     1      43.252 -16.551   3.889  1.00  0.00     0.214 A 
HETATM    9  N   UNL     1      43.672 -17.249   4.894  1.00  0.00    -0.235 NA
HETATM   10  C   UNL     1      43.998 -18.529   4.586  1.00  0.00     0.115 A 
HETATM   11  C   UNL     1      43.969 -19.113   3.339  1.00  0.00     0.075 A 
HETATM   12  S   UNL     1      44.504 -19.626   5.782  1.00  0.00    -0.074 SA
HETATM   13  C   UNL     1      44.385 -20.493   3.355  1.00  0.00    -0.031 A 
HETATM   14  C   UNL     1      43.529 -18.287   2.224  1.00  0.00     0.262 A 
HETATM   15  C   UNL     1      44.462 -21.361   2.140  1.00  0.00     0.050 C 
HETATM   16  C   UNL     1      44.670 -20.901   4.651  1.00  0.00    -0.012 A 
HETATM   17  C   UNL     1      45.092 -22.249   5.140  1.00  0.00     0.057 C 
HETATM   18  O   UNL     1      43.518 -18.685   1.060  1.00  0.00    -0.267 OA
ENDBRANCH   6   7
ENDBRANCH   3   6
ENDBRANCH   1   2
BRANCH   1  19
HETATM   19  C   UNL     1      38.839 -13.330   0.401  1.00  0.00     0.029 C 
BRANCH  19  20
HETATM   20  C   UNL     1      37.719 -13.783  -0.529  1.00  0.00     0.104 C 
BRANCH  20  21
HETATM   21  C   UNL     1      38.197 -13.948  -1.953  1.00  0.00     0.217 C 
HETATM   22  N   UNL     1      39.237 -14.836  -2.115  1.00  0.00    -0.361 N 
HETATM   23  H   UNL     1      39.683 -15.196  -1.275  1.00  0.00     0.162 HD
HETATM   24  O   UNL     1      37.686 -13.350  -2.896  1.00  0.00    -0.274 OA
BRANCH  22  25
HETATM   25  C   UNL     1      39.967 -14.949  -3.361  1.00  0.00     0.124 C 
BRANCH  25  26
HETATM   26  C   UNL     1      41.440 -14.540  -3.261  1.00  0.00     0.047 C 
BRANCH  26  27
HETATM   27  C   UNL     1      41.739 -13.722  -2.006  1.00  0.00     0.236 C 
BRANCH  27  28
HETATM   28  N   UNL     1      42.262 -12.331  -2.358  1.00  0.00    -0.070 N 
HETATM   29  H   UNL     1      43.285 -12.368  -2.275  1.00  0.00     0.279 HD
HETATM   30  C   UNL     1      41.915 -11.913  -3.770  1.00  0.00     0.239 C 
HETATM   31  C   UNL     1      42.529 -10.544  -4.072  1.00  0.00     0.008 C 
HETATM   32  C   UNL     1      42.080  -9.498  -3.045  1.00  0.00     0.011 C 
HETATM   33  C   UNL     1      42.156 -10.100  -5.486  1.00  0.00     0.011 C 
HETATM   34  C   UNL     1      42.346  -9.939  -1.601  1.00  0.00     0.008 C 
HETATM   35  C   UNL     1      41.758 -11.327  -1.339  1.00  0.00     0.239 C 
HETATM   36  C   UNL     1      43.834  -9.868  -1.248  1.00  0.00     0.011 C 
ENDBRANCH  27  28
ENDBRANCH  26  27
ENDBRANCH  25  26
ENDBRANCH  22  25
ENDBRANCH  20  21
ENDBRANCH  19  20
ENDBRANCH   1  19
TORSDOF 10
ENDMDL
MODEL 9
REMARK VINA RESULT:      -7.9      3.000     10.189
REMARK  10 active torsions:
REMARK  status: ('A' for Active; 'I' for Inactive)
REMARK    1  A    between atoms: N_7  and  C_8 
REMARK    2  A    between atoms: C_8  and  C_9 
REMARK       I    between atoms: C_9  and  N_10 
REMARK    3  A    between atoms: N_10  and  C_11 
REMARK    4  A    between atoms: C_11  and  C_12 
REMARK    5  A    between atoms: C_12  and  C_13 
REMARK    6  A    between atoms: C_13  and  C_14 
REMARK       I    between atoms: C_14  and  N_15 
REMARK    7  A    between atoms: N_15  and  C_16 
REMARK    8  A    between atoms: C_16  and  C_17 
REMARK    9  A    between atoms: C_17  and  C_18 
REMARK   10  A    between atoms: C_18  and  N_19 
ROOT
HETATM    1  C   UNL     1      39.911 -13.365   3.679  1.00  0.00     0.123 C 
ENDROOT
BRANCH   1   2
HETATM    2  N   UNL     1      41.253 -13.895   3.559  1.00  0.00    -0.360 N 
HETATM    3  C   UNL     1      41.494 -15.144   3.017  1.00  0.00     0.235 C 
HETATM    4  O   UNL     1      40.592 -15.881   2.628  1.00  0.00    -0.272 OA
HETATM    5  H   UNL     1      42.021 -13.355   3.940  1.00  0.00     0.162 HD
BRANCH   3   6
HETATM    6  C   UNL     1      42.975 -15.489   2.876  1.00  0.00     0.235 C 
BRANCH   6   7
HETATM    7  N   UNL     1      43.318 -16.602   3.740  1.00  0.00    -0.299 N 
HETATM    8  C   UNL     1      43.183 -16.485   5.111  1.00  0.00     0.214 A 
HETATM    9  N   UNL     1      43.429 -17.416   5.973  1.00  0.00    -0.235 NA
HETATM   10  C   UNL     1      43.854 -18.583   5.428  1.00  0.00     0.115 A 
HETATM   11  C   UNL     1      44.085 -18.836   4.093  1.00  0.00     0.075 A 
HETATM   12  S   UNL     1      44.162 -19.949   6.390  1.00  0.00    -0.074 SA
HETATM   13  C   UNL     1      44.541 -20.182   3.848  1.00  0.00    -0.031 A 
HETATM   14  C   UNL     1      43.836 -17.753   3.154  1.00  0.00     0.262 A 
HETATM   15  C   UNL     1      44.879 -20.720   2.495  1.00  0.00     0.050 C 
HETATM   16  C   UNL     1      44.588 -20.905   5.033  1.00  0.00    -0.012 A 
HETATM   17  C   UNL     1      44.958 -22.337   5.246  1.00  0.00     0.057 C 
HETATM   18  O   UNL     1      44.062 -17.847   1.949  1.00  0.00    -0.267 OA
ENDBRANCH   6   7
ENDBRANCH   3   6
ENDBRANCH   1   2
BRANCH   1  19
HETATM   19  C   UNL     1      39.399 -13.409   5.117  1.00  0.00     0.029 C 
BRANCH  19  20
HETATM   20  C   UNL     1      40.378 -12.717   6.058  1.00  0.00     0.104 C 
BRANCH  20  21
HETATM   21  C   UNL     1      39.950 -11.303   6.380  1.00  0.00     0.217 C 
HETATM   22  N   UNL     1      40.817 -10.608   7.193  1.00  0.00    -0.361 N 
HETATM   23  H   UNL     1      41.583 -11.126   7.616  1.00  0.00     0.162 HD
HETATM   24  O   UNL     1      38.919 -10.807   5.936  1.00  0.00    -0.274 OA
BRANCH  22  25
HETATM   25  C   UNL     1      40.464  -9.333   7.784  1.00  0.00     0.124 C 
BRANCH  25  26
HETATM   26  C   UNL     1      40.221  -9.393   9.296  1.00  0.00     0.047 C 
BRANCH  26  27
HETATM   27  C   UNL     1      40.414 -10.796   9.868  1.00  0.00     0.236 C 
BRANCH  27  28
HETATM   28  N   UNL     1      41.539 -10.829  10.899  1.00  0.00    -0.070 N 
HETATM   29  H   UNL     1      41.339 -11.611  11.534  1.00  0.00     0.279 HD
HETATM   30  C   UNL     1      42.899 -11.057  10.277  1.00  0.00     0.239 C 
HETATM   31  C   UNL     1      43.962 -11.148  11.374  1.00  0.00     0.008 C 
HETATM   32  C   UNL     1      43.949  -9.898  12.261  1.00  0.00     0.011 C 
HETATM   33  C   UNL     1      45.345 -11.347  10.752  1.00  0.00     0.011 C 
HETATM   34  C   UNL     1      42.559  -9.598  12.835  1.00  0.00     0.008 C 
HETATM   35  C   UNL     1      41.510  -9.555  11.722  1.00  0.00     0.239 C 
HETATM   36  C   UNL     1      42.179 -10.578  13.949  1.00  0.00     0.011 C 
ENDBRANCH  27  28
ENDBRANCH  26  27
ENDBRANCH  25  26
ENDBRANCH  22  25
ENDBRANCH  20  21
ENDBRANCH  19  20
ENDBRANCH   1  19
TORSDOF 10
ENDMDL
MODEL 10
REMARK VINA RESULT:      -7.9      5.116      9.306
REMARK  10 active torsions:
REMARK  status: ('A' for Active; 'I' for Inactive)
REMARK    1  A    between atoms: N_7  and  C_8 
REMARK    2  A    between atoms: C_8  and  C_9 
REMARK       I    between atoms: C_9  and  N_10 
REMARK    3  A    between atoms: N_10  and  C_11 
REMARK    4  A    between atoms: C_11  and  C_12 
REMARK    5  A    between atoms: C_12  and  C_13 
REMARK    6  A    between atoms: C_13  and  C_14 
REMARK       I    between atoms: C_14  and  N_15 
REMARK    7  A    between atoms: N_15  and  C_16 
REMARK    8  A    between atoms: C_16  and  C_17 
REMARK    9  A    between atoms: C_17  and  C_18 
REMARK   10  A    between atoms: C_18  and  N_19 
ROOT
HETATM    1  C   UNL     1      43.253 -13.629   6.085  1.00  0.00     0.123 C 
ENDROOT
BRANCH   1   2
HETATM    2  N   UNL     1      42.655 -14.942   6.198  1.00  0.00    -0.360 N 
HETATM    3  C   UNL     1      43.135 -15.884   7.088  1.00  0.00     0.235 C 
HETATM    4  O   UNL     1      44.102 -15.675   7.816  1.00  0.00    -0.272 OA
HETATM    5  H   UNL     1      41.906 -15.188   5.561  1.00  0.00     0.162 HD
BRANCH   3   6
HETATM    6  C   UNL     1      42.314 -17.171   7.140  1.00  0.00     0.235 C 
BRANCH   6   7
HETATM    7  N   UNL     1      43.000 -18.236   6.433  1.00  0.00    -0.299 N 
HETATM    8  C   UNL     1      43.716 -19.187   7.136  1.00  0.00     0.214 A 
HETATM    9  N   UNL     1      44.340 -20.193   6.616  1.00  0.00    -0.235 NA
HETATM   10  C   UNL     1      44.251 -20.268   5.265  1.00  0.00     0.115 A 
HETATM   11  C   UNL     1      43.622 -19.374   4.427  1.00  0.00     0.075 A 
HETATM   12  S   UNL     1      44.945 -21.557   4.402  1.00  0.00    -0.074 SA
HETATM   13  C   UNL     1      43.719 -19.743   3.037  1.00  0.00    -0.031 A 
HETATM   14  C   UNL     1      42.963 -18.231   5.042  1.00  0.00     0.262 A 
HETATM   15  C   UNL     1      43.139 -18.945   1.914  1.00  0.00     0.050 C 
HETATM   16  C   UNL     1      44.394 -20.948   2.898  1.00  0.00    -0.012 A 
HETATM   17  C   UNL     1      44.687 -21.724   1.655  1.00  0.00     0.057 C 
HETATM   18  O   UNL     1      42.420 -17.340   4.390  1.00  0.00    -0.267 OA
ENDBRANCH   6   7
ENDBRANCH   3   6
ENDBRANCH   1   2
BRANCH   1  19
HETATM   19  C   UNL     1      42.394 -12.671   5.264  1.00  0.00     0.029 C 
BRANCH  19  20
HETATM   20  C   UNL     1      41.471 -13.443   4.328  1.00  0.00     0.104 C 
BRANCH  20  21
HETATM   21  C   UNL     1      42.187 -13.903   3.080  1.00  0.00     0.217 C 
HETATM   22  N   UNL     1      41.551 -14.908   2.385  1.00  0.00    -0.361 N 
HETATM   23  H   UNL     1      40.746 -15.346   2.825  1.00  0.00     0.162 HD
HETATM   24  O   UNL     1      43.246 -13.408   2.703  1.00  0.00    -0.274 OA
BRANCH  22  25
HETATM   25  C   UNL     1      42.195 -15.624   1.302  1.00  0.00     0.124 C 
BRANCH  25  26
HETATM   26  C   UNL     1      41.504 -15.454  -0.055  1.00  0.00     0.047 C 
BRANCH  26  27
HETATM   27  C   UNL     1      41.165 -13.997  -0.364  1.00  0.00     0.236 C 
BRANCH  27  28
HETATM   28  N   UNL     1      40.157 -13.889  -1.505  1.00  0.00    -0.070 N 
HETATM   29  H   UNL     1      40.457 -13.103  -2.094  1.00  0.00     0.279 HD
HETATM   30  C   UNL     1      40.105 -15.133  -2.364  1.00  0.00     0.239 C 
HETATM   31  C   UNL     1      39.128 -14.924  -3.522  1.00  0.00     0.008 C 
HETATM   32  C   UNL     1      37.738 -14.533  -3.009  1.00  0.00     0.011 C 
HETATM   33  C   UNL     1      39.046 -16.188  -4.378  1.00  0.00     0.011 C 
HETATM   34  C   UNL     1      37.776 -13.323  -2.067  1.00  0.00     0.008 C 
HETATM   35  C   UNL     1      38.791 -13.542  -0.943  1.00  0.00     0.239 C 
HETATM   36  C   UNL     1      38.029 -12.018  -2.826  1.00  0.00     0.011 C 
ENDBRANCH  27  28
ENDBRANCH  26  27
ENDBRANCH  25  26
ENDBRANCH  22  25
ENDBRANCH  20  21
ENDBRANCH  19  20
ENDBRANCH   1  19
TORSDOF 10
ENDMDL
