MODEL 1
REMARK VINA RESULT:      -9.3      0.000      0.000
REMARK  8 active torsions:
REMARK  status: ('A' for Active; 'I' for Inactive)
REMARK    1  A    between atoms: C_4  and  N_5 
REMARK       I    between atoms: N_5  and  C_6 
REMARK    2  A    between atoms: C_6  and  C_7 
REMARK    3  A    between atoms: C_7  and  N_8 
REMARK    4  A    between atoms: N_11  and  C_12 
REMARK    5  A    between atoms: C_12  and  C_13 
REMARK    6  A    between atoms: C_16  and  C_17 
REMARK       I    between atoms: C_17  and  N_18 
REMARK    7  A    between atoms: N_18  and  C_19 
REMARK    8  A    between atoms: C_19  and  C_20 
ROOT
HETATM    1  N   UNL     1      42.387 -17.732   2.787  1.00  0.00    -0.290 N 
HETATM    2  C   UNL     1      41.518 -17.126   3.702  1.00  0.00     0.332 C 
HETATM    3  O   UNL     1      40.428 -16.690   3.333  1.00  0.00    -0.246 OA
HETATM    4  N   UNL     1      41.957 -17.041   5.019  1.00  0.00    -0.261 N 
HETATM    5  C   UNL     1      42.996 -17.794   5.536  1.00  0.00     0.264 C 
HETATM    6  O   UNL     1      43.381 -17.734   6.701  1.00  0.00    -0.267 OA
HETATM    7  C   UNL     1      43.620 -18.761   4.624  1.00  0.00     0.059 A 
HETATM    8  C   UNL     1      43.319 -18.712   3.262  1.00  0.00     0.055 A 
HETATM    9  C   UNL     1      44.460 -19.752   5.159  1.00  0.00     0.019 A 
HETATM   10  C   UNL     1      45.006 -20.724   4.330  1.00  0.00     0.001 A 
HETATM   11  C   UNL     1      44.727 -20.691   2.969  1.00  0.00     0.002 A 
HETATM   12  C   UNL     1      43.900 -19.690   2.439  1.00  0.00     0.031 A 
ENDROOT
BRANCH   4  13
HETATM   13  C   UNL     1      41.136 -16.299   5.975  1.00  0.00     0.175 C 
BRANCH  13  14
HETATM   14  C   UNL     1      41.132 -14.810   5.715  1.00  0.00    -0.040 A 
HETATM   15  C   UNL     1      39.919 -14.106   5.777  1.00  0.00     0.010 A 
HETATM   16  C   UNL     1      39.853 -12.784   5.354  1.00  0.00     0.017 A 
HETATM   17  C   UNL     1      41.002 -12.156   4.866  1.00  0.00     0.032 A 
HETATM   18  C   UNL     1      42.235 -12.814   4.896  1.00  0.00     0.017 A 
HETATM   19  C   UNL     1      42.300 -14.141   5.319  1.00  0.00     0.010 A 
BRANCH  17  20
HETATM   20  C   UNL     1      40.904 -10.834   4.201  1.00  0.00     0.251 C 
HETATM   21  N   UNL     1      40.314 -10.878   2.954  1.00  0.00    -0.353 N 
HETATM   22  H   UNL     1      40.139 -11.786   2.548  1.00  0.00     0.163 HD
HETATM   23  O   UNL     1      41.392  -9.836   4.714  1.00  0.00    -0.268 OA
BRANCH  21  24
HETATM   24  C   UNL     1      40.435  -9.781   2.026  1.00  0.00     0.161 C 
BRANCH  24  25
HETATM   25  C   UNL     1      41.041 -10.221   0.691  1.00  0.00    -0.038 A 
HETATM   26  C   UNL     1      40.808  -9.402  -0.476  1.00  0.00     0.048 A 
HETATM   27  C   UNL     1      41.376  -9.988  -1.577  1.00  0.00     0.105 A 
HETATM   28  C   UNL     1      42.279 -11.532  -1.428  1.00  0.00     0.105 A 
HETATM   29  O   UNL     1      41.349  -9.562  -3.546  1.00  0.00    -0.323 OA
HETATM   30  O   UNL     1      42.822 -12.142  -3.023  1.00  0.00    -0.323 OA
HETATM   31  C   UNL     1      42.478 -12.218  -0.288  1.00  0.00     0.040 A 
HETATM   32  C   UNL     1      42.307 -10.996  -4.442  1.00  0.00     0.352 A 
HETATM   33  C   UNL     1      41.837 -11.520   0.759  1.00  0.00     0.012 A 
ENDBRANCH  24  25
ENDBRANCH  21  24
ENDBRANCH  17  20
ENDBRANCH  13  14
ENDBRANCH   4  13
BRANCH   1  34
HETATM   34  C   UNL     1      41.902 -17.783   1.402  1.00  0.00     0.237 C 
BRANCH  34  35
HETATM   35  C   UNL     1      41.926 -16.506   0.529  1.00  0.00     0.240 C 
HETATM   36  N   UNL     1      40.939 -16.431  -0.439  1.00  0.00    -0.326 N 
HETATM   37  H   UNL     1      40.460 -17.287  -0.687  1.00  0.00     0.169 HD
HETATM   38  O   UNL     1      42.657 -15.576   0.874  1.00  0.00    -0.271 OA
BRANCH  36  39
HETATM   39  C   UNL     1      40.449 -15.242  -1.054  1.00  0.00     0.035 A 
HETATM   40  C   UNL     1      39.473 -14.125  -0.162  1.00  0.00     0.036 A 
HETATM   41  C   UNL     1      38.663 -12.781  -0.814  1.00  0.00    -0.060 A 
HETATM   42  C   UNL     1      37.769 -11.930   0.017  1.00  0.00     0.048 C 
HETATM   43  C   UNL     1      38.817 -12.510  -2.518  1.00  0.00     0.007 A 
HETATM   44  C   UNL     1      39.999 -13.814  -3.594  1.00  0.00     0.003 A 
HETATM   45  C   UNL     1      40.759 -15.119  -2.724  1.00  0.00     0.029 A 
ENDBRANCH  36  39
ENDBRANCH  34  35
ENDBRANCH   1  34
TORSDOF 8
ENDMDL
MODEL 2
REMARK VINA RESULT:      -9.1      3.948      6.804
REMARK  8 active torsions:
REMARK  status: ('A' for Active; 'I' for Inactive)
REMARK    1  A    between atoms: C_4  and  N_5 
REMARK       I    between atoms: N_5  and  C_6 
REMARK    2  A    between atoms: C_6  and  C_7 
REMARK    3  A    between atoms: C_7  and  N_8 
REMARK    4  A    between atoms: N_11  and  C_12 
REMARK    5  A    between atoms: C_12  and  C_13 
REMARK    6  A    between atoms: C_16  and  C_17 
REMARK       I    between atoms: C_17  and  N_18 
REMARK    7  A    between atoms: N_18  and  C_19 
REMARK    8  A    between atoms: C_19  and  C_20 
ROOT
HETATM    1  N   UNL     1      42.252 -17.905   2.638  1.00  0.00    -0.290 N 
HETATM    2  C   UNL     1      41.464 -17.377   3.667  1.00  0.00     0.332 C 
HETATM    3  O   UNL     1      40.356 -16.900   3.425  1.00  0.00    -0.246 OA
HETATM    4  N   UNL     1      42.004 -17.414   4.949  1.00  0.00    -0.261 N 
HETATM    5  C   UNL     1      43.068 -18.219   5.315  1.00  0.00     0.264 C 
HETATM    6  O   UNL     1      43.541 -18.267   6.448  1.00  0.00    -0.267 OA
HETATM    7  C   UNL     1      43.606 -19.105   4.276  1.00  0.00     0.059 A 
HETATM    8  C   UNL     1      43.202 -18.931   2.951  1.00  0.00     0.055 A 
HETATM    9  C   UNL     1      44.469 -20.147   4.654  1.00  0.00     0.019 A 
HETATM   10  C   UNL     1      44.936 -21.045   3.701  1.00  0.00     0.001 A 
HETATM   11  C   UNL     1      44.554 -20.887   2.374  1.00  0.00     0.002 A 
HETATM   12  C   UNL     1      43.704 -19.836   2.001  1.00  0.00     0.031 A 
ENDROOT
BRANCH   4  13
HETATM   13  C   UNL     1      41.269 -16.754   6.028  1.00  0.00     0.175 C 
BRANCH  13  14
HETATM   14  C   UNL     1      41.293 -15.247   5.920  1.00  0.00    -0.040 A 
HETATM   15  C   UNL     1      42.527 -14.578   5.921  1.00  0.00     0.010 A 
HETATM   16  C   UNL     1      42.574 -13.193   6.020  1.00  0.00     0.017 A 
HETATM   17  C   UNL     1      41.384 -12.466   6.116  1.00  0.00     0.032 A 
HETATM   18  C   UNL     1      40.149 -13.112   6.012  1.00  0.00     0.017 A 
HETATM   19  C   UNL     1      40.103 -14.503   5.914  1.00  0.00     0.010 A 
BRANCH  17  20
HETATM   20  C   UNL     1      41.417 -11.021   6.451  1.00  0.00     0.251 C 
HETATM   21  N   UNL     1      41.909 -10.751   7.712  1.00  0.00    -0.353 N 
HETATM   22  H   UNL     1      42.061 -11.532   8.335  1.00  0.00     0.163 HD
HETATM   23  O   UNL     1      40.960 -10.188   5.681  1.00  0.00    -0.268 OA
BRANCH  21  24
HETATM   24  C   UNL     1      41.706  -9.469   8.340  1.00  0.00     0.161 C 
BRANCH  24  25
HETATM   25  C   UNL     1      41.965  -9.518   9.847  1.00  0.00    -0.038 A 
HETATM   26  C   UNL     1      40.939  -9.032  10.740  1.00  0.00     0.048 A 
HETATM   27  C   UNL     1      41.378  -9.103  12.036  1.00  0.00     0.105 A 
HETATM   28  C   UNL     1      43.002  -9.765  12.417  1.00  0.00     0.105 A 
HETATM   29  O   UNL     1      40.619  -8.480  13.796  1.00  0.00    -0.323 OA
HETATM   30  O   UNL     1      43.378  -9.644  14.165  1.00  0.00    -0.323 OA
HETATM   31  C   UNL     1      43.891 -10.230  11.520  1.00  0.00     0.040 A 
HETATM   32  C   UNL     1      41.961  -8.858  15.149  1.00  0.00     0.352 A 
HETATM   33  C   UNL     1      43.326 -10.089  10.233  1.00  0.00     0.012 A 
ENDBRANCH  24  25
ENDBRANCH  21  24
ENDBRANCH  17  20
ENDBRANCH  13  14
ENDBRANCH   4  13
BRANCH   1  34
HETATM   34  C   UNL     1      41.662 -17.826   1.296  1.00  0.00     0.237 C 
BRANCH  34  35
HETATM   35  C   UNL     1      41.426 -16.448   0.636  1.00  0.00     0.240 C 
HETATM   36  N   UNL     1      40.144 -15.940   0.767  1.00  0.00    -0.326 N 
HETATM   37  H   UNL     1      39.409 -16.583   1.032  1.00  0.00     0.169 HD
HETATM   38  O   UNL     1      42.404 -15.815   0.237  1.00  0.00    -0.271 OA
BRANCH  36  39
HETATM   39  C   UNL     1      39.766 -14.569   0.673  1.00  0.00     0.035 A 
HETATM   40  C   UNL     1      39.469 -13.634   2.099  1.00  0.00     0.036 A 
HETATM   41  C   UNL     1      38.826 -12.061   2.133  1.00  0.00    -0.060 A 
HETATM   42  C   UNL     1      38.517 -11.373   3.416  1.00  0.00     0.048 C 
HETATM   43  C   UNL     1      38.422 -11.334   0.614  1.00  0.00     0.007 A 
HETATM   44  C   UNL     1      38.796 -12.420  -1.100  1.00  0.00     0.003 A 
HETATM   45  C   UNL     1      39.481 -14.012  -0.911  1.00  0.00     0.029 A 
ENDBRANCH  36  39
ENDBRANCH  34  35
ENDBRANCH   1  34
TORSDOF 8
ENDMDL
MODEL 3
REMARK VINA RESULT:      -8.6      4.207      7.899
REMARK  8 active torsions:
REMARK  status: ('A' for Active; 'I' for Inactive)
REMARK    1  A    between atoms: C_4  and  N_5 
REMARK       I    between atoms: N_5  and  C_6 
REMARK    2  A    between atoms: C_6  and  C_7 
REMARK    3  A    between atoms: C_7  and  N_8 
REMARK    4  A    between atoms: N_11  and  C_12 
REMARK    5  A    between atoms: C_12  and  C_13 
REMARK    6  A    between atoms: C_16  and  C_17 
REMARK       I    between atoms: C_17  and  N_18 
REMARK    7  A    between atoms: N_18  and  C_19 
REMARK    8  A    between atoms: C_19  and  C_20 
ROOT
HETATM    1  N   UNL     1      41.597 -10.808   9.549  1.00  0.00    -0.290 N 
HETATM    2  C   UNL     1      42.686 -11.110   8.723  1.00  0.00     0.332 C 
HETATM    3  O   UNL     1      42.722 -10.701   7.562  1.00  0.00    -0.246 OA
HETATM    4  N   UNL     1      43.695 -11.890   9.278  1.00  0.00    -0.261 N 
HETATM    5  C   UNL     1      43.859 -12.085  10.638  1.00  0.00     0.264 C 
HETATM    6  O   UNL     1      44.755 -12.761  11.137  1.00  0.00    -0.267 OA
HETATM    7  C   UNL     1      42.921 -11.378  11.518  1.00  0.00     0.059 A 
HETATM    8  C   UNL     1      41.797 -10.760  10.967  1.00  0.00     0.055 A 
HETATM    9  C   UNL     1      43.213 -11.291  12.890  1.00  0.00     0.019 A 
HETATM   10  C   UNL     1      42.381 -10.566  13.735  1.00  0.00     0.001 A 
HETATM   11  C   UNL     1      41.252  -9.949  13.210  1.00  0.00     0.002 A 
HETATM   12  C   UNL     1      40.957 -10.051  11.842  1.00  0.00     0.031 A 
ENDROOT
BRANCH   4  13
HETATM   13  C   UNL     1      44.783 -12.334   8.409  1.00  0.00     0.175 C 
BRANCH  13  14
HETATM   14  C   UNL     1      44.405 -13.524   7.556  1.00  0.00    -0.040 A 
HETATM   15  C   UNL     1      44.059 -13.322   6.210  1.00  0.00     0.010 A 
HETATM   16  C   UNL     1      43.523 -14.360   5.460  1.00  0.00     0.017 A 
HETATM   17  C   UNL     1      43.329 -15.612   6.051  1.00  0.00     0.032 A 
HETATM   18  C   UNL     1      43.765 -15.853   7.358  1.00  0.00     0.017 A 
HETATM   19  C   UNL     1      44.302 -14.808   8.110  1.00  0.00     0.010 A 
BRANCH  17  20
HETATM   20  C   UNL     1      42.553 -16.659   5.345  1.00  0.00     0.251 C 
HETATM   21  N   UNL     1      43.021 -16.943   4.078  1.00  0.00    -0.353 N 
HETATM   22  H   UNL     1      43.731 -16.337   3.691  1.00  0.00     0.163 HD
HETATM   23  O   UNL     1      41.545 -17.139   5.847  1.00  0.00    -0.268 OA
BRANCH  21  24
HETATM   24  C   UNL     1      42.216 -17.666   3.123  1.00  0.00     0.161 C 
BRANCH  24  25
HETATM   25  C   UNL     1      41.465 -16.727   2.176  1.00  0.00    -0.038 A 
HETATM   26  C   UNL     1      40.184 -16.206   2.593  1.00  0.00     0.048 A 
HETATM   27  C   UNL     1      39.646 -15.440   1.593  1.00  0.00     0.105 A 
HETATM   28  C   UNL     1      40.538 -15.181   0.057  1.00  0.00     0.105 A 
HETATM   29  O   UNL     1      37.865 -14.529   1.347  1.00  0.00    -0.323 OA
HETATM   30  O   UNL     1      39.572 -14.240  -1.124  1.00  0.00    -0.323 OA
HETATM   31  C   UNL     1      41.751 -15.681  -0.240  1.00  0.00     0.040 A 
HETATM   32  C   UNL     1      37.871 -13.763  -0.439  1.00  0.00     0.352 A 
HETATM   33  C   UNL     1      42.185 -16.455   0.859  1.00  0.00     0.012 A 
ENDBRANCH  24  25
ENDBRANCH  21  24
ENDBRANCH  17  20
ENDBRANCH  13  14
ENDBRANCH   4  13
BRANCH   1  34
HETATM   34  C   UNL     1      40.539 -10.005   8.923  1.00  0.00     0.237 C 
BRANCH  34  35
HETATM   35  C   UNL     1      39.776 -10.557   7.696  1.00  0.00     0.240 C 
HETATM   36  N   UNL     1      40.103  -9.976   6.483  1.00  0.00    -0.326 N 
HETATM   37  H   UNL     1      40.591  -9.090   6.504  1.00  0.00     0.169 HD
HETATM   38  O   UNL     1      39.108 -11.582   7.837  1.00  0.00    -0.271 OA
BRANCH  36  39
HETATM   39  C   UNL     1      39.917 -10.554   5.193  1.00  0.00     0.035 A 
HETATM   40  C   UNL     1      41.143 -11.550   4.487  1.00  0.00     0.036 A 
HETATM   41  C   UNL     1      41.143 -12.136   2.892  1.00  0.00    -0.060 A 
HETATM   42  C   UNL     1      42.291 -12.910   2.344  1.00  0.00     0.048 C 
HETATM   43  C   UNL     1      39.808 -11.692   1.881  1.00  0.00     0.007 A 
HETATM   44  C   UNL     1      38.321 -10.528   2.713  1.00  0.00     0.003 A 
HETATM   45  C   UNL     1      38.508 -10.051   4.379  1.00  0.00     0.029 A 
ENDBRANCH  36  39
ENDBRANCH  34  35
ENDBRANCH   1  34
TORSDOF 8
ENDMDL
MODEL 4
REMARK VINA RESULT:      -8.2      4.614      7.635
REMARK  8 active torsions:
REMARK  status: ('A' for Active; 'I' for Inactive)
REMARK    1  A    between atoms: C_4  and  N_5 
REMARK       I    between atoms: N_5  and  C_6 
REMARK    2  A    between atoms: C_6  and  C_7 
REMARK    3  A    between atoms: C_7  and  N_8 
REMARK    4  A    between atoms: N_11  and  C_12 
REMARK    5  A    between atoms: C_12  and  C_13 
REMARK    6  A    between atoms: C_16  and  C_17 
REMARK       I    between atoms: C_17  and  N_18 
REMARK    7  A    between atoms: N_18  and  C_19 
REMARK    8  A    between atoms: C_19  and  C_20 
ROOT
HETATM    1  N   UNL     1      41.477 -15.535   2.015  1.00  0.00    -0.290 N 
HETATM    2  C   UNL     1      40.600 -15.231   3.063  1.00  0.00     0.332 C 
HETATM    3  O   UNL     1      39.523 -14.680   2.836  1.00  0.00    -0.246 OA
HETATM    4  N   UNL     1      41.016 -15.573   4.345  1.00  0.00    -0.261 N 
HETATM    5  C   UNL     1      42.034 -16.471   4.613  1.00  0.00     0.264 C 
HETATM    6  O   UNL     1      42.398 -16.789   5.742  1.00  0.00    -0.267 OA
HETATM    7  C   UNL     1      42.661 -17.114   3.451  1.00  0.00     0.059 A 
HETATM    8  C   UNL     1      42.386 -16.632   2.170  1.00  0.00     0.055 A 
HETATM    9  C   UNL     1      43.478 -18.239   3.657  1.00  0.00     0.019 A 
HETATM   10  C   UNL     1      44.025 -18.910   2.571  1.00  0.00     0.001 A 
HETATM   11  C   UNL     1      43.771 -18.445   1.287  1.00  0.00     0.002 A 
HETATM   12  C   UNL     1      42.968 -17.312   1.088  1.00  0.00     0.031 A 
ENDROOT
BRANCH   4  13
HETATM   13  C   UNL     1      40.188 -15.155   5.476  1.00  0.00     0.175 C 
BRANCH  13  14
HETATM   14  C   UNL     1      40.402 -13.708   5.857  1.00  0.00    -0.040 A 
HETATM   15  C   UNL     1      41.702 -13.179   5.840  1.00  0.00     0.010 A 
HETATM   16  C   UNL     1      41.954 -11.920   6.369  1.00  0.00     0.017 A 
HETATM   17  C   UNL     1      40.904 -11.178   6.920  1.00  0.00     0.032 A 
HETATM   18  C   UNL     1      39.591 -11.651   6.850  1.00  0.00     0.017 A 
HETATM   19  C   UNL     1      39.340 -12.917   6.319  1.00  0.00     0.010 A 
BRANCH  17  20
HETATM   20  C   UNL     1      41.187  -9.943   7.690  1.00  0.00     0.251 C 
HETATM   21  N   UNL     1      40.226  -9.641   8.634  1.00  0.00    -0.353 N 
HETATM   22  H   UNL     1      39.370 -10.179   8.624  1.00  0.00     0.163 HD
HETATM   23  O   UNL     1      42.153  -9.242   7.421  1.00  0.00    -0.268 OA
BRANCH  21  24
HETATM   24  C   UNL     1      40.145  -8.331   9.232  1.00  0.00     0.161 C 
BRANCH  24  25
HETATM   25  C   UNL     1      40.425  -8.368  10.736  1.00  0.00    -0.038 A 
HETATM   26  C   UNL     1      41.742  -8.756  11.184  1.00  0.00     0.048 A 
HETATM   27  C   UNL     1      41.779  -8.785  12.553  1.00  0.00     0.105 A 
HETATM   28  C   UNL     1      40.331  -8.343  13.517  1.00  0.00     0.105 A 
HETATM   29  O   UNL     1      43.164  -9.373  13.894  1.00  0.00    -0.323 OA
HETATM   30  O   UNL     1      40.604  -8.572  15.274  1.00  0.00    -0.323 OA
HETATM   31  C   UNL     1      39.142  -7.958  13.017  1.00  0.00     0.040 A 
HETATM   32  C   UNL     1      42.347  -9.212  15.650  1.00  0.00     0.352 A 
HETATM   33  C   UNL     1      39.233  -7.983  11.608  1.00  0.00     0.012 A 
ENDBRANCH  24  25
ENDBRANCH  21  24
ENDBRANCH  17  20
ENDBRANCH  13  14
ENDBRANCH   4  13
BRANCH   1  34
HETATM   34  C   UNL     1      41.018 -15.137   0.679  1.00  0.00     0.237 C 
BRANCH  34  35
HETATM   35  C   UNL     1      41.298 -13.708   0.161  1.00  0.00     0.240 C 
HETATM   36  N   UNL     1      42.302 -13.606  -0.787  1.00  0.00    -0.326 N 
HETATM   37  H   UNL     1      42.942 -14.385  -0.877  1.00  0.00     0.169 HD
HETATM   38  O   UNL     1      40.501 -12.815   0.451  1.00  0.00    -0.271 OA
BRANCH  36  39
HETATM   39  C   UNL     1      42.466 -12.553  -1.733  1.00  0.00     0.035 A 
HETATM   40  C   UNL     1      43.112 -11.023  -1.248  1.00  0.00     0.036 A 
HETATM   41  C   UNL     1      43.178  -9.626  -2.214  1.00  0.00    -0.060 A 
HETATM   42  C   UNL     1      43.667  -8.327  -1.676  1.00  0.00     0.048 C 
HETATM   43  C   UNL     1      42.533  -9.737  -3.818  1.00  0.00     0.007 A 
HETATM   44  C   UNL     1      41.784 -11.561  -4.426  1.00  0.00     0.003 A 
HETATM   45  C   UNL     1      41.831 -12.874  -3.281  1.00  0.00     0.029 A 
ENDBRANCH  36  39
ENDBRANCH  34  35
ENDBRANCH   1  34
TORSDOF 8
ENDMDL
MODEL 5
REMARK VINA RESULT:      -8.1      3.471      6.390
REMARK  8 active torsions:
REMARK  status: ('A' for Active; 'I' for Inactive)
REMARK    1  A    between atoms: C_4  and  N_5 
REMARK       I    between atoms: N_5  and  C_6 
REMARK    2  A    between atoms: C_6  and  C_7 
REMARK    3  A    between atoms: C_7  and  N_8 
REMARK    4  A    between atoms: N_11  and  C_12 
REMARK    5  A    between atoms: C_12  and  C_13 
REMARK    6  A    between atoms: C_16  and  C_17 
REMARK       I    between atoms: C_17  and  N_18 
REMARK    7  A    between atoms: N_18  and  C_19 
REMARK    8  A    between atoms: C_19  and  C_20 
ROOT
HETATM    1  N   UNL     1      44.144 -18.072   2.405  1.00  0.00    -0.290 N 
HETATM    2  C   UNL     1      43.873 -17.285   3.530  1.00  0.00     0.332 C 
HETATM    3  O   UNL     1      43.339 -16.183   3.409  1.00  0.00    -0.246 OA
HETATM    4  N   UNL     1      44.245 -17.810   4.764  1.00  0.00    -0.261 N 
HETATM    5  C   UNL     1      44.531 -19.146   4.979  1.00  0.00     0.264 C 
HETATM    6  O   UNL     1      44.847 -19.620   6.068  1.00  0.00    -0.267 OA
HETATM    7  C   UNL     1      44.380 -20.042   3.826  1.00  0.00     0.059 A 
HETATM    8  C   UNL     1      44.200 -19.496   2.553  1.00  0.00     0.055 A 
HETATM    9  C   UNL     1      44.359 -21.430   4.043  1.00  0.00     0.019 A 
HETATM   10  C   UNL     1      44.145 -22.298   2.980  1.00  0.00     0.001 A 
HETATM   11  C   UNL     1      43.972 -21.778   1.703  1.00  0.00     0.002 A 
HETATM   12  C   UNL     1      44.009 -20.393   1.489  1.00  0.00     0.031 A 
ENDROOT
BRANCH   4  13
HETATM   13  C   UNL     1      44.099 -16.964   5.948  1.00  0.00     0.175 C 
BRANCH  13  14
HETATM   14  C   UNL     1      43.009 -15.928   5.798  1.00  0.00    -0.040 A 
HETATM   15  C   UNL     1      43.362 -14.581   5.618  1.00  0.00     0.010 A 
HETATM   16  C   UNL     1      42.393 -13.588   5.673  1.00  0.00     0.017 A 
HETATM   17  C   UNL     1      41.060 -13.935   5.909  1.00  0.00     0.032 A 
HETATM   18  C   UNL     1      40.682 -15.279   5.988  1.00  0.00     0.017 A 
HETATM   19  C   UNL     1      41.657 -16.275   5.933  1.00  0.00     0.010 A 
BRANCH  17  20
HETATM   20  C   UNL     1      40.054 -12.884   6.199  1.00  0.00     0.251 C 
HETATM   21  N   UNL     1      40.553 -11.819   6.921  1.00  0.00    -0.353 N 
HETATM   22  H   UNL     1      41.483 -11.904   7.306  1.00  0.00     0.163 HD
HETATM   23  O   UNL     1      38.882 -13.032   5.881  1.00  0.00    -0.268 OA
BRANCH  21  24
HETATM   24  C   UNL     1      39.676 -10.883   7.582  1.00  0.00     0.161 C 
BRANCH  24  25
HETATM   25  C   UNL     1      40.229 -10.436   8.938  1.00  0.00    -0.038 A 
HETATM   26  C   UNL     1      41.661 -10.394   9.119  1.00  0.00     0.048 A 
HETATM   27  C   UNL     1      41.956 -10.031  10.407  1.00  0.00     0.105 A 
HETATM   28  C   UNL     1      40.647  -9.655  11.576  1.00  0.00     0.105 A 
HETATM   29  O   UNL     1      43.672  -9.910  11.458  1.00  0.00    -0.323 OA
HETATM   30  O   UNL     1      41.291  -9.320  13.214  1.00  0.00    -0.323 OA
HETATM   31  C   UNL     1      39.327  -9.689  11.313  1.00  0.00     0.040 A 
HETATM   32  C   UNL     1      43.181  -9.443  13.279  1.00  0.00     0.352 A 
HETATM   33  C   UNL     1      39.160 -10.086   9.968  1.00  0.00     0.012 A 
ENDBRANCH  24  25
ENDBRANCH  21  24
ENDBRANCH  17  20
ENDBRANCH  13  14
ENDBRANCH   4  13
BRANCH   1  34
HETATM   34  C   UNL     1      43.761 -17.477   1.119  1.00  0.00     0.237 C 
BRANCH  34  35
HETATM   35  C   UNL     1      42.326 -16.938   0.914  1.00  0.00     0.240 C 
HETATM   36  N   UNL     1      42.241 -15.663   0.381  1.00  0.00    -0.326 N 
HETATM   37  H   UNL     1      43.072 -15.086   0.412  1.00  0.00     0.169 HD
HETATM   38  O   UNL     1      41.385 -17.724   1.032  1.00  0.00    -0.271 OA
BRANCH  36  39
HETATM   39  C   UNL     1      41.124 -15.110  -0.310  1.00  0.00     0.035 A 
HETATM   40  C   UNL     1      39.826 -14.368   0.561  1.00  0.00     0.036 A 
HETATM   41  C   UNL     1      38.353 -13.850  -0.111  1.00  0.00    -0.060 A 
HETATM   42  C   UNL     1      37.256 -13.309   0.736  1.00  0.00     0.048 C 
HETATM   43  C   UNL     1      38.126 -14.094  -1.811  1.00  0.00     0.007 A 
HETATM   44  C   UNL     1      39.674 -14.950  -2.873  1.00  0.00     0.003 A 
HETATM   45  C   UNL     1      41.110 -15.390  -1.990  1.00  0.00     0.029 A 
ENDBRANCH  36  39
ENDBRANCH  34  35
ENDBRANCH   1  34
TORSDOF 8
ENDMDL
MODEL 6
REMARK VINA RESULT:      -8.0      4.231      9.250
REMARK  8 active torsions:
REMARK  status: ('A' for Active; 'I' for Inactive)
REMARK    1  A    between atoms: C_4  and  N_5 
REMARK       I    between atoms: N_5  and  C_6 
REMARK    2  A    between atoms: C_6  and  C_7 
REMARK    3  A    between atoms: C_7  and  N_8 
REMARK    4  A    between atoms: N_11  and  C_12 
REMARK    5  A    between atoms: C_12  and  C_13 
REMARK    6  A    between atoms: C_16  and  C_17 
REMARK       I    between atoms: C_17  and  N_18 
REMARK    7  A    between atoms: N_18  and  C_19 
REMARK    8  A    between atoms: C_19  and  C_20 
ROOT
HETATM    1  N   UNL     1      41.968 -12.960   0.211  1.00  0.00    -0.290 N 
HETATM    2  C   UNL     1      41.300 -13.954  -0.513  1.00  0.00     0.332 C 
HETATM    3  O   UNL     1      40.568 -14.760   0.062  1.00  0.00    -0.246 OA
HETATM    4  N   UNL     1      41.518 -13.981  -1.886  1.00  0.00    -0.261 N 
HETATM    5  C   UNL     1      42.047 -12.924  -2.605  1.00  0.00     0.264 C 
HETATM    6  O   UNL     1      42.230 -12.935  -3.819  1.00  0.00    -0.267 OA
HETATM    7  C   UNL     1      42.345 -11.702  -1.846  1.00  0.00     0.059 A 
HETATM    8  C   UNL     1      42.314 -11.737  -0.451  1.00  0.00     0.055 A 
HETATM    9  C   UNL     1      42.595 -10.512  -2.550  1.00  0.00     0.019 A 
HETATM   10  C   UNL     1      42.807  -9.326  -1.859  1.00  0.00     0.001 A 
HETATM   11  C   UNL     1      42.789  -9.337  -0.469  1.00  0.00     0.002 A 
HETATM   12  C   UNL     1      42.555 -10.531   0.228  1.00  0.00     0.031 A 
ENDROOT
BRANCH   4  13
HETATM   13  C   UNL     1      40.942 -15.083  -2.656  1.00  0.00     0.175 C 
BRANCH  13  14
HETATM   14  C   UNL     1      39.502 -14.839  -3.045  1.00  0.00    -0.040 A 
HETATM   15  C   UNL     1      38.856 -15.751  -3.894  1.00  0.00     0.010 A 
HETATM   16  C   UNL     1      37.606 -15.454  -4.422  1.00  0.00     0.017 A 
HETATM   17  C   UNL     1      36.991 -14.240  -4.103  1.00  0.00     0.032 A 
HETATM   18  C   UNL     1      37.579 -13.370  -3.179  1.00  0.00     0.017 A 
HETATM   19  C   UNL     1      38.835 -13.670  -2.650  1.00  0.00     0.010 A 
BRANCH  17  20
HETATM   20  C   UNL     1      35.774 -13.805  -4.831  1.00  0.00     0.251 C 
HETATM   21  N   UNL     1      35.610 -12.435  -4.876  1.00  0.00    -0.353 N 
HETATM   22  H   UNL     1      36.223 -11.868  -4.308  1.00  0.00     0.163 HD
HETATM   23  O   UNL     1      34.974 -14.625  -5.261  1.00  0.00    -0.268 OA
BRANCH  21  24
HETATM   24  C   UNL     1      34.344 -11.842  -5.230  1.00  0.00     0.161 C 
BRANCH  24  25
HETATM   25  C   UNL     1      33.468 -11.580  -4.002  1.00  0.00    -0.038 A 
HETATM   26  C   UNL     1      34.063 -10.937  -2.854  1.00  0.00     0.048 A 
HETATM   27  C   UNL     1      33.143 -10.845  -1.843  1.00  0.00     0.105 A 
HETATM   28  C   UNL     1      31.467 -11.448  -2.072  1.00  0.00     0.105 A 
HETATM   29  O   UNL     1      33.244 -10.243   0.078  1.00  0.00    -0.323 OA
HETATM   30  O   UNL     1      30.500 -11.316  -0.570  1.00  0.00    -0.323 OA
HETATM   31  C   UNL     1      30.982 -12.010  -3.195  1.00  0.00     0.040 A 
HETATM   32  C   UNL     1      31.495 -10.570   0.859  1.00  0.00     0.352 A 
HETATM   33  C   UNL     1      32.026 -12.056  -4.146  1.00  0.00     0.012 A 
ENDBRANCH  24  25
ENDBRANCH  21  24
ENDBRANCH  17  20
ENDBRANCH  13  14
ENDBRANCH   4  13
BRANCH   1  34
HETATM   34  C   UNL     1      41.736 -12.977   1.660  1.00  0.00     0.237 C 
BRANCH  34  35
HETATM   35  C   UNL     1      42.484 -13.997   2.550  1.00  0.00     0.240 C 
HETATM   36  N   UNL     1      41.839 -15.208   2.734  1.00  0.00    -0.326 N 
HETATM   37  H   UNL     1      40.852 -15.252   2.516  1.00  0.00     0.169 HD
HETATM   38  O   UNL     1      43.654 -13.761   2.852  1.00  0.00    -0.271 OA
BRANCH  36  39
HETATM   39  C   UNL     1      42.451 -16.443   3.100  1.00  0.00     0.035 A 
HETATM   40  C   UNL     1      43.153 -16.649   4.668  1.00  0.00     0.036 A 
HETATM   41  C   UNL     1      44.082 -17.982   5.168  1.00  0.00    -0.060 A 
HETATM   42  C   UNL     1      44.724 -18.026   6.510  1.00  0.00     0.048 C 
HETATM   43  C   UNL     1      44.361 -19.237   4.007  1.00  0.00     0.007 A 
HETATM   44  C   UNL     1      43.508 -19.023   2.140  1.00  0.00     0.003 A 
HETATM   45  C   UNL     1      42.572 -17.584   1.841  1.00  0.00     0.029 A 
ENDBRANCH  36  39
ENDBRANCH  34  35
ENDBRANCH   1  34
TORSDOF 8
ENDMDL
MODEL 7
REMARK VINA RESULT:      -7.9      4.450      8.020
REMARK  8 active torsions:
REMARK  status: ('A' for Active; 'I' for Inactive)
REMARK    1  A    between atoms: C_4  and  N_5 
REMARK       I    between atoms: N_5  and  C_6 
REMARK    2  A    between atoms: C_6  and  C_7 
REMARK    3  A    between atoms: C_7  and  N_8 
REMARK    4  A    between atoms: N_11  and  C_12 
REMARK    5  A    between atoms: C_12  and  C_13 
REMARK    6  A    between atoms: C_16  and  C_17 
REMARK       I    between atoms: C_17  and  N_18 
REMARK    7  A    between atoms: N_18  and  C_19 
REMARK    8  A    between atoms: C_19  and  C_20 
ROOT
HETATM    1  N   UNL     1      41.439 -10.244   9.747  1.00  0.00    -0.290 N 
HETATM    2  C   UNL     1      42.471 -10.557   8.855  1.00  0.00     0.332 C 
HETATM    3  O   UNL     1      42.524 -10.021   7.749  1.00  0.00    -0.246 OA
HETATM    4  N   UNL     1      43.404 -11.496   9.283  1.00  0.00    -0.261 N 
HETATM    5  C   UNL     1      43.577 -11.866  10.605  1.00  0.00     0.264 C 
HETATM    6  O   UNL     1      44.407 -12.684  10.992  1.00  0.00    -0.267 OA
HETATM    7  C   UNL     1      42.739 -11.174  11.592  1.00  0.00     0.059 A 
HETATM    8  C   UNL     1      41.675 -10.383  11.154  1.00  0.00     0.055 A 
HETATM    9  C   UNL     1      43.069 -11.279  12.954  1.00  0.00     0.019 A 
HETATM   10  C   UNL     1      42.337 -10.577  13.904  1.00  0.00     0.001 A 
HETATM   11  C   UNL     1      41.269  -9.789  13.493  1.00  0.00     0.002 A 
HETATM   12  C   UNL     1      40.935  -9.700  12.133  1.00  0.00     0.031 A 
ENDROOT
BRANCH   4  13
HETATM   13  C   UNL     1      44.419 -11.945   8.331  1.00  0.00     0.175 C 
BRANCH  13  14
HETATM   14  C   UNL     1      43.958 -13.110   7.486  1.00  0.00    -0.040 A 
HETATM   15  C   UNL     1      44.588 -14.356   7.632  1.00  0.00     0.010 A 
HETATM   16  C   UNL     1      44.321 -15.386   6.739  1.00  0.00     0.017 A 
HETATM   17  C   UNL     1      43.419 -15.177   5.692  1.00  0.00     0.032 A 
HETATM   18  C   UNL     1      42.710 -13.976   5.597  1.00  0.00     0.017 A 
HETATM   19  C   UNL     1      42.980 -12.942   6.494  1.00  0.00     0.010 A 
BRANCH  17  20
HETATM   20  C   UNL     1      43.295 -16.176   4.602  1.00  0.00     0.251 C 
HETATM   21  N   UNL     1      43.137 -15.620   3.349  1.00  0.00    -0.353 N 
HETATM   22  H   UNL     1      42.976 -14.624   3.293  1.00  0.00     0.163 HD
HETATM   23  O   UNL     1      43.257 -17.374   4.851  1.00  0.00    -0.268 OA
BRANCH  21  24
HETATM   24  C   UNL     1      42.667 -16.402   2.233  1.00  0.00     0.161 C 
BRANCH  24  25
HETATM   25  C   UNL     1      41.483 -15.741   1.525  1.00  0.00    -0.038 A 
HETATM   26  C   UNL     1      41.631 -15.361   0.139  1.00  0.00     0.048 A 
HETATM   27  C   UNL     1      40.493 -14.735  -0.296  1.00  0.00     0.105 A 
HETATM   28  C   UNL     1      39.087 -14.524   0.800  1.00  0.00     0.105 A 
HETATM   29  O   UNL     1      39.993 -13.792  -2.006  1.00  0.00    -0.323 OA
HETATM   30  O   UNL     1      37.775 -13.579   0.028  1.00  0.00    -0.323 OA
HETATM   31  C   UNL     1      39.020 -14.940   2.079  1.00  0.00     0.040 A 
HETATM   32  C   UNL     1      38.213 -13.059  -1.741  1.00  0.00     0.352 A 
HETATM   33  C   UNL     1      40.251 -15.552   2.404  1.00  0.00     0.012 A 
ENDBRANCH  24  25
ENDBRANCH  21  24
ENDBRANCH  17  20
ENDBRANCH  13  14
ENDBRANCH   4  13
BRANCH   1  34
HETATM   34  C   UNL     1      40.459  -9.269   9.254  1.00  0.00     0.237 C 
BRANCH  34  35
HETATM   35  C   UNL     1      39.506  -9.651   8.098  1.00  0.00     0.240 C 
HETATM   36  N   UNL     1      39.819  -9.102   6.866  1.00  0.00    -0.326 N 
HETATM   37  H   UNL     1      40.452  -8.312   6.851  1.00  0.00     0.169 HD
HETATM   38  O   UNL     1      38.687 -10.551   8.288  1.00  0.00    -0.271 OA
BRANCH  36  39
HETATM   39  C   UNL     1      39.423  -9.605   5.592  1.00  0.00     0.035 A 
HETATM   40  C   UNL     1      38.030  -8.969   4.786  1.00  0.00     0.036 A 
HETATM   41  C   UNL     1      37.332  -9.603   3.372  1.00  0.00    -0.060 A 
HETATM   42  C   UNL     1      36.076  -9.042   2.803  1.00  0.00     0.048 C 
HETATM   43  C   UNL     1      38.068 -11.011   2.683  1.00  0.00     0.007 A 
HETATM   44  C   UNL     1      39.747 -11.768   3.613  1.00  0.00     0.003 A 
HETATM   45  C   UNL     1      40.312 -10.951   5.046  1.00  0.00     0.029 A 
ENDBRANCH  36  39
ENDBRANCH  34  35
ENDBRANCH   1  34
TORSDOF 8
ENDMDL
MODEL 8
REMARK VINA RESULT:      -7.9      4.631      9.388
REMARK  8 active torsions:
REMARK  status: ('A' for Active; 'I' for Inactive)
REMARK    1  A    between atoms: C_4  and  N_5 
REMARK       I    between atoms: N_5  and  C_6 
REMARK    2  A    between atoms: C_6  and  C_7 
REMARK    3  A    between atoms: C_7  and  N_8 
REMARK    4  A    between atoms: N_11  and  C_12 
REMARK    5  A    between atoms: C_12  and  C_13 
REMARK    6  A    between atoms: C_16  and  C_17 
REMARK       I    between atoms: C_17  and  N_18 
REMARK    7  A    between atoms: N_18  and  C_19 
REMARK    8  A    between atoms: C_19  and  C_20 
ROOT
HETATM    1  N   UNL     1      41.300 -10.053  10.031  1.00  0.00    -0.290 N 
HETATM    2  C   UNL     1      42.436 -10.346   9.268  1.00  0.00     0.332 C 
HETATM    3  O   UNL     1      42.619  -9.794   8.183  1.00  0.00    -0.246 OA
HETATM    4  N   UNL     1      43.318 -11.284   9.794  1.00  0.00    -0.261 N 
HETATM    5  C   UNL     1      43.331 -11.670  11.122  1.00  0.00     0.264 C 
HETATM    6  O   UNL     1      44.115 -12.488  11.598  1.00  0.00    -0.267 OA
HETATM    7  C   UNL     1      42.373 -10.998  12.009  1.00  0.00     0.059 A 
HETATM    8  C   UNL     1      41.363 -10.209  11.454  1.00  0.00     0.055 A 
HETATM    9  C   UNL     1      42.535 -11.119  13.400  1.00  0.00     0.019 A 
HETATM   10  C   UNL     1      41.687 -10.435  14.262  1.00  0.00     0.001 A 
HETATM   11  C   UNL     1      40.670  -9.650  13.733  1.00  0.00     0.002 A 
HETATM   12  C   UNL     1      40.503  -9.545  12.344  1.00  0.00     0.031 A 
ENDROOT
BRANCH   4  13
HETATM   13  C   UNL     1      44.446 -11.712   8.968  1.00  0.00     0.175 C 
BRANCH  13  14
HETATM   14  C   UNL     1      44.022 -12.558   7.789  1.00  0.00    -0.040 A 
HETATM   15  C   UNL     1      44.865 -13.589   7.345  1.00  0.00     0.010 A 
HETATM   16  C   UNL     1      44.598 -14.250   6.153  1.00  0.00     0.017 A 
HETATM   17  C   UNL     1      43.482 -13.884   5.395  1.00  0.00     0.032 A 
HETATM   18  C   UNL     1      42.580 -12.931   5.877  1.00  0.00     0.017 A 
HETATM   19  C   UNL     1      42.851 -12.267   7.073  1.00  0.00     0.010 A 
BRANCH  17  20
HETATM   20  C   UNL     1      43.308 -14.413   4.020  1.00  0.00     0.251 C 
HETATM   21  N   UNL     1      42.969 -15.750   3.974  1.00  0.00    -0.353 N 
HETATM   22  H   UNL     1      43.011 -16.276   4.835  1.00  0.00     0.163 HD
HETATM   23  O   UNL     1      43.537 -13.711   3.044  1.00  0.00    -0.268 OA
BRANCH  21  24
HETATM   24  C   UNL     1      43.090 -16.514   2.757  1.00  0.00     0.161 C 
BRANCH  24  25
HETATM   25  C   UNL     1      43.416 -17.984   3.031  1.00  0.00    -0.038 A 
HETATM   26  C   UNL     1      43.653 -18.396   4.395  1.00  0.00     0.048 A 
HETATM   27  C   UNL     1      43.987 -19.725   4.429  1.00  0.00     0.105 A 
HETATM   28  C   UNL     1      44.044 -20.693   2.918  1.00  0.00     0.105 A 
HETATM   29  O   UNL     1      44.605 -20.965   5.892  1.00  0.00    -0.323 OA
HETATM   30  O   UNL     1      44.614 -22.365   3.219  1.00  0.00    -0.323 OA
HETATM   31  C   UNL     1      43.776 -20.235   1.681  1.00  0.00     0.040 A 
HETATM   32  C   UNL     1      44.998 -22.671   5.050  1.00  0.00     0.352 A 
HETATM   33  C   UNL     1      43.461 -18.861   1.784  1.00  0.00     0.012 A 
ENDBRANCH  24  25
ENDBRANCH  21  24
ENDBRANCH  17  20
ENDBRANCH  13  14
ENDBRANCH   4  13
BRANCH   1  34
HETATM   34  C   UNL     1      40.379  -9.078   9.434  1.00  0.00     0.237 C 
BRANCH  34  35
HETATM   35  C   UNL     1      39.576  -9.451   8.166  1.00  0.00     0.240 C 
HETATM   36  N   UNL     1      39.803  -8.646   7.062  1.00  0.00    -0.326 N 
HETATM   37  H   UNL     1      40.244  -7.750   7.219  1.00  0.00     0.169 HD
HETATM   38  O   UNL     1      38.971 -10.524   8.152  1.00  0.00    -0.271 OA
BRANCH  36  39
HETATM   39  C   UNL     1      39.573  -8.999   5.700  1.00  0.00     0.035 A 
HETATM   40  C   UNL     1      38.031  -8.725   4.966  1.00  0.00     0.036 A 
HETATM   41  C   UNL     1      37.558  -9.272   3.427  1.00  0.00    -0.060 A 
HETATM   42  C   UNL     1      36.174  -9.068   2.918  1.00  0.00     0.048 C 
HETATM   43  C   UNL     1      38.713 -10.190   2.520  1.00  0.00     0.007 A 
HETATM   44  C   UNL     1      40.569 -10.502   3.366  1.00  0.00     0.003 A 
HETATM   45  C   UNL     1      40.854  -9.835   4.951  1.00  0.00     0.029 A 
ENDBRANCH  36  39
ENDBRANCH  34  35
ENDBRANCH   1  34
TORSDOF 8
ENDMDL
MODEL 9
REMARK VINA RESULT:      -7.8      2.311      9.376
REMARK  8 active torsions:
REMARK  status: ('A' for Active; 'I' for Inactive)
REMARK    1  A    between atoms: C_4  and  N_5 
REMARK       I    between atoms: N_5  and  C_6 
REMARK    2  A    between atoms: C_6  and  C_7 
REMARK    3  A    between atoms: C_7  and  N_8 
REMARK    4  A    between atoms: N_11  and  C_12 
REMARK    5  A    between atoms: C_12  and  C_13 
REMARK    6  A    between atoms: C_16  and  C_17 
REMARK       I    between atoms: C_17  and  N_18 
REMARK    7  A    between atoms: N_18  and  C_19 
REMARK    8  A    between atoms: C_19  and  C_20 
ROOT
HETATM    1  N   UNL     1      40.277 -10.023  -1.623  1.00  0.00    -0.290 N 
HETATM    2  C   UNL     1      39.469 -11.154  -1.462  1.00  0.00     0.332 C 
HETATM    3  O   UNL     1      38.417 -11.085  -0.825  1.00  0.00    -0.246 OA
HETATM    4  N   UNL     1      39.921 -12.334  -2.043  1.00  0.00    -0.261 N 
HETATM    5  C   UNL     1      40.894 -12.387  -3.025  1.00  0.00     0.264 C 
HETATM    6  O   UNL     1      41.289 -13.423  -3.553  1.00  0.00    -0.267 OA
HETATM    7  C   UNL     1      41.428 -11.099  -3.487  1.00  0.00     0.059 A 
HETATM    8  C   UNL     1      41.124  -9.937  -2.776  1.00  0.00     0.055 A 
HETATM    9  C   UNL     1      42.183 -11.064  -4.672  1.00  0.00     0.019 A 
HETATM   10  C   UNL     1      42.639  -9.851  -5.171  1.00  0.00     0.001 A 
HETATM   11  C   UNL     1      42.356  -8.681  -4.477  1.00  0.00     0.002 A 
HETATM   12  C   UNL     1      41.614  -8.724  -3.287  1.00  0.00     0.031 A 
ENDROOT
BRANCH   4  13
HETATM   13  C   UNL     1      39.172 -13.563  -1.786  1.00  0.00     0.175 C 
BRANCH  13  14
HETATM   14  C   UNL     1      39.635 -14.283  -0.540  1.00  0.00    -0.040 A 
HETATM   15  C   UNL     1      38.878 -14.176   0.637  1.00  0.00     0.010 A 
HETATM   16  C   UNL     1      39.377 -14.661   1.839  1.00  0.00     0.017 A 
HETATM   17  C   UNL     1      40.639 -15.260   1.872  1.00  0.00     0.032 A 
HETATM   18  C   UNL     1      41.357 -15.465   0.690  1.00  0.00     0.017 A 
HETATM   19  C   UNL     1      40.855 -14.976  -0.516  1.00  0.00     0.010 A 
BRANCH  17  20
HETATM   20  C   UNL     1      41.283 -15.574   3.171  1.00  0.00     0.251 C 
HETATM   21  N   UNL     1      42.661 -15.627   3.113  1.00  0.00    -0.353 N 
HETATM   22  H   UNL     1      43.096 -15.597   2.202  1.00  0.00     0.163 HD
HETATM   23  O   UNL     1      40.609 -15.837   4.158  1.00  0.00    -0.268 OA
BRANCH  21  24
HETATM   24  C   UNL     1      43.435 -16.240   4.165  1.00  0.00     0.161 C 
BRANCH  24  25
HETATM   25  C   UNL     1      43.644 -17.737   3.927  1.00  0.00    -0.038 A 
HETATM   26  C   UNL     1      43.898 -18.588   5.067  1.00  0.00     0.048 A 
HETATM   27  C   UNL     1      44.116 -19.874   4.647  1.00  0.00     0.105 A 
HETATM   28  C   UNL     1      44.029 -20.297   2.905  1.00  0.00     0.105 A 
HETATM   29  O   UNL     1      44.682 -21.564   5.588  1.00  0.00    -0.323 OA
HETATM   30  O   UNL     1      44.463 -22.010   2.612  1.00  0.00    -0.323 OA
HETATM   31  C   UNL     1      43.753 -19.441   1.903  1.00  0.00     0.040 A 
HETATM   32  C   UNL     1      44.892 -22.924   4.215  1.00  0.00     0.352 A 
HETATM   33  C   UNL     1      43.563 -18.159   2.464  1.00  0.00     0.012 A 
ENDBRANCH  24  25
ENDBRANCH  21  24
ENDBRANCH  17  20
ENDBRANCH  13  14
ENDBRANCH   4  13
BRANCH   1  34
HETATM   34  C   UNL     1      39.782  -8.802  -0.976  1.00  0.00     0.237 C 
BRANCH  34  35
HETATM   35  C   UNL     1      40.275  -8.425   0.441  1.00  0.00     0.240 C 
HETATM   36  N   UNL     1      39.617  -9.054   1.484  1.00  0.00    -0.326 N 
HETATM   37  H   UNL     1      38.724  -9.486   1.283  1.00  0.00     0.169 HD
HETATM   38  O   UNL     1      41.320  -7.781   0.544  1.00  0.00    -0.271 OA
BRANCH  36  39
HETATM   39  C   UNL     1      40.121  -9.251   2.803  1.00  0.00     0.035 A 
HETATM   40  C   UNL     1      40.881 -10.742   3.243  1.00  0.00     0.036 A 
HETATM   41  C   UNL     1      41.346 -11.187   4.816  1.00  0.00    -0.060 A 
HETATM   42  C   UNL     1      41.909 -12.533   5.112  1.00  0.00     0.048 C 
HETATM   43  C   UNL     1      41.022 -10.059   6.091  1.00  0.00     0.007 A 
HETATM   44  C   UNL     1      40.142  -8.264   5.582  1.00  0.00     0.003 A 
HETATM   45  C   UNL     1      39.764  -7.999   3.901  1.00  0.00     0.029 A 
ENDBRANCH  36  39
ENDBRANCH  34  35
ENDBRANCH   1  34
TORSDOF 8
ENDMDL
MODEL 10
REMARK VINA RESULT:      -7.8      2.641      3.990
REMARK  8 active torsions:
REMARK  status: ('A' for Active; 'I' for Inactive)
REMARK    1  A    between atoms: C_4  and  N_5 
REMARK       I    between atoms: N_5  and  C_6 
REMARK    2  A    between atoms: C_6  and  C_7 
REMARK    3  A    between atoms: C_7  and  N_8 
REMARK    4  A    between atoms: N_11  and  C_12 
REMARK    5  A    between atoms: C_12  and  C_13 
REMARK    6  A    between atoms: C_16  and  C_17 
REMARK       I    between atoms: C_17  and  N_18 
REMARK    7  A    between atoms: N_18  and  C_19 
REMARK    8  A    between atoms: C_19  and  C_20 
ROOT
HETATM    1  N   UNL     1      41.995 -17.635   2.662  1.00  0.00    -0.290 N 
HETATM    2  C   UNL     1      41.457 -16.978   3.774  1.00  0.00     0.332 C 
HETATM    3  O   UNL     1      40.318 -16.514   3.736  1.00  0.00    -0.246 OA
HETATM    4  N   UNL     1      42.274 -16.875   4.895  1.00  0.00    -0.261 N 
HETATM    5  C   UNL     1      43.402 -17.650   5.102  1.00  0.00     0.264 C 
HETATM    6  O   UNL     1      44.121 -17.575   6.095  1.00  0.00    -0.267 OA
HETATM    7  C   UNL     1      43.698 -18.660   4.078  1.00  0.00     0.059 A 
HETATM    8  C   UNL     1      43.002 -18.634   2.868  1.00  0.00     0.055 A 
HETATM    9  C   UNL     1      44.636 -19.666   4.369  1.00  0.00     0.019 A 
HETATM   10  C   UNL     1      44.882 -20.675   3.448  1.00  0.00     0.001 A 
HETATM   11  C   UNL     1      44.207 -20.666   2.233  1.00  0.00     0.002 A 
HETATM   12  C   UNL     1      43.284 -19.651   1.942  1.00  0.00     0.031 A 
ENDROOT
BRANCH   4  13
HETATM   13  C   UNL     1      41.798 -16.083   6.028  1.00  0.00     0.175 C 
BRANCH  13  14
HETATM   14  C   UNL     1      41.501 -14.648   5.659  1.00  0.00    -0.040 A 
HETATM   15  C   UNL     1      40.220 -14.127   5.900  1.00  0.00     0.010 A 
HETATM   16  C   UNL     1      39.861 -12.884   5.396  1.00  0.00     0.017 A 
HETATM   17  C   UNL     1      40.784 -12.149   4.646  1.00  0.00     0.032 A 
HETATM   18  C   UNL     1      42.095 -12.611   4.487  1.00  0.00     0.017 A 
HETATM   19  C   UNL     1      42.453 -13.860   4.993  1.00  0.00     0.010 A 
BRANCH  17  20
HETATM   20  C   UNL     1      40.352 -10.935   3.911  1.00  0.00     0.251 C 
HETATM   21  N   UNL     1      39.184 -11.102   3.194  1.00  0.00    -0.353 N 
HETATM   22  H   UNL     1      38.813 -12.038   3.110  1.00  0.00     0.163 HD
HETATM   23  O   UNL     1      41.045  -9.927   3.903  1.00  0.00    -0.268 OA
BRANCH  21  24
HETATM   24  C   UNL     1      38.794 -10.170   2.165  1.00  0.00     0.161 C 
BRANCH  24  25
HETATM   25  C   UNL     1      37.273 -10.063   2.034  1.00  0.00    -0.038 A 
HETATM   26  C   UNL     1      36.617 -10.801   0.979  1.00  0.00     0.048 A 
HETATM   27  C   UNL     1      35.274 -10.531   0.988  1.00  0.00     0.105 A 
HETATM   28  C   UNL     1      34.570  -9.427   2.216  1.00  0.00     0.105 A 
HETATM   29  O   UNL     1      33.750 -11.026  -0.234  1.00  0.00    -0.323 OA
HETATM   30  O   UNL     1      32.821  -9.153   1.940  1.00  0.00    -0.323 OA
HETATM   31  C   UNL     1      35.253  -8.800   3.191  1.00  0.00     0.040 A 
HETATM   32  C   UNL     1      32.176 -10.103   0.433  1.00  0.00     0.352 A 
HETATM   33  C   UNL     1      36.616  -9.151   3.064  1.00  0.00     0.012 A 
ENDBRANCH  24  25
ENDBRANCH  21  24
ENDBRANCH  17  20
ENDBRANCH  13  14
ENDBRANCH   4  13
BRANCH   1  34
HETATM   34  C   UNL     1      41.115 -17.703   1.489  1.00  0.00     0.237 C 
BRANCH  34  35
HETATM   35  C   UNL     1      41.035 -16.505   0.514  1.00  0.00     0.240 C 
HETATM   36  N   UNL     1      40.114 -15.527   0.850  1.00  0.00    -0.326 N 
HETATM   37  H   UNL     1      39.398 -15.769   1.522  1.00  0.00     0.169 HD
HETATM   38  O   UNL     1      41.908 -16.394  -0.348  1.00  0.00    -0.271 OA
BRANCH  36  39
HETATM   39  C   UNL     1      40.135 -14.167   0.425  1.00  0.00     0.035 A 
HETATM   40  C   UNL     1      39.005 -13.593  -0.753  1.00  0.00     0.036 A 
HETATM   41  C   UNL     1      39.040 -12.063  -1.494  1.00  0.00    -0.060 A 
HETATM   42  C   UNL     1      38.079 -11.694  -2.568  1.00  0.00     0.048 C 
HETATM   43  C   UNL     1      40.322 -10.990  -1.040  1.00  0.00     0.007 A 
HETATM   44  C   UNL     1      41.663 -11.644   0.385  1.00  0.00     0.003 A 
HETATM   45  C   UNL     1      41.432 -13.246   1.033  1.00  0.00     0.029 A 
ENDBRANCH  36  39
ENDBRANCH  34  35
ENDBRANCH   1  34
TORSDOF 8
ENDMDL
