MODEL 1
REMARK VINA RESULT:      -8.1      0.000      0.000
REMARK  4 active torsions:
REMARK  status: ('A' for Active; 'I' for Inactive)
REMARK    1  A    between atoms: C_4  and  C_5 
REMARK    2  A    between atoms: C_7  and  C_8 
REMARK       I    between atoms: C_8  and  N_9 
REMARK    3  A    between atoms: N_9  and  C_10 
REMARK    4  A    between atoms: C_13  and  N_14 
ROOT
HETATM    1  C   UNL     1      44.632 -14.143   7.143  1.00  0.00     0.252 C 
HETATM    2  N   UNL     1      44.192 -13.549   8.306  1.00  0.00    -0.352 N 
HETATM    3  O   UNL     1      45.457 -13.628   6.398  1.00  0.00    -0.268 OA
HETATM    4  H   UNL     1      43.634 -14.120   8.930  1.00  0.00     0.163 HD
ENDROOT
BRANCH   1   5
HETATM    5  C   UNL     1      44.088 -15.496   6.815  1.00  0.00     0.032 A 
HETATM    6  C   UNL     1      44.137 -16.046   5.526  1.00  0.00     0.031 A 
HETATM    7  C   UNL     1      43.612 -17.324   5.268  1.00  0.00    -0.001 A 
HETATM    8  C   UNL     1      43.056 -18.052   6.330  1.00  0.00     0.014 A 
HETATM    9  C   UNL     1      43.017 -17.519   7.619  1.00  0.00     0.002 A 
HETATM   10  C   UNL     1      43.531 -16.245   7.860  1.00  0.00     0.017 A 
BRANCH   7  11
HETATM   11  C   UNL     1      43.641 -17.891   3.925  1.00  0.00     0.086 A 
HETATM   12  O   UNL     1      43.783 -19.249   3.844  1.00  0.00    -0.315 OA
HETATM   13  C   UNL     1      43.834 -19.576   2.522  1.00  0.00     0.050 A 
HETATM   14  C   UNL     1      44.016 -21.004   2.196  1.00  0.00     0.076 C 
HETATM   15  C   UNL     1      43.703 -18.444   1.749  1.00  0.00     0.035 A 
HETATM   16  C   UNL     1      43.583 -17.359   2.652  1.00  0.00     0.040 A 
ENDBRANCH   7  11
ENDBRANCH   1   5
BRANCH   2  17
HETATM   17  C   UNL     1      44.600 -12.254   8.840  1.00  0.00     0.084 C 
HETATM   18  C   UNL     1      43.497 -11.191   8.793  1.00  0.00     0.027 C 
HETATM   19  C   UNL     1      42.519 -11.236   9.965  1.00  0.00     0.035 C 
HETATM   20  C   UNL     1      43.191 -11.348  11.334  1.00  0.00     0.183 C 
HETATM   21  C   UNL     1      44.357 -12.331  11.420  1.00  0.00     0.035 C 
HETATM   22  C   UNL     1      45.292 -12.313  10.209  1.00  0.00     0.027 C 
BRANCH  20  23
HETATM   23  N   UNL     1      43.701  -9.992  11.713  1.00  0.00    -0.075 N 
HETATM   24  H   UNL     1      44.262  -9.557  10.971  1.00  0.00     0.274 HD
HETATM   25  H   UNL     1      42.923  -9.355  11.933  1.00  0.00     0.274 HD
HETATM   26  H   UNL     1      44.287 -10.045  12.557  1.00  0.00     0.274 HD
ENDBRANCH  20  23
ENDBRANCH   2  17
TORSDOF 4
ENDMDL
MODEL 2
REMARK VINA RESULT:      -7.9      1.683      2.436
REMARK  4 active torsions:
REMARK  status: ('A' for Active; 'I' for Inactive)
REMARK    1  A    between atoms: C_4  and  C_5 
REMARK    2  A    between atoms: C_7  and  C_8 
REMARK       I    between atoms: C_8  and  N_9 
REMARK    3  A    between atoms: N_9  and  C_10 
REMARK    4  A    between atoms: C_13  and  N_14 
ROOT
HETATM    1  C   UNL     1      44.891 -13.234   7.592  1.00  0.00     0.252 C 
HETATM    2  N   UNL     1      44.040 -12.559   8.441  1.00  0.00    -0.352 N 
HETATM    3  O   UNL     1      46.100 -13.043   7.565  1.00  0.00    -0.268 OA
HETATM    4  H   UNL     1      43.087 -12.898   8.499  1.00  0.00     0.163 HD
ENDROOT
BRANCH   1   5
HETATM    5  C   UNL     1      44.289 -14.267   6.696  1.00  0.00     0.032 A 
HETATM    6  C   UNL     1      44.368 -15.643   6.957  1.00  0.00     0.031 A 
HETATM    7  C   UNL     1      43.784 -16.576   6.084  1.00  0.00    -0.001 A 
HETATM    8  C   UNL     1      43.100 -16.106   4.953  1.00  0.00     0.014 A 
HETATM    9  C   UNL     1      43.004 -14.739   4.693  1.00  0.00     0.002 A 
HETATM   10  C   UNL     1      43.596 -13.823   5.562  1.00  0.00     0.017 A 
BRANCH   7  11
HETATM   11  C   UNL     1      43.883 -18.009   6.340  1.00  0.00     0.086 A 
HETATM   12  O   UNL     1      44.406 -18.769   5.330  1.00  0.00    -0.315 OA
HETATM   13  C   UNL     1      44.371 -20.069   5.739  1.00  0.00     0.050 A 
HETATM   14  C   UNL     1      44.866 -21.080   4.785  1.00  0.00     0.076 C 
HETATM   15  C   UNL     1      43.854 -20.150   7.013  1.00  0.00     0.035 A 
HETATM   16  C   UNL     1      43.534 -18.826   7.398  1.00  0.00     0.040 A 
ENDBRANCH   7  11
ENDBRANCH   1   5
BRANCH   2  17
HETATM   17  C   UNL     1      44.400 -11.535   9.416  1.00  0.00     0.084 C 
HETATM   18  C   UNL     1      43.288 -10.512   9.677  1.00  0.00     0.027 C 
HETATM   19  C   UNL     1      42.245 -10.954  10.701  1.00  0.00     0.035 C 
HETATM   20  C   UNL     1      42.838 -11.542  11.982  1.00  0.00     0.183 C 
HETATM   21  C   UNL     1      44.009 -12.503  11.788  1.00  0.00     0.035 C 
HETATM   22  C   UNL     1      45.012 -12.073  10.716  1.00  0.00     0.027 C 
BRANCH  20  23
HETATM   23  N   UNL     1      43.309 -10.407  12.839  1.00  0.00    -0.075 N 
HETATM   24  H   UNL     1      43.830  -9.699  12.308  1.00  0.00     0.274 HD
HETATM   25  H   UNL     1      42.515  -9.937  13.294  1.00  0.00     0.274 HD
HETATM   26  H   UNL     1      43.922 -10.748  13.591  1.00  0.00     0.274 HD
ENDBRANCH  20  23
ENDBRANCH   2  17
TORSDOF 4
ENDMDL
MODEL 3
REMARK VINA RESULT:      -7.7      4.190      6.119
REMARK  4 active torsions:
REMARK  status: ('A' for Active; 'I' for Inactive)
REMARK    1  A    between atoms: C_4  and  C_5 
REMARK    2  A    between atoms: C_7  and  C_8 
REMARK       I    between atoms: C_8  and  N_9 
REMARK    3  A    between atoms: N_9  and  C_10 
REMARK    4  A    between atoms: C_13  and  N_14 
ROOT
HETATM    1  C   UNL     1      43.058 -15.652   5.259  1.00  0.00     0.252 C 
HETATM    2  N   UNL     1      42.166 -15.699   4.209  1.00  0.00    -0.352 N 
HETATM    3  O   UNL     1      43.555 -14.610   5.669  1.00  0.00    -0.268 OA
HETATM    4  H   UNL     1      41.692 -16.580   4.049  1.00  0.00     0.163 HD
ENDROOT
BRANCH   1   5
HETATM    5  C   UNL     1      43.389 -16.941   5.936  1.00  0.00     0.032 A 
HETATM    6  C   UNL     1      43.704 -18.114   5.233  1.00  0.00     0.031 A 
HETATM    7  C   UNL     1      44.010 -19.303   5.916  1.00  0.00    -0.001 A 
HETATM    8  C   UNL     1      44.017 -19.292   7.318  1.00  0.00     0.014 A 
HETATM    9  C   UNL     1      43.720 -18.127   8.026  1.00  0.00     0.002 A 
HETATM   10  C   UNL     1      43.408 -16.956   7.337  1.00  0.00     0.017 A 
BRANCH   7  11
HETATM   11  C   UNL     1      44.316 -20.529   5.189  1.00  0.00     0.086 A 
HETATM   12  O   UNL     1      44.272 -20.449   3.824  1.00  0.00    -0.315 OA
HETATM   13  C   UNL     1      44.537 -21.693   3.334  1.00  0.00     0.050 A 
HETATM   14  C   UNL     1      44.513 -21.850   1.867  1.00  0.00     0.076 C 
HETATM   15  C   UNL     1      44.776 -22.569   4.370  1.00  0.00     0.035 A 
HETATM   16  C   UNL     1      44.629 -21.821   5.564  1.00  0.00     0.040 A 
ENDBRANCH   7  11
ENDBRANCH   1   5
BRANCH   2  17
HETATM   17  C   UNL     1      41.676 -14.574   3.419  1.00  0.00     0.084 C 
HETATM   18  C   UNL     1      42.423 -14.376   2.095  1.00  0.00     0.027 C 
HETATM   19  C   UNL     1      41.923 -15.249   0.946  1.00  0.00     0.035 C 
HETATM   20  C   UNL     1      40.402 -15.259   0.786  1.00  0.00     0.183 C 
HETATM   21  C   UNL     1      39.602 -15.366   2.083  1.00  0.00     0.035 C 
HETATM   22  C   UNL     1      40.153 -14.531   3.240  1.00  0.00     0.027 C 
BRANCH  20  23
HETATM   23  N   UNL     1      40.000 -13.990   0.098  1.00  0.00    -0.075 N 
HETATM   24  H   UNL     1      40.651 -13.217   0.280  1.00  0.00     0.274 HD
HETATM   25  H   UNL     1      39.948 -14.125  -0.920  1.00  0.00     0.274 HD
HETATM   26  H   UNL     1      39.065 -13.690   0.405  1.00  0.00     0.274 HD
ENDBRANCH  20  23
ENDBRANCH   2  17
TORSDOF 4
ENDMDL
MODEL 4
REMARK VINA RESULT:      -7.7      3.610      4.872
REMARK  4 active torsions:
REMARK  status: ('A' for Active; 'I' for Inactive)
REMARK    1  A    between atoms: C_4  and  C_5 
REMARK    2  A    between atoms: C_7  and  C_8 
REMARK       I    between atoms: C_8  and  N_9 
REMARK    3  A    between atoms: N_9  and  C_10 
REMARK    4  A    between atoms: C_13  and  N_14 
ROOT
HETATM    1  C   UNL     1      42.815 -15.631   4.806  1.00  0.00     0.252 C 
HETATM    2  N   UNL     1      41.732 -14.787   4.686  1.00  0.00    -0.352 N 
HETATM    3  O   UNL     1      43.504 -15.696   5.817  1.00  0.00    -0.268 OA
HETATM    4  H   UNL     1      41.135 -14.920   3.878  1.00  0.00     0.163 HD
ENDROOT
BRANCH   1   5
HETATM    5  C   UNL     1      43.120 -16.525   3.648  1.00  0.00     0.032 A 
HETATM    6  C   UNL     1      43.407 -17.890   3.793  1.00  0.00     0.031 A 
HETATM    7  C   UNL     1      43.687 -18.689   2.671  1.00  0.00    -0.001 A 
HETATM    8  C   UNL     1      43.654 -18.101   1.399  1.00  0.00     0.014 A 
HETATM    9  C   UNL     1      43.356 -16.748   1.244  1.00  0.00     0.002 A 
HETATM   10  C   UNL     1      43.090 -15.963   2.365  1.00  0.00     0.017 A 
BRANCH   7  11
HETATM   11  C   UNL     1      44.007 -20.105   2.819  1.00  0.00     0.086 A 
HETATM   12  O   UNL     1      44.407 -20.507   4.064  1.00  0.00    -0.315 OA
HETATM   13  C   UNL     1      44.702 -21.835   3.988  1.00  0.00     0.050 A 
HETATM   14  C   UNL     1      45.188 -22.482   5.223  1.00  0.00     0.076 C 
HETATM   15  C   UNL     1      44.473 -22.298   2.711  1.00  0.00     0.035 A 
HETATM   16  C   UNL     1      44.030 -21.184   1.958  1.00  0.00     0.040 A 
ENDBRANCH   7  11
ENDBRANCH   1   5
BRANCH   2  17
HETATM   17  C   UNL     1      41.230 -13.852   5.687  1.00  0.00     0.084 C 
HETATM   18  C   UNL     1      42.015 -12.536   5.752  1.00  0.00     0.027 C 
HETATM   19  C   UNL     1      41.586 -11.488   4.727  1.00  0.00     0.035 C 
HETATM   20  C   UNL     1      40.073 -11.285   4.639  1.00  0.00     0.183 C 
HETATM   21  C   UNL     1      39.233 -12.561   4.658  1.00  0.00     0.035 C 
HETATM   22  C   UNL     1      39.713 -13.622   5.649  1.00  0.00     0.027 C 
BRANCH  20  23
HETATM   23  N   UNL     1      39.651 -10.435   5.798  1.00  0.00    -0.075 N 
HETATM   24  H   UNL     1      39.777  -9.431   5.621  1.00  0.00     0.274 HD
HETATM   25  H   UNL     1      38.660 -10.592   6.026  1.00  0.00     0.274 HD
HETATM   26  H   UNL     1      40.190 -10.674   6.641  1.00  0.00     0.274 HD
ENDBRANCH  20  23
ENDBRANCH   2  17
TORSDOF 4
ENDMDL
MODEL 5
REMARK VINA RESULT:      -7.6      5.306      8.609
REMARK  4 active torsions:
REMARK  status: ('A' for Active; 'I' for Inactive)
REMARK    1  A    between atoms: C_4  and  C_5 
REMARK    2  A    between atoms: C_7  and  C_8 
REMARK       I    between atoms: C_8  and  N_9 
REMARK    3  A    between atoms: N_9  and  C_10 
REMARK    4  A    between atoms: C_13  and  N_14 
ROOT
HETATM    1  C   UNL     1      42.206 -15.078   1.485  1.00  0.00     0.252 C 
HETATM    2  N   UNL     1      41.865 -14.941   0.157  1.00  0.00    -0.352 N 
HETATM    3  O   UNL     1      41.983 -14.216   2.326  1.00  0.00    -0.268 OA
HETATM    4  H   UNL     1      41.947 -15.767  -0.425  1.00  0.00     0.163 HD
ENDROOT
BRANCH   1   5
HETATM    5  C   UNL     1      42.846 -16.363   1.900  1.00  0.00     0.032 A 
HETATM    6  C   UNL     1      43.080 -16.700   3.242  1.00  0.00     0.031 A 
HETATM    7  C   UNL     1      43.685 -17.922   3.582  1.00  0.00    -0.001 A 
HETATM    8  C   UNL     1      44.031 -18.812   2.555  1.00  0.00     0.014 A 
HETATM    9  C   UNL     1      43.789 -18.492   1.219  1.00  0.00     0.002 A 
HETATM   10  C   UNL     1      43.198 -17.271   0.894  1.00  0.00     0.017 A 
BRANCH   7  11
HETATM   11  C   UNL     1      43.950 -18.267   4.974  1.00  0.00     0.086 A 
HETATM   12  O   UNL     1      43.656 -19.550   5.346  1.00  0.00    -0.315 OA
HETATM   13  C   UNL     1      43.926 -19.660   6.677  1.00  0.00     0.050 A 
HETATM   14  C   UNL     1      43.652 -20.968   7.306  1.00  0.00     0.076 C 
HETATM   15  C   UNL     1      44.414 -18.467   7.161  1.00  0.00     0.035 A 
HETATM   16  C   UNL     1      44.425 -17.569   6.067  1.00  0.00     0.040 A 
ENDBRANCH   7  11
ENDBRANCH   1   5
BRANCH   2  17
HETATM   17  C   UNL     1      41.213 -13.797  -0.471  1.00  0.00     0.084 C 
HETATM   18  C   UNL     1      42.114 -13.027  -1.442  1.00  0.00     0.027 C 
HETATM   19  C   UNL     1      42.179 -13.613  -2.851  1.00  0.00     0.035 C 
HETATM   20  C   UNL     1      40.815 -13.965  -3.444  1.00  0.00     0.183 C 
HETATM   21  C   UNL     1      39.839 -14.658  -2.493  1.00  0.00     0.035 C 
HETATM   22  C   UNL     1      39.832 -14.095  -1.071  1.00  0.00     0.027 C 
BRANCH  20  23
HETATM   23  N   UNL     1      40.175 -12.697  -3.919  1.00  0.00    -0.075 N 
HETATM   24  H   UNL     1      40.308 -11.916  -3.266  1.00  0.00     0.274 HD
HETATM   25  H   UNL     1      40.556 -12.413  -4.831  1.00  0.00     0.274 HD
HETATM   26  H   UNL     1      39.162 -12.826  -4.050  1.00  0.00     0.274 HD
ENDBRANCH  20  23
ENDBRANCH   2  17
TORSDOF 4
ENDMDL
MODEL 6
REMARK VINA RESULT:      -7.5      5.546      8.149
REMARK  4 active torsions:
REMARK  status: ('A' for Active; 'I' for Inactive)
REMARK    1  A    between atoms: C_4  and  C_5 
REMARK    2  A    between atoms: C_7  and  C_8 
REMARK       I    between atoms: C_8  and  N_9 
REMARK    3  A    between atoms: N_9  and  C_10 
REMARK    4  A    between atoms: C_13  and  N_14 
ROOT
HETATM    1  C   UNL     1      42.104 -14.487   1.791  1.00  0.00     0.252 C 
HETATM    2  N   UNL     1      41.398 -14.680   0.623  1.00  0.00    -0.352 N 
HETATM    3  O   UNL     1      42.726 -13.461   2.036  1.00  0.00    -0.268 OA
HETATM    4  H   UNL     1      40.791 -15.491   0.583  1.00  0.00     0.163 HD
ENDROOT
BRANCH   1   5
HETATM    5  C   UNL     1      42.063 -15.583   2.806  1.00  0.00     0.032 A 
HETATM    6  C   UNL     1      42.852 -16.740   2.713  1.00  0.00     0.031 A 
HETATM    7  C   UNL     1      42.778 -17.742   3.695  1.00  0.00    -0.001 A 
HETATM    8  C   UNL     1      41.916 -17.557   4.785  1.00  0.00     0.014 A 
HETATM    9  C   UNL     1      41.139 -16.403   4.894  1.00  0.00     0.002 A 
HETATM   10  C   UNL     1      41.213 -15.420   3.908  1.00  0.00     0.017 A 
BRANCH   7  11
HETATM   11  C   UNL     1      43.579 -18.956   3.589  1.00  0.00     0.086 A 
HETATM   12  O   UNL     1      43.344 -19.743   2.495  1.00  0.00    -0.315 OA
HETATM   13  C   UNL     1      44.147 -20.839   2.601  1.00  0.00     0.050 A 
HETATM   14  C   UNL     1      44.037 -21.851   1.532  1.00  0.00     0.076 C 
HETATM   15  C   UNL     1      44.916 -20.754   3.741  1.00  0.00     0.035 A 
HETATM   16  C   UNL     1      44.547 -19.545   4.379  1.00  0.00     0.040 A 
ENDBRANCH   7  11
ENDBRANCH   1   5
BRANCH   2  17
HETATM   17  C   UNL     1      41.271 -13.748  -0.492  1.00  0.00     0.084 C 
HETATM   18  C   UNL     1      41.741 -14.320  -1.834  1.00  0.00     0.027 C 
HETATM   19  C   UNL     1      40.699 -15.159  -2.569  1.00  0.00     0.035 C 
HETATM   20  C   UNL     1      39.315 -14.512  -2.641  1.00  0.00     0.183 C 
HETATM   21  C   UNL     1      38.829 -13.847  -1.354  1.00  0.00     0.035 C 
HETATM   22  C   UNL     1      39.903 -13.060  -0.601  1.00  0.00     0.027 C 
BRANCH  20  23
HETATM   23  N   UNL     1      39.346 -13.470  -3.717  1.00  0.00    -0.075 N 
HETATM   24  H   UNL     1      39.057 -12.544  -3.380  1.00  0.00     0.274 HD
HETATM   25  H   UNL     1      40.291 -13.379  -4.113  1.00  0.00     0.274 HD
HETATM   26  H   UNL     1      38.723 -13.729  -4.494  1.00  0.00     0.274 HD
ENDBRANCH  20  23
ENDBRANCH   2  17
TORSDOF 4
ENDMDL
MODEL 7
REMARK VINA RESULT:      -7.3      5.529      8.311
REMARK  4 active torsions:
REMARK  status: ('A' for Active; 'I' for Inactive)
REMARK    1  A    between atoms: C_4  and  C_5 
REMARK    2  A    between atoms: C_7  and  C_8 
REMARK       I    between atoms: C_8  and  N_9 
REMARK    3  A    between atoms: N_9  and  C_10 
REMARK    4  A    between atoms: C_13  and  N_14 
ROOT
HETATM    1  C   UNL     1      40.013 -15.151   1.559  1.00  0.00     0.252 C 
HETATM    2  N   UNL     1      40.774 -14.619   0.539  1.00  0.00    -0.352 N 
HETATM    3  O   UNL     1      38.794 -15.047   1.608  1.00  0.00    -0.268 OA
HETATM    4  H   UNL     1      41.749 -14.892   0.505  1.00  0.00     0.163 HD
ENDROOT
BRANCH   1   5
HETATM    5  C   UNL     1      40.730 -15.916   2.623  1.00  0.00     0.032 A 
HETATM    6  C   UNL     1      41.550 -17.021   2.348  1.00  0.00     0.031 A 
HETATM    7  C   UNL     1      42.204 -17.707   3.385  1.00  0.00    -0.001 A 
HETATM    8  C   UNL     1      42.041 -17.254   4.702  1.00  0.00     0.014 A 
HETATM    9  C   UNL     1      41.240 -16.147   4.984  1.00  0.00     0.002 A 
HETATM   10  C   UNL     1      40.587 -15.481   3.947  1.00  0.00     0.017 A 
BRANCH   7  11
HETATM   11  C   UNL     1      43.039 -18.870   3.106  1.00  0.00     0.086 A 
HETATM   12  O   UNL     1      43.646 -19.451   4.185  1.00  0.00    -0.315 OA
HETATM   13  C   UNL     1      44.410 -20.479   3.718  1.00  0.00     0.050 A 
HETATM   14  C   UNL     1      45.187 -21.239   4.717  1.00  0.00     0.076 C 
HETATM   15  C   UNL     1      44.282 -20.580   2.351  1.00  0.00     0.035 A 
HETATM   16  C   UNL     1      43.404 -19.542   1.956  1.00  0.00     0.040 A 
ENDBRANCH   7  11
ENDBRANCH   1   5
BRANCH   2  17
HETATM   17  C   UNL     1      40.296 -13.863  -0.613  1.00  0.00     0.084 C 
HETATM   18  C   UNL     1      41.048 -12.547  -0.844  1.00  0.00     0.027 C 
HETATM   19  C   UNL     1      42.352 -12.689  -1.626  1.00  0.00     0.035 C 
HETATM   20  C   UNL     1      42.234 -13.546  -2.886  1.00  0.00     0.183 C 
HETATM   21  C   UNL     1      41.419 -14.831  -2.738  1.00  0.00     0.035 C 
HETATM   22  C   UNL     1      40.147 -14.682  -1.902  1.00  0.00     0.027 C 
BRANCH  20  23
HETATM   23  N   UNL     1      41.595 -12.714  -3.955  1.00  0.00    -0.075 N 
HETATM   24  H   UNL     1      42.132 -11.866  -4.173  1.00  0.00     0.274 HD
HETATM   25  H   UNL     1      41.491 -13.252  -4.826  1.00  0.00     0.274 HD
HETATM   26  H   UNL     1      40.649 -12.422  -3.674  1.00  0.00     0.274 HD
ENDBRANCH  20  23
ENDBRANCH   2  17
TORSDOF 4
ENDMDL
MODEL 8
REMARK VINA RESULT:      -7.2      2.367      2.976
REMARK  4 active torsions:
REMARK  status: ('A' for Active; 'I' for Inactive)
REMARK    1  A    between atoms: C_4  and  C_5 
REMARK    2  A    between atoms: C_7  and  C_8 
REMARK       I    between atoms: C_8  and  N_9 
REMARK    3  A    between atoms: N_9  and  C_10 
REMARK    4  A    between atoms: C_13  and  N_14 
ROOT
HETATM    1  C   UNL     1      44.807 -13.246   7.612  1.00  0.00     0.252 C 
HETATM    2  N   UNL     1      43.969 -12.557   8.463  1.00  0.00    -0.352 N 
HETATM    3  O   UNL     1      46.015 -13.053   7.560  1.00  0.00    -0.268 OA
HETATM    4  H   UNL     1      43.018 -12.898   8.545  1.00  0.00     0.163 HD
ENDROOT
BRANCH   1   5
HETATM    5  C   UNL     1      44.192 -14.298   6.746  1.00  0.00     0.032 A 
HETATM    6  C   UNL     1      43.527 -14.006   5.546  1.00  0.00     0.031 A 
HETATM    7  C   UNL     1      42.966 -15.032   4.767  1.00  0.00    -0.001 A 
HETATM    8  C   UNL     1      43.102 -16.359   5.199  1.00  0.00     0.014 A 
HETATM    9  C   UNL     1      43.774 -16.660   6.384  1.00  0.00     0.002 A 
HETATM   10  C   UNL     1      44.318 -15.632   7.154  1.00  0.00     0.017 A 
BRANCH   7  11
HETATM   11  C   UNL     1      42.254 -14.731   3.530  1.00  0.00     0.086 A 
HETATM   12  O   UNL     1      40.948 -15.132   3.471  1.00  0.00    -0.315 OA
HETATM   13  C   UNL     1      40.477 -14.806   2.234  1.00  0.00     0.050 A 
HETATM   14  C   UNL     1      39.079 -15.176   1.935  1.00  0.00     0.076 C 
HETATM   15  C   UNL     1      41.460 -14.177   1.504  1.00  0.00     0.035 A 
HETATM   16  C   UNL     1      42.606 -14.133   2.335  1.00  0.00     0.040 A 
ENDBRANCH   7  11
ENDBRANCH   1   5
BRANCH   2  17
HETATM   17  C   UNL     1      44.344 -11.514   9.411  1.00  0.00     0.084 C 
HETATM   18  C   UNL     1      43.226 -10.502   9.690  1.00  0.00     0.027 C 
HETATM   19  C   UNL     1      42.220 -10.942  10.751  1.00  0.00     0.035 C 
HETATM   20  C   UNL     1      42.857 -11.502  12.022  1.00  0.00     0.183 C 
HETATM   21  C   UNL     1      44.036 -12.451  11.808  1.00  0.00     0.035 C 
HETATM   22  C   UNL     1      45.001 -12.024  10.701  1.00  0.00     0.027 C 
BRANCH  20  23
HETATM   23  N   UNL     1      43.337 -10.348  12.848  1.00  0.00    -0.075 N 
HETATM   24  H   UNL     1      44.319 -10.446  13.134  1.00  0.00     0.274 HD
HETATM   25  H   UNL     1      43.247  -9.464  12.330  1.00  0.00     0.274 HD
HETATM   26  H   UNL     1      42.771 -10.250  13.701  1.00  0.00     0.274 HD
ENDBRANCH  20  23
ENDBRANCH   2  17
TORSDOF 4
ENDMDL
MODEL 9
REMARK VINA RESULT:      -7.1      5.632      8.042
REMARK  4 active torsions:
REMARK  status: ('A' for Active; 'I' for Inactive)
REMARK    1  A    between atoms: C_4  and  C_5 
REMARK    2  A    between atoms: C_7  and  C_8 
REMARK       I    between atoms: C_8  and  N_9 
REMARK    3  A    between atoms: N_9  and  C_10 
REMARK    4  A    between atoms: C_13  and  N_14 
ROOT
HETATM    1  C   UNL     1      41.836 -15.616   0.242  1.00  0.00     0.252 C 
HETATM    2  N   UNL     1      42.105 -14.336  -0.192  1.00  0.00    -0.352 N 
HETATM    3  O   UNL     1      41.215 -16.433  -0.426  1.00  0.00    -0.268 OA
HETATM    4  H   UNL     1      42.756 -13.791   0.361  1.00  0.00     0.163 HD
ENDROOT
BRANCH   1   5
HETATM    5  C   UNL     1      42.369 -16.013   1.581  1.00  0.00     0.032 A 
HETATM    6  C   UNL     1      42.917 -17.278   1.839  1.00  0.00     0.031 A 
HETATM    7  C   UNL     1      43.406 -17.603   3.116  1.00  0.00    -0.001 A 
HETATM    8  C   UNL     1      43.358 -16.630   4.125  1.00  0.00     0.014 A 
HETATM    9  C   UNL     1      42.829 -15.364   3.873  1.00  0.00     0.002 A 
HETATM   10  C   UNL     1      42.337 -15.057   2.604  1.00  0.00     0.017 A 
BRANCH   7  11
HETATM   11  C   UNL     1      43.956 -18.925   3.395  1.00  0.00     0.086 A 
HETATM   12  O   UNL     1      43.945 -19.815   2.357  1.00  0.00    -0.315 OA
HETATM   13  C   UNL     1      44.450 -20.992   2.824  1.00  0.00     0.050 A 
HETATM   14  C   UNL     1      44.507 -22.117   1.871  1.00  0.00     0.076 C 
HETATM   15  C   UNL     1      44.809 -20.860   4.147  1.00  0.00     0.035 A 
HETATM   16  C   UNL     1      44.487 -19.532   4.516  1.00  0.00     0.040 A 
ENDBRANCH   7  11
ENDBRANCH   1   5
BRANCH   2  17
HETATM   17  C   UNL     1      41.713 -13.738  -1.464  1.00  0.00     0.084 C 
HETATM   18  C   UNL     1      40.349 -13.040  -1.425  1.00  0.00     0.027 C 
HETATM   19  C   UNL     1      40.382 -11.608  -0.896  1.00  0.00     0.035 C 
HETATM   20  C   UNL     1      41.485 -10.742  -1.506  1.00  0.00     0.183 C 
HETATM   21  C   UNL     1      42.849 -11.416  -1.651  1.00  0.00     0.035 C 
HETATM   22  C   UNL     1      42.792 -12.869  -2.125  1.00  0.00     0.027 C 
BRANCH  20  23
HETATM   23  N   UNL     1      41.036 -10.310  -2.868  1.00  0.00    -0.075 N 
HETATM   24  H   UNL     1      41.198 -11.026  -3.585  1.00  0.00     0.274 HD
HETATM   25  H   UNL     1      40.033 -10.085  -2.869  1.00  0.00     0.274 HD
HETATM   26  H   UNL     1      41.531  -9.457  -3.161  1.00  0.00     0.274 HD
ENDBRANCH  20  23
ENDBRANCH   2  17
TORSDOF 4
ENDMDL
MODEL 10
REMARK VINA RESULT:      -7.0      5.625      9.368
REMARK  4 active torsions:
REMARK  status: ('A' for Active; 'I' for Inactive)
REMARK    1  A    between atoms: C_4  and  C_5 
REMARK    2  A    between atoms: C_7  and  C_8 
REMARK       I    between atoms: C_8  and  N_9 
REMARK    3  A    between atoms: N_9  and  C_10 
REMARK    4  A    between atoms: C_13  and  N_14 
ROOT
HETATM    1  C   UNL     1      41.758 -14.715   0.508  1.00  0.00     0.252 C 
HETATM    2  N   UNL     1      41.181 -14.990  -0.713  1.00  0.00    -0.352 N 
HETATM    3  O   UNL     1      41.970 -13.576   0.908  1.00  0.00    -0.268 OA
HETATM    4  H   UNL     1      40.903 -15.950  -0.883  1.00  0.00     0.163 HD
ENDROOT
BRANCH   1   5
HETATM    5  C   UNL     1      42.099 -15.877   1.384  1.00  0.00     0.032 A 
HETATM    6  C   UNL     1      42.599 -15.731   2.686  1.00  0.00     0.031 A 
HETATM    7  C   UNL     1      42.904 -16.856   3.470  1.00  0.00    -0.001 A 
HETATM    8  C   UNL     1      42.678 -18.132   2.935  1.00  0.00     0.014 A 
HETATM    9  C   UNL     1      42.167 -18.288   1.647  1.00  0.00     0.002 A 
HETATM   10  C   UNL     1      41.878 -17.163   0.874  1.00  0.00     0.017 A 
BRANCH   7  11
HETATM   11  C   UNL     1      43.446 -16.708   4.816  1.00  0.00     0.086 A 
HETATM   12  O   UNL     1      43.594 -15.427   5.271  1.00  0.00    -0.315 OA
HETATM   13  C   UNL     1      44.151 -15.497   6.513  1.00  0.00     0.050 A 
HETATM   14  C   UNL     1      44.431 -14.215   7.190  1.00  0.00     0.076 C 
HETATM   15  C   UNL     1      44.340 -16.812   6.873  1.00  0.00     0.035 A 
HETATM   16  C   UNL     1      43.892 -17.592   5.780  1.00  0.00     0.040 A 
ENDBRANCH   7  11
ENDBRANCH   1   5
BRANCH   2  17
HETATM   17  C   UNL     1      40.742 -14.025  -1.716  1.00  0.00     0.084 C 
HETATM   18  C   UNL     1      40.772 -14.567  -3.149  1.00  0.00     0.027 C 
HETATM   19  C   UNL     1      39.537 -15.370  -3.551  1.00  0.00     0.035 C 
HETATM   20  C   UNL     1      38.211 -14.701  -3.186  1.00  0.00     0.183 C 
HETATM   21  C   UNL     1      38.152 -14.065  -1.798  1.00  0.00     0.035 C 
HETATM   22  C   UNL     1      39.421 -13.315  -1.389  1.00  0.00     0.027 C 
BRANCH  20  23
HETATM   23  N   UNL     1      37.938 -13.630  -4.197  1.00  0.00    -0.075 N 
HETATM   24  H   UNL     1      38.752 -13.425  -4.788  1.00  0.00     0.274 HD
HETATM   25  H   UNL     1      37.160 -13.899  -4.815  1.00  0.00     0.274 HD
HETATM   26  H   UNL     1      37.659 -12.755  -3.735  1.00  0.00     0.274 HD
ENDBRANCH  20  23
ENDBRANCH   2  17
TORSDOF 4
ENDMDL
