MODEL 1
REMARK VINA RESULT:      -9.5      0.000      0.000
REMARK  3 active torsions:
REMARK  status: ('A' for Active; 'I' for Inactive)
REMARK    1  A    between atoms: N_4  and  C_5 
REMARK    2  A    between atoms: C_15  and  C_16 
REMARK       I    between atoms: C_16  and  N_17 
REMARK    3  A    between atoms: N_17  and  C_18 
ROOT
HETATM    1  C   UNL     1      42.141 -15.404   1.041  1.00  0.00     0.073 C 
HETATM    2  C   UNL     1      42.704 -16.315   2.068  1.00  0.00     0.069 A 
HETATM    3  N   UNL     1      42.786 -17.632   1.837  1.00  0.00    -0.170 NA
HETATM    4  N   UNL     1      43.383 -18.162   2.948  1.00  0.00    -0.216 N 
HETATM    5  C   UNL     1      43.535 -17.183   3.919  1.00  0.00     0.145 A 
HETATM    6  C   UNL     1      43.153 -15.986   3.360  1.00  0.00     0.087 A 
HETATM    7  N   UNL     1      43.917 -17.291   5.215  1.00  0.00    -0.349 N 
HETATM    8  C   UNL     1      43.899 -16.148   5.997  1.00  0.00     0.111 A 
HETATM    9  C   UNL     1      43.585 -14.909   5.552  1.00  0.00     0.098 A 
HETATM   10  C   UNL     1      43.203 -14.747   4.106  1.00  0.00     0.205 A 
HETATM   11  O   UNL     1      42.942 -13.651   3.618  1.00  0.00    -0.286 OA
HETATM   12  H   UNL     1      43.962 -18.177   5.716  1.00  0.00     0.167 HD
ENDROOT
BRANCH   9  13
HETATM   13  C   UNL     1      43.597 -13.782   6.537  1.00  0.00     0.261 C 
HETATM   14  N   UNL     1      44.613 -13.844   7.469  1.00  0.00    -0.323 N 
HETATM   15  H   UNL     1      45.230 -14.658   7.424  1.00  0.00     0.169 HD
HETATM   16  O   UNL     1      42.741 -12.904   6.473  1.00  0.00    -0.267 OA
BRANCH  14  17
HETATM   17  C   UNL     1      44.918 -12.911   8.481  1.00  0.00     0.037 A 
HETATM   18  C   UNL     1      44.178 -12.755   9.653  1.00  0.00     0.071 A 
HETATM   19  C   UNL     1      44.552 -11.787  10.583  1.00  0.00     0.118 A 
HETATM   20  F   UNL     1      43.830 -11.636  11.702  1.00  0.00    -0.206 F 
HETATM   21  C   UNL     1      45.657 -10.971  10.374  1.00  0.00     0.042 A 
HETATM   22  C   UNL     1      46.403 -11.120   9.210  1.00  0.00     0.005 A 
HETATM   23  C   UNL     1      46.032 -12.083   8.267  1.00  0.00     0.029 A 
ENDBRANCH  14  17
ENDBRANCH   9  13
BRANCH   4  24
HETATM   24  C   UNL     1      43.756 -19.536   2.969  1.00  0.00     0.060 A 
HETATM   25  C   UNL     1      44.471 -20.092   4.036  1.00  0.00     0.031 A 
HETATM   26  C   UNL     1      44.818 -21.447   4.020  1.00  0.00     0.002 A 
HETATM   27  C   UNL     1      44.461 -22.250   2.938  1.00  0.00     0.000 A 
HETATM   28  C   UNL     1      43.772 -21.699   1.861  1.00  0.00     0.002 A 
HETATM   29  C   UNL     1      43.428 -20.347   1.869  1.00  0.00     0.031 A 
ENDBRANCH   4  24
TORSDOF 3
ENDMDL
MODEL 2
REMARK VINA RESULT:      -9.0      5.359      8.392
REMARK  3 active torsions:
REMARK  status: ('A' for Active; 'I' for Inactive)
REMARK    1  A    between atoms: N_4  and  C_5 
REMARK    2  A    between atoms: C_15  and  C_16 
REMARK       I    between atoms: C_16  and  N_17 
REMARK    3  A    between atoms: N_17  and  C_18 
ROOT
HETATM    1  C   UNL     1      40.712 -15.899   5.382  1.00  0.00     0.073 C 
HETATM    2  C   UNL     1      41.309 -16.620   4.231  1.00  0.00     0.069 A 
HETATM    3  N   UNL     1      42.135 -17.655   4.433  1.00  0.00    -0.170 NA
HETATM    4  N   UNL     1      42.462 -18.111   3.185  1.00  0.00    -0.216 N 
HETATM    5  C   UNL     1      41.947 -17.261   2.218  1.00  0.00     0.145 A 
HETATM    6  C   UNL     1      41.166 -16.330   2.863  1.00  0.00     0.087 A 
HETATM    7  N   UNL     1      42.160 -17.229   0.881  1.00  0.00    -0.349 N 
HETATM    8  C   UNL     1      41.579 -16.204   0.152  1.00  0.00     0.111 A 
HETATM    9  C   UNL     1      40.759 -15.257   0.663  1.00  0.00     0.098 A 
HETATM   10  C   UNL     1      40.462 -15.293   2.138  1.00  0.00     0.205 A 
HETATM   11  O   UNL     1      39.698 -14.493   2.670  1.00  0.00    -0.286 OA
HETATM   12  H   UNL     1      42.914 -17.736   0.419  1.00  0.00     0.167 HD
ENDROOT
BRANCH   9  13
HETATM   13  C   UNL     1      40.229 -14.208  -0.263  1.00  0.00     0.261 C 
HETATM   14  N   UNL     1      38.866 -14.258  -0.469  1.00  0.00    -0.323 N 
HETATM   15  H   UNL     1      38.358 -15.015  -0.007  1.00  0.00     0.169 HD
HETATM   16  O   UNL     1      40.998 -13.398  -0.773  1.00  0.00    -0.267 OA
BRANCH  14  17
HETATM   17  C   UNL     1      38.074 -13.380  -1.237  1.00  0.00     0.037 A 
HETATM   18  C   UNL     1      37.811 -13.547  -2.597  1.00  0.00     0.071 A 
HETATM   19  C   UNL     1      37.030 -12.609  -3.270  1.00  0.00     0.118 A 
HETATM   20  F   UNL     1      36.790 -12.770  -4.578  1.00  0.00    -0.206 F 
HETATM   21  C   UNL     1      36.497 -11.506  -2.614  1.00  0.00     0.042 A 
HETATM   22  C   UNL     1      36.751 -11.332  -1.258  1.00  0.00     0.005 A 
HETATM   23  C   UNL     1      37.539 -12.263  -0.575  1.00  0.00     0.029 A 
ENDBRANCH  14  17
ENDBRANCH   9  13
BRANCH   4  24
HETATM   24  C   UNL     1      43.219 -19.308   3.041  1.00  0.00     0.060 A 
HETATM   25  C   UNL     1      43.054 -20.158   1.940  1.00  0.00     0.031 A 
HETATM   26  C   UNL     1      43.817 -21.325   1.834  1.00  0.00     0.002 A 
HETATM   27  C   UNL     1      44.740 -21.655   2.826  1.00  0.00     0.000 A 
HETATM   28  C   UNL     1      44.891 -20.828   3.936  1.00  0.00     0.002 A 
HETATM   29  C   UNL     1      44.129 -19.664   4.050  1.00  0.00     0.031 A 
ENDBRANCH   4  24
TORSDOF 3
ENDMDL
MODEL 3
REMARK VINA RESULT:      -8.9      4.194      7.567
REMARK  3 active torsions:
REMARK  status: ('A' for Active; 'I' for Inactive)
REMARK    1  A    between atoms: N_4  and  C_5 
REMARK    2  A    between atoms: C_15  and  C_16 
REMARK       I    between atoms: C_16  and  N_17 
REMARK    3  A    between atoms: N_17  and  C_18 
ROOT
HETATM    1  C   UNL     1      43.561 -15.634   5.895  1.00  0.00     0.073 C 
HETATM    2  C   UNL     1      43.475 -16.652   4.820  1.00  0.00     0.069 A 
HETATM    3  N   UNL     1      44.042 -17.856   4.979  1.00  0.00    -0.170 NA
HETATM    4  N   UNL     1      43.742 -18.555   3.841  1.00  0.00    -0.216 N 
HETATM    5  C   UNL     1      43.111 -17.725   2.926  1.00  0.00     0.145 A 
HETATM    6  C   UNL     1      42.887 -16.519   3.550  1.00  0.00     0.087 A 
HETATM    7  N   UNL     1      42.791 -17.941   1.627  1.00  0.00    -0.349 N 
HETATM    8  C   UNL     1      42.235 -16.894   0.910  1.00  0.00     0.111 A 
HETATM    9  C   UNL     1      41.929 -15.679   1.421  1.00  0.00     0.098 A 
HETATM   10  C   UNL     1      42.227 -15.423   2.874  1.00  0.00     0.205 A 
HETATM   11  O   UNL     1      41.943 -14.361   3.421  1.00  0.00    -0.286 OA
HETATM   12  H   UNL     1      43.162 -18.715   1.077  1.00  0.00     0.167 HD
ENDROOT
BRANCH   9  13
HETATM   13  C   UNL     1      41.348 -14.652   0.500  1.00  0.00     0.261 C 
HETATM   14  N   UNL     1      42.056 -14.463  -0.668  1.00  0.00    -0.323 N 
HETATM   15  H   UNL     1      42.915 -15.005  -0.779  1.00  0.00     0.169 HD
HETATM   16  O   UNL     1      40.323 -14.055   0.819  1.00  0.00    -0.267 OA
BRANCH  14  17
HETATM   17  C   UNL     1      41.734 -13.613  -1.747  1.00  0.00     0.037 A 
HETATM   18  C   UNL     1      42.513 -12.528  -2.151  1.00  0.00     0.071 A 
HETATM   19  C   UNL     1      42.095 -11.737  -3.218  1.00  0.00     0.118 A 
HETATM   20  F   UNL     1      42.843 -10.691  -3.594  1.00  0.00    -0.206 F 
HETATM   21  C   UNL     1      40.915 -12.007  -3.902  1.00  0.00     0.042 A 
HETATM   22  C   UNL     1      40.133 -13.088  -3.509  1.00  0.00     0.005 A 
HETATM   23  C   UNL     1      40.540 -13.884  -2.434  1.00  0.00     0.029 A 
ENDBRANCH  14  17
ENDBRANCH   9  13
BRANCH   4  24
HETATM   24  C   UNL     1      44.074 -19.936   3.745  1.00  0.00     0.060 A 
HETATM   25  C   UNL     1      44.477 -20.677   4.862  1.00  0.00     0.031 A 
HETATM   26  C   UNL     1      44.795 -22.033   4.728  1.00  0.00     0.002 A 
HETATM   27  C   UNL     1      44.721 -22.652   3.482  1.00  0.00     0.000 A 
HETATM   28  C   UNL     1      44.346 -21.915   2.361  1.00  0.00     0.002 A 
HETATM   29  C   UNL     1      44.033 -20.560   2.487  1.00  0.00     0.031 A 
ENDBRANCH   4  24
TORSDOF 3
ENDMDL
MODEL 4
REMARK VINA RESULT:      -8.8      3.663      6.451
REMARK  3 active torsions:
REMARK  status: ('A' for Active; 'I' for Inactive)
REMARK    1  A    between atoms: N_4  and  C_5 
REMARK    2  A    between atoms: C_15  and  C_16 
REMARK       I    between atoms: C_16  and  N_17 
REMARK    3  A    between atoms: N_17  and  C_18 
ROOT
HETATM    1  C   UNL     1      44.034 -15.912   6.614  1.00  0.00     0.073 C 
HETATM    2  C   UNL     1      43.763 -16.837   5.486  1.00  0.00     0.069 A 
HETATM    3  N   UNL     1      44.361 -18.035   5.431  1.00  0.00    -0.170 NA
HETATM    4  N   UNL     1      43.864 -18.640   4.309  1.00  0.00    -0.216 N 
HETATM    5  C   UNL     1      43.069 -17.751   3.601  1.00  0.00     0.145 A 
HETATM    6  C   UNL     1      42.952 -16.610   4.361  1.00  0.00     0.087 A 
HETATM    7  N   UNL     1      42.519 -17.863   2.368  1.00  0.00    -0.349 N 
HETATM    8  C   UNL     1      41.832 -16.773   1.860  1.00  0.00     0.111 A 
HETATM    9  C   UNL     1      41.612 -15.615   2.525  1.00  0.00     0.098 A 
HETATM   10  C   UNL     1      42.169 -15.477   3.916  1.00  0.00     0.205 A 
HETATM   11  O   UNL     1      41.979 -14.474   4.598  1.00  0.00    -0.286 OA
HETATM   12  H   UNL     1      42.792 -18.577   1.693  1.00  0.00     0.167 HD
ENDROOT
BRANCH   9  13
HETATM   13  C   UNL     1      40.863 -14.528   1.819  1.00  0.00     0.261 C 
HETATM   14  N   UNL     1      39.640 -14.218   2.377  1.00  0.00    -0.323 N 
HETATM   15  H   UNL     1      39.348 -14.773   3.183  1.00  0.00     0.169 HD
HETATM   16  O   UNL     1      41.350 -13.996   0.825  1.00  0.00    -0.267 OA
BRANCH  14  17
HETATM   17  C   UNL     1      38.737 -13.212   1.976  1.00  0.00     0.037 A 
HETATM   18  C   UNL     1      38.676 -11.940   2.545  1.00  0.00     0.071 A 
HETATM   19  C   UNL     1      37.731 -11.023   2.089  1.00  0.00     0.118 A 
HETATM   20  F   UNL     1      37.672  -9.807   2.648  1.00  0.00    -0.206 F 
HETATM   21  C   UNL     1      36.845 -11.344   1.068  1.00  0.00     0.042 A 
HETATM   22  C   UNL     1      36.899 -12.608   0.491  1.00  0.00     0.005 A 
HETATM   23  C   UNL     1      37.838 -13.538   0.947  1.00  0.00     0.029 A 
ENDBRANCH  14  17
ENDBRANCH   9  13
BRANCH   4  24
HETATM   24  C   UNL     1      44.187 -19.999   4.032  1.00  0.00     0.060 A 
HETATM   25  C   UNL     1      44.105 -20.528   2.738  1.00  0.00     0.031 A 
HETATM   26  C   UNL     1      44.432 -21.868   2.506  1.00  0.00     0.002 A 
HETATM   27  C   UNL     1      44.833 -22.687   3.560  1.00  0.00     0.000 A 
HETATM   28  C   UNL     1      44.892 -22.175   4.854  1.00  0.00     0.002 A 
HETATM   29  C   UNL     1      44.562 -20.839   5.093  1.00  0.00     0.031 A 
ENDBRANCH   4  24
TORSDOF 3
ENDMDL
MODEL 5
REMARK VINA RESULT:      -8.8      5.453      8.882
REMARK  3 active torsions:
REMARK  status: ('A' for Active; 'I' for Inactive)
REMARK    1  A    between atoms: N_4  and  C_5 
REMARK    2  A    between atoms: C_15  and  C_16 
REMARK       I    between atoms: C_16  and  N_17 
REMARK    3  A    between atoms: N_17  and  C_18 
ROOT
HETATM    1  C   UNL     1      39.572 -12.820   3.282  1.00  0.00     0.073 C 
HETATM    2  C   UNL     1      39.622 -13.366   1.903  1.00  0.00     0.069 A 
HETATM    3  N   UNL     1      38.722 -12.981   0.987  1.00  0.00    -0.170 NA
HETATM    4  N   UNL     1      39.076 -13.626  -0.166  1.00  0.00    -0.216 N 
HETATM    5  C   UNL     1      40.108 -14.518   0.085  1.00  0.00     0.145 A 
HETATM    6  C   UNL     1      40.504 -14.332   1.389  1.00  0.00     0.087 A 
HETATM    7  N   UNL     1      40.651 -15.471  -0.710  1.00  0.00    -0.349 N 
HETATM    8  C   UNL     1      41.628 -16.292  -0.171  1.00  0.00     0.111 A 
HETATM    9  C   UNL     1      42.130 -16.181   1.081  1.00  0.00     0.098 A 
HETATM   10  C   UNL     1      41.582 -15.101   1.974  1.00  0.00     0.205 A 
HETATM   11  O   UNL     1      42.013 -14.910   3.108  1.00  0.00    -0.286 OA
HETATM   12  H   UNL     1      40.219 -15.796  -1.575  1.00  0.00     0.167 HD
ENDROOT
BRANCH   9  13
HETATM   13  C   UNL     1      43.171 -17.165   1.513  1.00  0.00     0.261 C 
HETATM   14  N   UNL     1      42.724 -18.123   2.400  1.00  0.00    -0.323 N 
HETATM   15  H   UNL     1      41.751 -18.053   2.701  1.00  0.00     0.169 HD
HETATM   16  O   UNL     1      44.317 -17.071   1.082  1.00  0.00    -0.267 OA
BRANCH  14  17
HETATM   17  C   UNL     1      43.447 -19.207   2.939  1.00  0.00     0.037 A 
HETATM   18  C   UNL     1      43.799 -20.350   2.222  1.00  0.00     0.071 A 
HETATM   19  C   UNL     1      44.499 -21.375   2.855  1.00  0.00     0.118 A 
HETATM   20  F   UNL     1      44.824 -22.475   2.162  1.00  0.00    -0.206 F 
HETATM   21  C   UNL     1      44.864 -21.284   4.193  1.00  0.00     0.042 A 
HETATM   22  C   UNL     1      44.520 -20.147   4.916  1.00  0.00     0.005 A 
HETATM   23  C   UNL     1      43.812 -19.116   4.292  1.00  0.00     0.029 A 
ENDBRANCH  14  17
ENDBRANCH   9  13
BRANCH   4  24
HETATM   24  C   UNL     1      38.405 -13.323  -1.385  1.00  0.00     0.060 A 
HETATM   25  C   UNL     1      38.058 -14.320  -2.305  1.00  0.00     0.031 A 
HETATM   26  C   UNL     1      37.399 -13.982  -3.491  1.00  0.00     0.002 A 
HETATM   27  C   UNL     1      37.091 -12.652  -3.770  1.00  0.00     0.000 A 
HETATM   28  C   UNL     1      37.455 -11.652  -2.872  1.00  0.00     0.002 A 
HETATM   29  C   UNL     1      38.118 -11.982  -1.688  1.00  0.00     0.031 A 
ENDBRANCH   4  24
TORSDOF 3
ENDMDL
MODEL 6
REMARK VINA RESULT:      -8.7      4.999      8.817
REMARK  3 active torsions:
REMARK  status: ('A' for Active; 'I' for Inactive)
REMARK    1  A    between atoms: N_4  and  C_5 
REMARK    2  A    between atoms: C_15  and  C_16 
REMARK       I    between atoms: C_16  and  N_17 
REMARK    3  A    between atoms: N_17  and  C_18 
ROOT
HETATM    1  C   UNL     1      40.931 -15.035  -2.560  1.00  0.00     0.073 C 
HETATM    2  C   UNL     1      41.326 -14.234  -1.376  1.00  0.00     0.069 A 
HETATM    3  N   UNL     1      41.501 -12.909  -1.479  1.00  0.00    -0.170 NA
HETATM    4  N   UNL     1      41.810 -12.481  -0.216  1.00  0.00    -0.216 N 
HETATM    5  C   UNL     1      41.962 -13.569   0.630  1.00  0.00     0.145 A 
HETATM    6  C   UNL     1      41.610 -14.695  -0.078  1.00  0.00     0.087 A 
HETATM    7  N   UNL     1      42.423 -13.627   1.903  1.00  0.00    -0.349 N 
HETATM    8  C   UNL     1      42.555 -14.873   2.493  1.00  0.00     0.111 A 
HETATM    9  C   UNL     1      42.203 -16.046   1.917  1.00  0.00     0.098 A 
HETATM   10  C   UNL     1      41.642 -16.012   0.521  1.00  0.00     0.205 A 
HETATM   11  O   UNL     1      41.263 -17.028  -0.055  1.00  0.00    -0.286 OA
HETATM   12  H   UNL     1      42.919 -12.860   2.357  1.00  0.00     0.167 HD
ENDROOT
BRANCH   9  13
HETATM   13  C   UNL     1      42.430 -17.308   2.689  1.00  0.00     0.261 C 
HETATM   14  N   UNL     1      43.251 -18.224   2.064  1.00  0.00    -0.323 N 
HETATM   15  H   UNL     1      43.593 -17.976   1.134  1.00  0.00     0.169 HD
HETATM   16  O   UNL     1      41.895 -17.459   3.784  1.00  0.00    -0.267 OA
BRANCH  14  17
HETATM   17  C   UNL     1      43.691 -19.469   2.559  1.00  0.00     0.037 A 
HETATM   18  C   UNL     1      44.274 -19.653   3.812  1.00  0.00     0.071 A 
HETATM   19  C   UNL     1      44.694 -20.924   4.199  1.00  0.00     0.118 A 
HETATM   20  F   UNL     1      45.262 -21.092   5.401  1.00  0.00    -0.206 F 
HETATM   21  C   UNL     1      44.541 -22.023   3.363  1.00  0.00     0.042 A 
HETATM   22  C   UNL     1      43.958 -21.851   2.111  1.00  0.00     0.005 A 
HETATM   23  C   UNL     1      43.540 -20.578   1.711  1.00  0.00     0.029 A 
ENDBRANCH  14  17
ENDBRANCH   9  13
BRANCH   4  24
HETATM   24  C   UNL     1      41.917 -11.088   0.056  1.00  0.00     0.060 A 
HETATM   25  C   UNL     1      40.977 -10.416   0.846  1.00  0.00     0.031 A 
HETATM   26  C   UNL     1      41.117  -9.046   1.091  1.00  0.00     0.002 A 
HETATM   27  C   UNL     1      42.188  -8.340   0.546  1.00  0.00     0.000 A 
HETATM   28  C   UNL     1      43.113  -8.997  -0.262  1.00  0.00     0.002 A 
HETATM   29  C   UNL     1      42.976 -10.363  -0.515  1.00  0.00     0.031 A 
ENDBRANCH   4  24
TORSDOF 3
ENDMDL
MODEL 7
REMARK VINA RESULT:      -8.6      4.761      8.595
REMARK  3 active torsions:
REMARK  status: ('A' for Active; 'I' for Inactive)
REMARK    1  A    between atoms: N_4  and  C_5 
REMARK    2  A    between atoms: C_15  and  C_16 
REMARK       I    between atoms: C_16  and  N_17 
REMARK    3  A    between atoms: N_17  and  C_18 
ROOT
HETATM    1  C   UNL     1      41.049 -12.127   3.442  1.00  0.00     0.073 C 
HETATM    2  C   UNL     1      41.314 -12.784   2.139  1.00  0.00     0.069 A 
HETATM    3  N   UNL     1      41.104 -12.125   0.991  1.00  0.00    -0.170 NA
HETATM    4  N   UNL     1      41.484 -12.988  -0.001  1.00  0.00    -0.216 N 
HETATM    5  C   UNL     1      41.793 -14.227   0.540  1.00  0.00     0.145 A 
HETATM    6  C   UNL     1      41.737 -14.104   1.909  1.00  0.00     0.087 A 
HETATM    7  N   UNL     1      42.050 -15.407  -0.074  1.00  0.00    -0.349 N 
HETATM    8  C   UNL     1      42.245 -16.526   0.719  1.00  0.00     0.111 A 
HETATM    9  C   UNL     1      42.257 -16.525   2.072  1.00  0.00     0.098 A 
HETATM   10  C   UNL     1      42.023 -15.221   2.785  1.00  0.00     0.205 A 
HETATM   11  O   UNL     1      42.058 -15.130   4.009  1.00  0.00    -0.286 OA
HETATM   12  H   UNL     1      41.854 -15.584  -1.059  1.00  0.00     0.167 HD
ENDROOT
BRANCH   9  13
HETATM   13  C   UNL     1      42.464 -17.829   2.777  1.00  0.00     0.261 C 
HETATM   14  N   UNL     1      43.392 -18.661   2.185  1.00  0.00    -0.323 N 
HETATM   15  H   UNL     1      43.818 -18.332   1.317  1.00  0.00     0.169 HD
HETATM   16  O   UNL     1      41.824 -18.083   3.794  1.00  0.00    -0.267 OA
BRANCH  14  17
HETATM   17  C   UNL     1      43.839 -19.919   2.639  1.00  0.00     0.037 A 
HETATM   18  C   UNL     1      44.351 -20.156   3.914  1.00  0.00     0.071 A 
HETATM   19  C   UNL     1      44.786 -21.434   4.258  1.00  0.00     0.118 A 
HETATM   20  F   UNL     1      45.285 -21.653   5.482  1.00  0.00    -0.206 F 
HETATM   21  C   UNL     1      44.716 -22.490   3.357  1.00  0.00     0.042 A 
HETATM   22  C   UNL     1      44.205 -22.265   2.083  1.00  0.00     0.005 A 
HETATM   23  C   UNL     1      43.773 -20.984   1.726  1.00  0.00     0.029 A 
ENDBRANCH  14  17
ENDBRANCH   9  13
BRANCH   4  24
HETATM   24  C   UNL     1      41.526 -12.543  -1.353  1.00  0.00     0.060 A 
HETATM   25  C   UNL     1      42.592 -11.784  -1.848  1.00  0.00     0.031 A 
HETATM   26  C   UNL     1      42.597 -11.367  -3.183  1.00  0.00     0.002 A 
HETATM   27  C   UNL     1      41.537 -11.696  -4.026  1.00  0.00     0.000 A 
HETATM   28  C   UNL     1      40.460 -12.429  -3.534  1.00  0.00     0.002 A 
HETATM   29  C   UNL     1      40.447 -12.844  -2.201  1.00  0.00     0.031 A 
ENDBRANCH   4  24
TORSDOF 3
ENDMDL
MODEL 8
REMARK VINA RESULT:      -8.6      4.144      8.730
REMARK  3 active torsions:
REMARK  status: ('A' for Active; 'I' for Inactive)
REMARK    1  A    between atoms: N_4  and  C_5 
REMARK    2  A    between atoms: C_15  and  C_16 
REMARK       I    between atoms: C_16  and  N_17 
REMARK    3  A    between atoms: N_17  and  C_18 
ROOT
HETATM    1  C   UNL     1      38.478 -14.217   1.484  1.00  0.00     0.073 C 
HETATM    2  C   UNL     1      39.597 -13.713   2.316  1.00  0.00     0.069 A 
HETATM    3  N   UNL     1      39.586 -12.456   2.781  1.00  0.00    -0.170 NA
HETATM    4  N   UNL     1      40.722 -12.334   3.535  1.00  0.00    -0.216 N 
HETATM    5  C   UNL     1      41.499 -13.476   3.410  1.00  0.00     0.145 A 
HETATM    6  C   UNL     1      40.777 -14.388   2.676  1.00  0.00     0.087 A 
HETATM    7  N   UNL     1      42.761 -13.723   3.837  1.00  0.00    -0.349 N 
HETATM    8  C   UNL     1      43.339 -14.936   3.498  1.00  0.00     0.111 A 
HETATM    9  C   UNL     1      42.717 -15.928   2.818  1.00  0.00     0.098 A 
HETATM   10  C   UNL     1      41.298 -15.704   2.372  1.00  0.00     0.205 A 
HETATM   11  O   UNL     1      40.653 -16.569   1.786  1.00  0.00    -0.286 OA
HETATM   12  H   UNL     1      43.400 -12.995   4.155  1.00  0.00     0.167 HD
ENDROOT
BRANCH   9  13
HETATM   13  C   UNL     1      43.494 -17.171   2.518  1.00  0.00     0.261 C 
HETATM   14  N   UNL     1      43.149 -18.264   3.285  1.00  0.00    -0.323 N 
HETATM   15  H   UNL     1      42.432 -18.118   3.999  1.00  0.00     0.169 HD
HETATM   16  O   UNL     1      44.362 -17.155   1.649  1.00  0.00    -0.267 OA
BRANCH  14  17
HETATM   17  C   UNL     1      43.658 -19.577   3.200  1.00  0.00     0.037 A 
HETATM   18  C   UNL     1      44.386 -20.203   4.212  1.00  0.00     0.071 A 
HETATM   19  C   UNL     1      44.862 -21.498   4.021  1.00  0.00     0.118 A 
HETATM   20  F   UNL     1      45.570 -22.089   4.992  1.00  0.00    -0.206 F 
HETATM   21  C   UNL     1      44.622 -22.191   2.840  1.00  0.00     0.042 A 
HETATM   22  C   UNL     1      43.894 -21.576   1.826  1.00  0.00     0.005 A 
HETATM   23  C   UNL     1      43.418 -20.274   2.005  1.00  0.00     0.029 A 
ENDBRANCH  14  17
ENDBRANCH   9  13
BRANCH   4  24
HETATM   24  C   UNL     1      40.945 -11.154   4.299  1.00  0.00     0.060 A 
HETATM   25  C   UNL     1      40.995  -9.888   3.705  1.00  0.00     0.031 A 
HETATM   26  C   UNL     1      41.216  -8.752   4.491  1.00  0.00     0.002 A 
HETATM   27  C   UNL     1      41.395  -8.873   5.867  1.00  0.00     0.000 A 
HETATM   28  C   UNL     1      41.372 -10.132   6.462  1.00  0.00     0.002 A 
HETATM   29  C   UNL     1      41.157 -11.270   5.683  1.00  0.00     0.031 A 
ENDBRANCH   4  24
TORSDOF 3
ENDMDL
MODEL 9
REMARK VINA RESULT:      -8.5      5.631      8.927
REMARK  3 active torsions:
REMARK  status: ('A' for Active; 'I' for Inactive)
REMARK    1  A    between atoms: N_4  and  C_5 
REMARK    2  A    between atoms: C_15  and  C_16 
REMARK       I    between atoms: C_16  and  N_17 
REMARK    3  A    between atoms: N_17  and  C_18 
ROOT
HETATM    1  C   UNL     1      40.872 -14.618  -1.933  1.00  0.00     0.073 C 
HETATM    2  C   UNL     1      40.196 -14.212  -0.677  1.00  0.00     0.069 A 
HETATM    3  N   UNL     1      39.479 -13.081  -0.626  1.00  0.00    -0.170 NA
HETATM    4  N   UNL     1      38.963 -13.031   0.641  1.00  0.00    -0.216 N 
HETATM    5  C   UNL     1      39.485 -14.063   1.407  1.00  0.00     0.145 A 
HETATM    6  C   UNL     1      40.236 -14.857   0.571  1.00  0.00     0.087 A 
HETATM    7  N   UNL     1      39.386 -14.297   2.738  1.00  0.00    -0.349 N 
HETATM    8  C   UNL     1      40.088 -15.370   3.264  1.00  0.00     0.111 A 
HETATM    9  C   UNL     1      40.824 -16.245   2.542  1.00  0.00     0.098 A 
HETATM   10  C   UNL     1      40.914 -16.041   1.054  1.00  0.00     0.205 A 
HETATM   11  O   UNL     1      41.529 -16.814   0.325  1.00  0.00    -0.286 OA
HETATM   12  H   UNL     1      39.055 -13.604   3.408  1.00  0.00     0.167 HD
ENDROOT
BRANCH   9  13
HETATM   13  C   UNL     1      41.535 -17.341   3.273  1.00  0.00     0.261 C 
HETATM   14  N   UNL     1      42.491 -18.001   2.530  1.00  0.00    -0.323 N 
HETATM   15  H   UNL     1      42.599 -17.711   1.556  1.00  0.00     0.169 HD
HETATM   16  O   UNL     1      41.242 -17.588   4.440  1.00  0.00    -0.267 OA
BRANCH  14  17
HETATM   17  C   UNL     1      43.357 -19.031   2.953  1.00  0.00     0.037 A 
HETATM   18  C   UNL     1      43.631 -20.180   2.211  1.00  0.00     0.071 A 
HETATM   19  C   UNL     1      44.488 -21.148   2.728  1.00  0.00     0.118 A 
HETATM   20  F   UNL     1      44.739 -22.254   2.014  1.00  0.00    -0.206 F 
HETATM   21  C   UNL     1      45.087 -20.996   3.973  1.00  0.00     0.042 A 
HETATM   22  C   UNL     1      44.822 -19.852   4.720  1.00  0.00     0.005 A 
HETATM   23  C   UNL     1      43.958 -18.877   4.213  1.00  0.00     0.029 A 
ENDBRANCH  14  17
ENDBRANCH   9  13
BRANCH   4  24
HETATM   24  C   UNL     1      38.024 -12.019   0.987  1.00  0.00     0.060 A 
HETATM   25  C   UNL     1      38.356 -10.970   1.853  1.00  0.00     0.031 A 
HETATM   26  C   UNL     1      37.406  -9.993   2.169  1.00  0.00     0.002 A 
HETATM   27  C   UNL     1      36.122 -10.062   1.631  1.00  0.00     0.000 A 
HETATM   28  C   UNL     1      35.777 -11.116   0.789  1.00  0.00     0.002 A 
HETATM   29  C   UNL     1      36.719 -12.096   0.474  1.00  0.00     0.031 A 
ENDBRANCH   4  24
TORSDOF 3
ENDMDL
MODEL 10
REMARK VINA RESULT:      -8.5      4.179      7.091
REMARK  3 active torsions:
REMARK  status: ('A' for Active; 'I' for Inactive)
REMARK    1  A    between atoms: N_4  and  C_5 
REMARK    2  A    between atoms: C_15  and  C_16 
REMARK       I    between atoms: C_16  and  N_17 
REMARK    3  A    between atoms: N_17  and  C_18 
ROOT
HETATM    1  C   UNL     1      44.084 -15.852   6.565  1.00  0.00     0.073 C 
HETATM    2  C   UNL     1      43.732 -16.848   5.523  1.00  0.00     0.069 A 
HETATM    3  N   UNL     1      44.379 -18.020   5.458  1.00  0.00    -0.170 NA
HETATM    4  N   UNL     1      43.787 -18.707   4.432  1.00  0.00    -0.216 N 
HETATM    5  C   UNL     1      42.873 -17.893   3.780  1.00  0.00     0.145 A 
HETATM    6  C   UNL     1      42.788 -16.719   4.491  1.00  0.00     0.087 A 
HETATM    7  N   UNL     1      42.192 -18.096   2.626  1.00  0.00    -0.349 N 
HETATM    8  C   UNL     1      41.398 -17.066   2.149  1.00  0.00     0.111 A 
HETATM    9  C   UNL     1      41.199 -15.884   2.777  1.00  0.00     0.098 A 
HETATM   10  C   UNL     1      41.903 -15.646   4.085  1.00  0.00     0.205 A 
HETATM   11  O   UNL     1      41.744 -14.617   4.735  1.00  0.00    -0.286 OA
HETATM   12  H   UNL     1      42.420 -18.833   1.960  1.00  0.00     0.167 HD
ENDROOT
BRANCH   9  13
HETATM   13  C   UNL     1      40.321 -14.871   2.111  1.00  0.00     0.261 C 
HETATM   14  N   UNL     1      40.752 -14.469   0.864  1.00  0.00    -0.323 N 
HETATM   15  H   UNL     1      41.632 -14.866   0.530  1.00  0.00     0.169 HD
HETATM   16  O   UNL     1      39.314 -14.464   2.684  1.00  0.00    -0.267 OA
BRANCH  14  17
HETATM   17  C   UNL     1      40.116 -13.577  -0.025  1.00  0.00     0.037 A 
HETATM   18  C   UNL     1      39.195 -13.963  -0.999  1.00  0.00     0.071 A 
HETATM   19  C   UNL     1      38.638 -13.004  -1.841  1.00  0.00     0.118 A 
HETATM   20  F   UNL     1      37.762 -13.383  -2.781  1.00  0.00    -0.206 F 
HETATM   21  C   UNL     1      38.974 -11.660  -1.732  1.00  0.00     0.042 A 
HETATM   22  C   UNL     1      39.890 -11.264  -0.762  1.00  0.00     0.005 A 
HETATM   23  C   UNL     1      40.460 -12.219   0.084  1.00  0.00     0.029 A 
ENDBRANCH  14  17
ENDBRANCH   9  13
BRANCH   4  24
HETATM   24  C   UNL     1      44.143 -20.063   4.187  1.00  0.00     0.060 A 
HETATM   25  C   UNL     1      44.498 -20.933   5.225  1.00  0.00     0.031 A 
HETATM   26  C   UNL     1      44.840 -22.260   4.943  1.00  0.00     0.002 A 
HETATM   27  C   UNL     1      44.839 -22.722   3.628  1.00  0.00     0.000 A 
HETATM   28  C   UNL     1      44.513 -21.856   2.588  1.00  0.00     0.002 A 
HETATM   29  C   UNL     1      44.175 -20.529   2.862  1.00  0.00     0.031 A 
ENDBRANCH   4  24
TORSDOF 3
ENDMDL
