MODEL 1
REMARK VINA RESULT:      -9.7      0.000      0.000
REMARK  6 active torsions:
REMARK  status: ('A' for Active; 'I' for Inactive)
REMARK    1  A    between atoms: C_5  and  C_6 
REMARK    2  A    between atoms: C_11  and  C_12 
REMARK       I    between atoms: C_12  and  N_13 
REMARK    3  A    between atoms: N_13  and  C_14 
REMARK    4  A    between atoms: C_16  and  C_17 
REMARK    5  A    between atoms: C_17  and  O_18 
REMARK    6  A    between atoms: C_25  and  C_26 
ROOT
HETATM    1  C   UNL     1      42.529 -16.281   2.637  1.00  0.00     0.118 C 
HETATM    2  N   UNL     1      43.499 -15.318   3.150  1.00  0.00    -0.366 N 
HETATM    3  C   UNL     1      43.413 -14.823   4.402  1.00  0.00     0.123 A 
HETATM    4  N   UNL     1      42.312 -15.022   5.186  1.00  0.00    -0.240 N 
HETATM    5  N   UNL     1      42.372 -14.398   6.380  1.00  0.00    -0.165 NA
HETATM    6  C   UNL     1      43.620 -13.872   6.395  1.00  0.00     0.148 A 
HETATM    7  C   UNL     1      44.288 -14.094   5.162  1.00  0.00     0.089 A 
HETATM    8  C   UNL     1      41.160 -15.810   4.792  1.00  0.00     0.221 C 
HETATM    9  C   UNL     1      41.146 -16.040   3.268  1.00  0.00     0.066 C 
HETATM   10  H   UNL     1      44.387 -15.300   2.650  1.00  0.00     0.161 HD
ENDROOT
BRANCH   6  11
HETATM   11  C   UNL     1      44.173 -13.180   7.573  1.00  0.00     0.276 C 
HETATM   12  N   UNL     1      43.320 -12.206   8.054  1.00  0.00    -0.322 N 
HETATM   13  H   UNL     1      42.487 -12.074   7.484  1.00  0.00     0.169 HD
HETATM   14  O   UNL     1      45.274 -13.476   8.024  1.00  0.00    -0.266 OA
BRANCH  12  15
HETATM   15  C   UNL     1      43.472 -11.411   9.202  1.00  0.00     0.035 A 
HETATM   16  C   UNL     1      42.491 -10.530   9.666  1.00  0.00     0.039 A 
HETATM   17  C   UNL     1      42.702  -9.732  10.806  1.00  0.00    -0.028 A 
HETATM   18  C   UNL     1      43.917  -9.855  11.493  1.00  0.00     0.010 A 
HETATM   19  C   UNL     1      44.902 -10.731  11.038  1.00  0.00     0.003 A 
HETATM   20  C   UNL     1      44.684 -11.498   9.893  1.00  0.00     0.029 A 
BRANCH  17  21
HETATM   21  C   UNL     1      41.615  -8.779  11.253  1.00  0.00     0.147 C 
HETATM   22  C   UNL     1      42.188  -7.556  11.959  1.00  0.00     0.044 C 
BRANCH  21  23
HETATM   23  O   UNL     1      40.833  -8.346  10.141  1.00  0.00    -0.391 OA
HETATM   24  H   UNL     1      40.087  -7.839  10.502  1.00  0.00     0.210 HD
ENDBRANCH  21  23
ENDBRANCH  17  21
ENDBRANCH  12  15
ENDBRANCH   6  11
BRANCH   8  25
HETATM   25  C   UNL     1      41.097 -17.088   5.602  1.00  0.00     0.409 C 
HETATM   26  F   UNL     1      40.745 -18.171   4.888  1.00  0.00    -0.169 F 
HETATM   27  F   UNL     1      42.281 -17.364   6.198  1.00  0.00    -0.169 F 
HETATM   28  F   UNL     1      40.193 -16.958   6.608  1.00  0.00    -0.169 F 
ENDBRANCH   8  25
BRANCH   1  29
HETATM   29  C   UNL     1      43.031 -17.713   2.695  1.00  0.00    -0.035 A 
HETATM   30  C   UNL     1      44.001 -18.149   3.611  1.00  0.00     0.010 A 
HETATM   31  C   UNL     1      44.452 -19.471   3.612  1.00  0.00     0.007 A 
HETATM   32  C   UNL     1      43.956 -20.391   2.685  1.00  0.00    -0.062 A 
HETATM   33  C   UNL     1      44.430 -21.814   2.682  1.00  0.00     0.048 C 
HETATM   34  C   UNL     1      42.990 -19.970   1.768  1.00  0.00     0.007 A 
HETATM   35  C   UNL     1      42.534 -18.648   1.773  1.00  0.00     0.010 A 
ENDBRANCH   1  29
TORSDOF 6
ENDMDL
MODEL 2
REMARK VINA RESULT:      -9.4      6.304      9.469
REMARK  6 active torsions:
REMARK  status: ('A' for Active; 'I' for Inactive)
REMARK    1  A    between atoms: C_5  and  C_6 
REMARK    2  A    between atoms: C_11  and  C_12 
REMARK       I    between atoms: C_12  and  N_13 
REMARK    3  A    between atoms: N_13  and  C_14 
REMARK    4  A    between atoms: C_16  and  C_17 
REMARK    5  A    between atoms: C_17  and  O_18 
REMARK    6  A    between atoms: C_25  and  C_26 
ROOT
HETATM    1  C   UNL     1      40.157 -13.088  -2.273  1.00  0.00     0.118 C 
HETATM    2  N   UNL     1      40.969 -14.261  -1.963  1.00  0.00    -0.366 N 
HETATM    3  C   UNL     1      40.988 -14.804  -0.728  1.00  0.00     0.123 A 
HETATM    4  N   UNL     1      40.426 -14.176   0.348  1.00  0.00    -0.240 N 
HETATM    5  N   UNL     1      40.599 -14.833   1.513  1.00  0.00    -0.165 NA
HETATM    6  C   UNL     1      41.202 -15.985   1.137  1.00  0.00     0.148 A 
HETATM    7  C   UNL     1      41.486 -15.988  -0.255  1.00  0.00     0.089 A 
HETATM    8  C   UNL     1      39.719 -12.913   0.279  1.00  0.00     0.221 C 
HETATM    9  C   UNL     1      40.032 -12.177  -1.038  1.00  0.00     0.066 C 
HETATM   10  H   UNL     1      41.242 -14.816  -2.773  1.00  0.00     0.161 HD
ENDROOT
BRANCH   6  11
HETATM   11  C   UNL     1      41.491 -17.074   2.087  1.00  0.00     0.276 C 
HETATM   12  N   UNL     1      42.656 -17.745   1.773  1.00  0.00    -0.322 N 
HETATM   13  H   UNL     1      43.088 -17.432   0.906  1.00  0.00     0.169 HD
HETATM   14  O   UNL     1      40.739 -17.312   3.027  1.00  0.00    -0.266 OA
BRANCH  12  15
HETATM   15  C   UNL     1      43.286 -18.773   2.495  1.00  0.00     0.035 A 
HETATM   16  C   UNL     1      43.645 -18.662   3.841  1.00  0.00     0.039 A 
HETATM   17  C   UNL     1      44.301 -19.711   4.513  1.00  0.00    -0.028 A 
HETATM   18  C   UNL     1      44.571 -20.891   3.809  1.00  0.00     0.010 A 
HETATM   19  C   UNL     1      44.218 -21.011   2.465  1.00  0.00     0.003 A 
HETATM   20  C   UNL     1      43.587 -19.954   1.810  1.00  0.00     0.029 A 
BRANCH  17  21
HETATM   21  C   UNL     1      44.686 -19.530   5.966  1.00  0.00     0.147 C 
HETATM   22  C   UNL     1      45.082 -18.091   6.272  1.00  0.00     0.044 C 
BRANCH  21  23
HETATM   23  O   UNL     1      43.609 -19.904   6.824  1.00  0.00    -0.391 OA
HETATM   24  H   UNL     1      43.316 -20.786   6.541  1.00  0.00     0.210 HD
ENDBRANCH  21  23
ENDBRANCH  17  21
ENDBRANCH  12  15
ENDBRANCH   6  11
BRANCH   8  25
HETATM   25  C   UNL     1      38.240 -13.125   0.522  1.00  0.00     0.409 C 
HETATM   26  F   UNL     1      37.885 -13.070   1.818  1.00  0.00    -0.169 F 
HETATM   27  F   UNL     1      37.487 -12.216  -0.142  1.00  0.00    -0.169 F 
HETATM   28  F   UNL     1      37.859 -14.341   0.051  1.00  0.00    -0.169 F 
ENDBRANCH   8  25
BRANCH   1  29
HETATM   29  C   UNL     1      38.848 -13.440  -2.958  1.00  0.00    -0.035 A 
HETATM   30  C   UNL     1      38.444 -14.760  -3.209  1.00  0.00     0.010 A 
HETATM   31  C   UNL     1      37.242 -15.037  -3.865  1.00  0.00     0.007 A 
HETATM   32  C   UNL     1      36.417 -13.998  -4.303  1.00  0.00    -0.062 A 
HETATM   33  C   UNL     1      35.123 -14.286  -5.003  1.00  0.00     0.048 C 
HETATM   34  C   UNL     1      36.808 -12.679  -4.060  1.00  0.00     0.007 A 
HETATM   35  C   UNL     1      38.008 -12.403  -3.396  1.00  0.00     0.010 A 
ENDBRANCH   1  29
TORSDOF 6
ENDMDL
MODEL 3
REMARK VINA RESULT:      -9.2      2.865      3.525
REMARK  6 active torsions:
REMARK  status: ('A' for Active; 'I' for Inactive)
REMARK    1  A    between atoms: C_5  and  C_6 
REMARK    2  A    between atoms: C_11  and  C_12 
REMARK       I    between atoms: C_12  and  N_13 
REMARK    3  A    between atoms: N_13  and  C_14 
REMARK    4  A    between atoms: C_16  and  C_17 
REMARK    5  A    between atoms: C_17  and  O_18 
REMARK    6  A    between atoms: C_25  and  C_26 
ROOT
HETATM    1  C   UNL     1      43.396 -14.872   2.261  1.00  0.00     0.118 C 
HETATM    2  N   UNL     1      43.391 -14.097   3.498  1.00  0.00    -0.366 N 
HETATM    3  C   UNL     1      42.243 -13.685   4.073  1.00  0.00     0.123 A 
HETATM    4  N   UNL     1      41.038 -13.780   3.435  1.00  0.00    -0.240 N 
HETATM    5  N   UNL     1      40.009 -13.258   4.133  1.00  0.00    -0.165 NA
HETATM    6  C   UNL     1      40.573 -12.918   5.316  1.00  0.00     0.148 A 
HETATM    7  C   UNL     1      41.975 -13.145   5.303  1.00  0.00     0.089 A 
HETATM    8  C   UNL     1      40.853 -14.366   2.122  1.00  0.00     0.221 C 
HETATM    9  C   UNL     1      42.197 -14.482   1.377  1.00  0.00     0.066 C 
HETATM   10  H   UNL     1      44.245 -14.170   4.049  1.00  0.00     0.161 HD
ENDROOT
BRANCH   6  11
HETATM   11  C   UNL     1      39.786 -12.397   6.448  1.00  0.00     0.276 C 
HETATM   12  N   UNL     1      40.541 -11.600   7.285  1.00  0.00    -0.322 N 
HETATM   13  H   UNL     1      41.525 -11.555   7.030  1.00  0.00     0.169 HD
HETATM   14  O   UNL     1      38.601 -12.682   6.580  1.00  0.00    -0.266 OA
BRANCH  12  15
HETATM   15  C   UNL     1      40.111 -10.869   8.406  1.00  0.00     0.035 A 
HETATM   16  C   UNL     1      40.482 -11.178   9.717  1.00  0.00     0.039 A 
HETATM   17  C   UNL     1      40.001 -10.432  10.810  1.00  0.00    -0.028 A 
HETATM   18  C   UNL     1      39.155  -9.346  10.557  1.00  0.00     0.010 A 
HETATM   19  C   UNL     1      38.778  -9.029   9.252  1.00  0.00     0.003 A 
HETATM   20  C   UNL     1      39.248  -9.793   8.183  1.00  0.00     0.029 A 
BRANCH  17  21
HETATM   21  C   UNL     1      40.418 -10.823  12.211  1.00  0.00     0.147 C 
HETATM   22  C   UNL     1      40.386  -9.634  13.164  1.00  0.00     0.044 C 
BRANCH  21  23
HETATM   23  O   UNL     1      39.567 -11.848  12.725  1.00  0.00    -0.391 OA
HETATM   24  H   UNL     1      38.819 -11.926  12.111  1.00  0.00     0.210 HD
ENDBRANCH  21  23
ENDBRANCH  17  21
ENDBRANCH  12  15
ENDBRANCH   6  11
BRANCH   8  25
HETATM   25  C   UNL     1      40.102 -15.676   2.233  1.00  0.00     0.409 C 
HETATM   26  F   UNL     1      40.328 -16.341   3.379  1.00  0.00    -0.169 F 
HETATM   27  F   UNL     1      38.764 -15.498   2.125  1.00  0.00    -0.169 F 
HETATM   28  F   UNL     1      40.453 -16.502   1.213  1.00  0.00    -0.169 F 
ENDBRANCH   8  25
BRANCH   1  29
HETATM   29  C   UNL     1      43.572 -16.362   2.499  1.00  0.00    -0.035 A 
HETATM   30  C   UNL     1      43.555 -16.942   3.777  1.00  0.00     0.010 A 
HETATM   31  C   UNL     1      43.747 -18.315   3.950  1.00  0.00     0.007 A 
HETATM   32  C   UNL     1      43.978 -19.144   2.850  1.00  0.00    -0.062 A 
HETATM   33  C   UNL     1      44.179 -20.619   3.027  1.00  0.00     0.048 C 
HETATM   34  C   UNL     1      43.998 -18.579   1.572  1.00  0.00     0.007 A 
HETATM   35  C   UNL     1      43.798 -17.206   1.399  1.00  0.00     0.010 A 
ENDBRANCH   1  29
TORSDOF 6
ENDMDL
MODEL 4
REMARK VINA RESULT:      -9.1      6.088      9.386
REMARK  6 active torsions:
REMARK  status: ('A' for Active; 'I' for Inactive)
REMARK    1  A    between atoms: C_5  and  C_6 
REMARK    2  A    between atoms: C_11  and  C_12 
REMARK       I    between atoms: C_12  and  N_13 
REMARK    3  A    between atoms: N_13  and  C_14 
REMARK    4  A    between atoms: C_16  and  C_17 
REMARK    5  A    between atoms: C_17  and  O_18 
REMARK    6  A    between atoms: C_25  and  C_26 
ROOT
HETATM    1  C   UNL     1      41.554 -11.546   1.170  1.00  0.00     0.118 C 
HETATM    2  N   UNL     1      42.427 -12.513   1.829  1.00  0.00    -0.366 N 
HETATM    3  C   UNL     1      41.987 -13.736   2.189  1.00  0.00     0.123 A 
HETATM    4  N   UNL     1      40.662 -14.069   2.155  1.00  0.00    -0.240 N 
HETATM    5  N   UNL     1      40.399 -15.309   2.612  1.00  0.00    -0.165 NA
HETATM    6  C   UNL     1      41.630 -15.825   2.842  1.00  0.00     0.148 A 
HETATM    7  C   UNL     1      42.645 -14.859   2.615  1.00  0.00     0.089 A 
HETATM    8  C   UNL     1      39.610 -13.185   1.691  1.00  0.00     0.221 C 
HETATM    9  C   UNL     1      40.100 -11.725   1.642  1.00  0.00     0.066 C 
HETATM   10  H   UNL     1      43.424 -12.341   1.704  1.00  0.00     0.161 HD
ENDROOT
BRANCH   6  11
HETATM   11  C   UNL     1      41.837 -17.224   3.258  1.00  0.00     0.276 C 
HETATM   12  N   UNL     1      42.822 -17.848   2.519  1.00  0.00    -0.322 N 
HETATM   13  H   UNL     1      43.196 -17.274   1.767  1.00  0.00     0.169 HD
HETATM   14  O   UNL     1      41.173 -17.722   4.161  1.00  0.00    -0.266 OA
BRANCH  12  15
HETATM   15  C   UNL     1      43.346 -19.141   2.690  1.00  0.00     0.035 A 
HETATM   16  C   UNL     1      43.881 -19.603   3.895  1.00  0.00     0.039 A 
HETATM   17  C   UNL     1      44.421 -20.899   4.008  1.00  0.00    -0.028 A 
HETATM   18  C   UNL     1      44.390 -21.736   2.886  1.00  0.00     0.010 A 
HETATM   19  C   UNL     1      43.859 -21.284   1.678  1.00  0.00     0.003 A 
HETATM   20  C   UNL     1      43.348 -19.990   1.579  1.00  0.00     0.029 A 
BRANCH  17  21
HETATM   21  C   UNL     1      45.007 -21.342   5.331  1.00  0.00     0.147 C 
HETATM   22  C   UNL     1      43.996 -21.224   6.465  1.00  0.00     0.044 C 
BRANCH  21  23
HETATM   23  O   UNL     1      45.461 -22.693   5.257  1.00  0.00    -0.391 OA
HETATM   24  H   UNL     1      44.881 -23.150   4.625  1.00  0.00     0.210 HD
ENDBRANCH  21  23
ENDBRANCH  17  21
ENDBRANCH  12  15
ENDBRANCH   6  11
BRANCH   8  25
HETATM   25  C   UNL     1      39.045 -13.684   0.378  1.00  0.00     0.409 C 
HETATM   26  F   UNL     1      39.922 -14.383  -0.364  1.00  0.00    -0.169 F 
HETATM   27  F   UNL     1      37.958 -14.469   0.565  1.00  0.00    -0.169 F 
HETATM   28  F   UNL     1      38.624 -12.636  -0.376  1.00  0.00    -0.169 F 
ENDBRANCH   8  25
BRANCH   1  29
HETATM   29  C   UNL     1      41.750 -11.503  -0.335  1.00  0.00    -0.035 A 
HETATM   30  C   UNL     1      42.514 -12.450  -1.036  1.00  0.00     0.010 A 
HETATM   31  C   UNL     1      42.688 -12.357  -2.419  1.00  0.00     0.007 A 
HETATM   32  C   UNL     1      42.116 -11.305  -3.138  1.00  0.00    -0.062 A 
HETATM   33  C   UNL     1      42.293 -11.201  -4.623  1.00  0.00     0.048 C 
HETATM   34  C   UNL     1      41.354 -10.356  -2.453  1.00  0.00     0.007 A 
HETATM   35  C   UNL     1      41.174 -10.454  -1.069  1.00  0.00     0.010 A 
ENDBRANCH   1  29
TORSDOF 6
ENDMDL
MODEL 5
REMARK VINA RESULT:      -9.1      6.497      9.062
REMARK  6 active torsions:
REMARK  status: ('A' for Active; 'I' for Inactive)
REMARK    1  A    between atoms: C_5  and  C_6 
REMARK    2  A    between atoms: C_11  and  C_12 
REMARK       I    between atoms: C_12  and  N_13 
REMARK    3  A    between atoms: N_13  and  C_14 
REMARK    4  A    between atoms: C_16  and  C_17 
REMARK    5  A    between atoms: C_17  and  O_18 
REMARK    6  A    between atoms: C_25  and  C_26 
ROOT
HETATM    1  C   UNL     1      40.733 -16.807   2.459  1.00  0.00     0.118 C 
HETATM    2  N   UNL     1      40.641 -16.449   1.047  1.00  0.00    -0.366 N 
HETATM    3  C   UNL     1      41.127 -15.281   0.577  1.00  0.00     0.123 A 
HETATM    4  N   UNL     1      41.539 -14.280   1.412  1.00  0.00    -0.240 N 
HETATM    5  N   UNL     1      41.930 -13.162   0.769  1.00  0.00    -0.165 NA
HETATM    6  C   UNL     1      41.869 -13.513  -0.537  1.00  0.00     0.148 A 
HETATM    7  C   UNL     1      41.343 -14.823  -0.694  1.00  0.00     0.089 A 
HETATM    8  C   UNL     1      41.548 -14.375   2.858  1.00  0.00     0.221 C 
HETATM    9  C   UNL     1      40.669 -15.546   3.339  1.00  0.00     0.066 C 
HETATM   10  H   UNL     1      40.498 -17.237   0.416  1.00  0.00     0.161 HD
ENDROOT
BRANCH   6  11
HETATM   11  C   UNL     1      42.318 -12.619  -1.619  1.00  0.00     0.276 C 
HETATM   12  N   UNL     1      41.827 -11.337  -1.474  1.00  0.00    -0.322 N 
HETATM   13  H   UNL     1      41.185 -11.230  -0.692  1.00  0.00     0.169 HD
HETATM   14  O   UNL     1      43.040 -13.029  -2.522  1.00  0.00    -0.266 OA
BRANCH  12  15
HETATM   15  C   UNL     1      42.111 -10.206  -2.258  1.00  0.00     0.035 A 
HETATM   16  C   UNL     1      41.958 -10.172  -3.647  1.00  0.00     0.039 A 
HETATM   17  C   UNL     1      42.284  -9.022  -4.392  1.00  0.00    -0.028 A 
HETATM   18  C   UNL     1      42.746  -7.891  -3.708  1.00  0.00     0.010 A 
HETATM   19  C   UNL     1      42.902  -7.915  -2.323  1.00  0.00     0.003 A 
HETATM   20  C   UNL     1      42.595  -9.070  -1.603  1.00  0.00     0.029 A 
BRANCH  17  21
HETATM   21  C   UNL     1      42.119  -9.046  -5.896  1.00  0.00     0.147 C 
HETATM   22  C   UNL     1      43.116  -8.125  -6.590  1.00  0.00     0.044 C 
BRANCH  21  23
HETATM   23  O   UNL     1      42.286 -10.370  -6.403  1.00  0.00    -0.391 OA
HETATM   24  H   UNL     1      42.941 -10.808  -5.834  1.00  0.00     0.210 HD
ENDBRANCH  21  23
ENDBRANCH  17  21
ENDBRANCH  12  15
ENDBRANCH   6  11
BRANCH   8  25
HETATM   25  C   UNL     1      42.972 -14.430   3.372  1.00  0.00     0.409 C 
HETATM   26  F   UNL     1      43.797 -15.176   2.617  1.00  0.00    -0.169 F 
HETATM   27  F   UNL     1      43.518 -13.195   3.469  1.00  0.00    -0.169 F 
HETATM   28  F   UNL     1      42.995 -14.949   4.627  1.00  0.00    -0.169 F 
ENDBRANCH   8  25
BRANCH   1  29
HETATM   29  C   UNL     1      41.886 -17.750   2.755  1.00  0.00    -0.035 A 
HETATM   30  C   UNL     1      42.621 -18.402   1.752  1.00  0.00     0.010 A 
HETATM   31  C   UNL     1      43.658 -19.282   2.071  1.00  0.00     0.007 A 
HETATM   32  C   UNL     1      43.980 -19.546   3.405  1.00  0.00    -0.062 A 
HETATM   33  C   UNL     1      45.095 -20.484   3.756  1.00  0.00     0.048 C 
HETATM   34  C   UNL     1      43.256 -18.904   4.412  1.00  0.00     0.007 A 
HETATM   35  C   UNL     1      42.223 -18.018   4.092  1.00  0.00     0.010 A 
ENDBRANCH   1  29
TORSDOF 6
ENDMDL
MODEL 6
REMARK VINA RESULT:      -9.1      5.110      8.044
REMARK  6 active torsions:
REMARK  status: ('A' for Active; 'I' for Inactive)
REMARK    1  A    between atoms: C_5  and  C_6 
REMARK    2  A    between atoms: C_11  and  C_12 
REMARK       I    between atoms: C_12  and  N_13 
REMARK    3  A    between atoms: N_13  and  C_14 
REMARK    4  A    between atoms: C_16  and  C_17 
REMARK    5  A    between atoms: C_17  and  O_18 
REMARK    6  A    between atoms: C_25  and  C_26 
ROOT
HETATM    1  C   UNL     1      41.052 -17.040   5.188  1.00  0.00     0.118 C 
HETATM    2  N   UNL     1      40.424 -16.453   4.009  1.00  0.00    -0.366 N 
HETATM    3  C   UNL     1      40.727 -15.207   3.589  1.00  0.00     0.123 A 
HETATM    4  N   UNL     1      41.468 -14.347   4.349  1.00  0.00    -0.240 N 
HETATM    5  N   UNL     1      41.614 -13.124   3.802  1.00  0.00    -0.165 NA
HETATM    6  C   UNL     1      41.031 -13.253   2.587  1.00  0.00     0.148 A 
HETATM    7  C   UNL     1      40.440 -14.535   2.432  1.00  0.00     0.089 A 
HETATM    8  C   UNL     1      42.043 -14.683   5.637  1.00  0.00     0.221 C 
HETATM    9  C   UNL     1      41.384 -15.948   6.221  1.00  0.00     0.066 C 
HETATM   10  H   UNL     1      40.016 -17.129   3.363  1.00  0.00     0.161 HD
ENDROOT
BRANCH   6  11
HETATM   11  C   UNL     1      41.048 -12.175   1.582  1.00  0.00     0.276 C 
HETATM   12  N   UNL     1      42.053 -12.346   0.650  1.00  0.00    -0.322 N 
HETATM   13  H   UNL     1      42.658 -13.141   0.842  1.00  0.00     0.169 HD
HETATM   14  O   UNL     1      40.240 -11.253   1.626  1.00  0.00    -0.266 OA
BRANCH  12  15
HETATM   15  C   UNL     1      42.316 -11.572  -0.493  1.00  0.00     0.035 A 
HETATM   16  C   UNL     1      41.935 -11.949  -1.784  1.00  0.00     0.039 A 
HETATM   17  C   UNL     1      42.249 -11.152  -2.902  1.00  0.00    -0.028 A 
HETATM   18  C   UNL     1      42.934  -9.949  -2.695  1.00  0.00     0.010 A 
HETATM   19  C   UNL     1      43.319  -9.564  -1.410  1.00  0.00     0.003 A 
HETATM   20  C   UNL     1      43.019 -10.377  -0.317  1.00  0.00     0.029 A 
BRANCH  17  21
HETATM   21  C   UNL     1      41.830 -11.616  -4.280  1.00  0.00     0.147 C 
HETATM   22  C   UNL     1      40.534 -10.955  -4.731  1.00  0.00     0.044 C 
BRANCH  21  23
HETATM   23  O   UNL     1      42.849 -11.336  -5.240  1.00  0.00    -0.391 OA
HETATM   24  H   UNL     1      43.631 -11.045  -4.743  1.00  0.00     0.210 HD
ENDBRANCH  21  23
ENDBRANCH  17  21
ENDBRANCH  12  15
ENDBRANCH   6  11
BRANCH   8  25
HETATM   25  C   UNL     1      43.551 -14.775   5.531  1.00  0.00     0.409 C 
HETATM   26  F   UNL     1      44.183 -13.600   5.699  1.00  0.00    -0.169 F 
HETATM   27  F   UNL     1      44.065 -15.643   6.433  1.00  0.00    -0.169 F 
HETATM   28  F   UNL     1      43.904 -15.251   4.309  1.00  0.00    -0.169 F 
ENDBRANCH   8  25
BRANCH   1  29
HETATM   29  C   UNL     1      42.195 -17.979   4.843  1.00  0.00    -0.035 A 
HETATM   30  C   UNL     1      42.572 -18.277   3.524  1.00  0.00     0.010 A 
HETATM   31  C   UNL     1      43.614 -19.167   3.253  1.00  0.00     0.007 A 
HETATM   32  C   UNL     1      44.298 -19.797   4.295  1.00  0.00    -0.062 A 
HETATM   33  C   UNL     1      45.421 -20.750   4.013  1.00  0.00     0.048 C 
HETATM   34  C   UNL     1      43.933 -19.511   5.613  1.00  0.00     0.007 A 
HETATM   35  C   UNL     1      42.894 -18.613   5.883  1.00  0.00     0.010 A 
ENDBRANCH   1  29
TORSDOF 6
ENDMDL
MODEL 7
REMARK VINA RESULT:      -9.1      6.403      9.627
REMARK  6 active torsions:
REMARK  status: ('A' for Active; 'I' for Inactive)
REMARK    1  A    between atoms: C_5  and  C_6 
REMARK    2  A    between atoms: C_11  and  C_12 
REMARK       I    between atoms: C_12  and  N_13 
REMARK    3  A    between atoms: N_13  and  C_14 
REMARK    4  A    between atoms: C_16  and  C_17 
REMARK    5  A    between atoms: C_17  and  O_18 
REMARK    6  A    between atoms: C_25  and  C_26 
ROOT
HETATM    1  C   UNL     1      39.565 -12.049  -1.398  1.00  0.00     0.118 C 
HETATM    2  N   UNL     1      40.243 -12.197  -0.114  1.00  0.00    -0.366 N 
HETATM    3  C   UNL     1      40.813 -13.362   0.258  1.00  0.00     0.123 A 
HETATM    4  N   UNL     1      40.613 -14.521  -0.438  1.00  0.00    -0.240 N 
HETATM    5  N   UNL     1      41.206 -15.598   0.115  1.00  0.00    -0.165 NA
HETATM    6  C   UNL     1      41.906 -15.074   1.149  1.00  0.00     0.148 A 
HETATM    7  C   UNL     1      41.661 -13.681   1.285  1.00  0.00     0.089 A 
HETATM    8  C   UNL     1      39.828 -14.619  -1.652  1.00  0.00     0.221 C 
HETATM    9  C   UNL     1      38.925 -13.382  -1.826  1.00  0.00     0.066 C 
HETATM   10  H   UNL     1      40.535 -11.321   0.317  1.00  0.00     0.161 HD
ENDROOT
BRANCH   6  11
HETATM   11  C   UNL     1      42.807 -15.885   1.987  1.00  0.00     0.276 C 
HETATM   12  N   UNL     1      42.462 -17.221   1.982  1.00  0.00    -0.322 N 
HETATM   13  H   UNL     1      41.609 -17.422   1.464  1.00  0.00     0.169 HD
HETATM   14  O   UNL     1      43.737 -15.371   2.600  1.00  0.00    -0.266 OA
BRANCH  12  15
HETATM   15  C   UNL     1      43.137 -18.293   2.590  1.00  0.00     0.035 A 
HETATM   16  C   UNL     1      43.517 -18.302   3.935  1.00  0.00     0.039 A 
HETATM   17  C   UNL     1      44.219 -19.390   4.491  1.00  0.00    -0.028 A 
HETATM   18  C   UNL     1      44.511 -20.487   3.671  1.00  0.00     0.010 A 
HETATM   19  C   UNL     1      44.136 -20.487   2.328  1.00  0.00     0.003 A 
HETATM   20  C   UNL     1      43.460 -19.392   1.789  1.00  0.00     0.029 A 
BRANCH  17  21
HETATM   21  C   UNL     1      44.625 -19.339   5.948  1.00  0.00     0.147 C 
HETATM   22  C   UNL     1      45.063 -17.940   6.365  1.00  0.00     0.044 C 
BRANCH  21  23
HETATM   23  O   UNL     1      43.549 -19.754   6.788  1.00  0.00    -0.391 OA
HETATM   24  H   UNL     1      43.845 -19.634   7.705  1.00  0.00     0.210 HD
ENDBRANCH  21  23
ENDBRANCH  17  21
ENDBRANCH  12  15
ENDBRANCH   6  11
BRANCH   8  25
HETATM   25  C   UNL     1      40.727 -14.889  -2.840  1.00  0.00     0.409 C 
HETATM   26  F   UNL     1      41.917 -14.266  -2.778  1.00  0.00    -0.169 F 
HETATM   27  F   UNL     1      40.971 -16.212  -2.994  1.00  0.00    -0.169 F 
HETATM   28  F   UNL     1      40.120 -14.485  -3.986  1.00  0.00    -0.169 F 
ENDBRANCH   8  25
BRANCH   1  29
HETATM   29  C   UNL     1      40.431 -11.376  -2.448  1.00  0.00    -0.035 A 
HETATM   30  C   UNL     1      41.699 -10.843  -2.170  1.00  0.00     0.010 A 
HETATM   31  C   UNL     1      42.452 -10.209  -3.163  1.00  0.00     0.007 A 
HETATM   32  C   UNL     1      41.948 -10.077  -4.459  1.00  0.00    -0.062 A 
HETATM   33  C   UNL     1      42.750  -9.404  -5.532  1.00  0.00     0.048 C 
HETATM   34  C   UNL     1      40.687 -10.603  -4.749  1.00  0.00     0.007 A 
HETATM   35  C   UNL     1      39.938 -11.244  -3.757  1.00  0.00     0.010 A 
ENDBRANCH   1  29
TORSDOF 6
ENDMDL
MODEL 8
REMARK VINA RESULT:      -8.9      5.592      9.164
REMARK  6 active torsions:
REMARK  status: ('A' for Active; 'I' for Inactive)
REMARK    1  A    between atoms: C_5  and  C_6 
REMARK    2  A    between atoms: C_11  and  C_12 
REMARK       I    between atoms: C_12  and  N_13 
REMARK    3  A    between atoms: N_13  and  C_14 
REMARK    4  A    between atoms: C_16  and  C_17 
REMARK    5  A    between atoms: C_17  and  O_18 
REMARK    6  A    between atoms: C_25  and  C_26 
ROOT
HETATM    1  C   UNL     1      40.961 -11.248   1.518  1.00  0.00     0.118 C 
HETATM    2  N   UNL     1      41.887 -12.024   2.337  1.00  0.00    -0.366 N 
HETATM    3  C   UNL     1      41.582 -13.264   2.772  1.00  0.00     0.123 A 
HETATM    4  N   UNL     1      40.323 -13.782   2.657  1.00  0.00    -0.240 N 
HETATM    5  N   UNL     1      40.186 -15.006   3.206  1.00  0.00    -0.165 NA
HETATM    6  C   UNL     1      41.446 -15.322   3.586  1.00  0.00     0.148 A 
HETATM    7  C   UNL     1      42.340 -14.243   3.356  1.00  0.00     0.089 A 
HETATM    8  C   UNL     1      39.212 -13.098   2.025  1.00  0.00     0.221 C 
HETATM    9  C   UNL     1      39.505 -11.592   1.879  1.00  0.00     0.066 C 
HETATM   10  H   UNL     1      42.860 -11.723   2.281  1.00  0.00     0.161 HD
ENDROOT
BRANCH   6  11
HETATM   11  C   UNL     1      41.797 -16.638   4.149  1.00  0.00     0.276 C 
HETATM   12  N   UNL     1      42.927 -17.172   3.563  1.00  0.00    -0.322 N 
HETATM   13  H   UNL     1      43.294 -16.612   2.797  1.00  0.00     0.169 HD
HETATM   14  O   UNL     1      41.118 -17.152   5.032  1.00  0.00    -0.266 OA
BRANCH  12  15
HETATM   15  C   UNL     1      43.601 -18.358   3.900  1.00  0.00     0.035 A 
HETATM   16  C   UNL     1      43.508 -19.537   3.154  1.00  0.00     0.039 A 
HETATM   17  C   UNL     1      44.181 -20.709   3.550  1.00  0.00    -0.028 A 
HETATM   18  C   UNL     1      44.973 -20.668   4.704  1.00  0.00     0.010 A 
HETATM   19  C   UNL     1      45.072 -19.497   5.455  1.00  0.00     0.003 A 
HETATM   20  C   UNL     1      44.381 -18.351   5.060  1.00  0.00     0.029 A 
BRANCH  17  21
HETATM   21  C   UNL     1      44.030 -21.963   2.717  1.00  0.00     0.147 C 
HETATM   22  C   UNL     1      44.466 -21.741   1.274  1.00  0.00     0.044 C 
BRANCH  21  23
HETATM   23  O   UNL     1      44.795 -23.034   3.270  1.00  0.00    -0.391 OA
HETATM   24  H   UNL     1      44.918 -23.687   2.562  1.00  0.00     0.210 HD
ENDBRANCH  21  23
ENDBRANCH  17  21
ENDBRANCH  12  15
ENDBRANCH   6  11
BRANCH   8  25
HETATM   25  C   UNL     1      38.849 -13.777   0.722  1.00  0.00     0.409 C 
HETATM   26  F   UNL     1      39.901 -14.296   0.064  1.00  0.00    -0.169 F 
HETATM   27  F   UNL     1      37.956 -14.778   0.909  1.00  0.00    -0.169 F 
HETATM   28  F   UNL     1      38.248 -12.892  -0.114  1.00  0.00    -0.169 F 
ENDBRANCH   8  25
BRANCH   1  29
HETATM   29  C   UNL     1      41.295 -11.301   0.038  1.00  0.00    -0.035 A 
HETATM   30  C   UNL     1      42.457 -11.907  -0.466  1.00  0.00     0.010 A 
HETATM   31  C   UNL     1      42.736 -11.911  -1.835  1.00  0.00     0.007 A 
HETATM   32  C   UNL     1      41.867 -11.293  -2.738  1.00  0.00    -0.062 A 
HETATM   33  C   UNL     1      42.156 -11.297  -4.209  1.00  0.00     0.048 C 
HETATM   34  C   UNL     1      40.707 -10.686  -2.250  1.00  0.00     0.007 A 
HETATM   35  C   UNL     1      40.425 -10.689  -0.880  1.00  0.00     0.010 A 
ENDBRANCH   1  29
TORSDOF 6
ENDMDL
MODEL 9
REMARK VINA RESULT:      -8.8      6.164      9.273
REMARK  6 active torsions:
REMARK  status: ('A' for Active; 'I' for Inactive)
REMARK    1  A    between atoms: C_5  and  C_6 
REMARK    2  A    between atoms: C_11  and  C_12 
REMARK       I    between atoms: C_12  and  N_13 
REMARK    3  A    between atoms: N_13  and  C_14 
REMARK    4  A    between atoms: C_16  and  C_17 
REMARK    5  A    between atoms: C_17  and  O_18 
REMARK    6  A    between atoms: C_25  and  C_26 
ROOT
HETATM    1  C   UNL     1      40.910 -16.844   3.317  1.00  0.00     0.118 C 
HETATM    2  N   UNL     1      40.610 -16.387   1.963  1.00  0.00    -0.366 N 
HETATM    3  C   UNL     1      41.071 -15.209   1.493  1.00  0.00     0.123 A 
HETATM    4  N   UNL     1      41.658 -14.283   2.309  1.00  0.00    -0.240 N 
HETATM    5  N   UNL     1      41.995 -13.139   1.680  1.00  0.00    -0.165 NA
HETATM    6  C   UNL     1      41.709 -13.399   0.383  1.00  0.00     0.148 A 
HETATM    7  C   UNL     1      41.102 -14.674   0.233  1.00  0.00     0.089 A 
HETATM    8  C   UNL     1      41.895 -14.477   3.726  1.00  0.00     0.221 C 
HETATM    9  C   UNL     1      41.048 -15.644   4.272  1.00  0.00     0.066 C 
HETATM   10  H   UNL     1      40.330 -17.124   1.318  1.00  0.00     0.161 HD
ENDROOT
BRANCH   6  11
HETATM   11  C   UNL     1      42.022 -12.451  -0.702  1.00  0.00     0.276 C 
HETATM   12  N   UNL     1      41.265 -12.685  -1.833  1.00  0.00    -0.322 N 
HETATM   13  H   UNL     1      40.670 -13.507  -1.765  1.00  0.00     0.169 HD
HETATM   14  O   UNL     1      42.872 -11.579  -0.557  1.00  0.00    -0.266 OA
BRANCH  12  15
HETATM   15  C   UNL     1      41.229 -11.936  -3.021  1.00  0.00     0.035 A 
HETATM   16  C   UNL     1      40.052 -11.424  -3.575  1.00  0.00     0.039 A 
HETATM   17  C   UNL     1      40.064 -10.704  -4.785  1.00  0.00    -0.028 A 
HETATM   18  C   UNL     1      41.292 -10.483  -5.420  1.00  0.00     0.010 A 
HETATM   19  C   UNL     1      42.472 -10.990  -4.876  1.00  0.00     0.003 A 
HETATM   20  C   UNL     1      42.438 -11.720  -3.687  1.00  0.00     0.029 A 
BRANCH  17  21
HETATM   21  C   UNL     1      38.758 -10.189  -5.351  1.00  0.00     0.147 C 
HETATM   22  C   UNL     1      38.887  -9.816  -6.822  1.00  0.00     0.044 C 
BRANCH  21  23
HETATM   23  O   UNL     1      37.726 -11.166  -5.211  1.00  0.00    -0.391 OA
HETATM   24  H   UNL     1      38.086 -11.877  -4.656  1.00  0.00     0.210 HD
ENDBRANCH  21  23
ENDBRANCH  17  21
ENDBRANCH  12  15
ENDBRANCH   6  11
BRANCH   8  25
HETATM   25  C   UNL     1      43.377 -14.620   3.997  1.00  0.00     0.409 C 
HETATM   26  F   UNL     1      44.026 -13.449   4.119  1.00  0.00    -0.169 F 
HETATM   27  F   UNL     1      43.615 -15.333   5.123  1.00  0.00    -0.169 F 
HETATM   28  F   UNL     1      43.971 -15.307   2.987  1.00  0.00    -0.169 F 
ENDBRANCH   8  25
BRANCH   1  29
HETATM   29  C   UNL     1      42.049 -17.847   3.364  1.00  0.00    -0.035 A 
HETATM   30  C   UNL     1      42.605 -18.429   2.214  1.00  0.00     0.010 A 
HETATM   31  C   UNL     1      43.636 -19.368   2.305  1.00  0.00     0.007 A 
HETATM   32  C   UNL     1      44.128 -19.763   3.552  1.00  0.00    -0.062 A 
HETATM   33  C   UNL     1      45.238 -20.765   3.659  1.00  0.00     0.048 C 
HETATM   34  C   UNL     1      43.583 -19.192   4.704  1.00  0.00     0.007 A 
HETATM   35  C   UNL     1      42.556 -18.246   4.611  1.00  0.00     0.010 A 
ENDBRANCH   1  29
TORSDOF 6
ENDMDL
MODEL 10
REMARK VINA RESULT:      -8.6      5.462      8.191
REMARK  6 active torsions:
REMARK  status: ('A' for Active; 'I' for Inactive)
REMARK    1  A    between atoms: C_5  and  C_6 
REMARK    2  A    between atoms: C_11  and  C_12 
REMARK       I    between atoms: C_12  and  N_13 
REMARK    3  A    between atoms: N_13  and  C_14 
REMARK    4  A    between atoms: C_16  and  C_17 
REMARK    5  A    between atoms: C_17  and  O_18 
REMARK    6  A    between atoms: C_25  and  C_26 
ROOT
HETATM    1  C   UNL     1      40.937 -16.943   4.478  1.00  0.00     0.118 C 
HETATM    2  N   UNL     1      40.221 -16.683   3.232  1.00  0.00    -0.366 N 
HETATM    3  C   UNL     1      40.440 -15.566   2.508  1.00  0.00     0.123 A 
HETATM    4  N   UNL     1      41.175 -14.521   2.991  1.00  0.00    -0.240 N 
HETATM    5  N   UNL     1      41.232 -13.463   2.158  1.00  0.00    -0.165 NA
HETATM    6  C   UNL     1      40.596 -13.905   1.048  1.00  0.00     0.148 A 
HETATM    7  C   UNL     1      40.062 -15.206   1.242  1.00  0.00     0.089 A 
HETATM    8  C   UNL     1      41.831 -14.514   4.284  1.00  0.00     0.221 C 
HETATM    9  C   UNL     1      41.266 -15.621   5.195  1.00  0.00     0.066 C 
HETATM   10  H   UNL     1      39.816 -17.510   2.794  1.00  0.00     0.161 HD
ENDROOT
BRANCH   6  11
HETATM   11  C   UNL     1      40.509 -13.103  -0.186  1.00  0.00     0.276 C 
HETATM   12  N   UNL     1      41.705 -12.487  -0.494  1.00  0.00    -0.322 N 
HETATM   13  H   UNL     1      42.429 -12.625   0.208  1.00  0.00     0.169 HD
HETATM   14  O   UNL     1      39.461 -13.026  -0.820  1.00  0.00    -0.266 OA
BRANCH  12  15
HETATM   15  C   UNL     1      42.020 -11.723  -1.630  1.00  0.00     0.035 A 
HETATM   16  C   UNL     1      42.223 -10.340  -1.598  1.00  0.00     0.039 A 
HETATM   17  C   UNL     1      42.507  -9.614  -2.770  1.00  0.00    -0.028 A 
HETATM   18  C   UNL     1      42.610 -10.311  -3.980  1.00  0.00     0.010 A 
HETATM   19  C   UNL     1      42.409 -11.690  -4.023  1.00  0.00     0.003 A 
HETATM   20  C   UNL     1      42.106 -12.390  -2.855  1.00  0.00     0.029 A 
BRANCH  17  21
HETATM   21  C   UNL     1      42.698  -8.115  -2.682  1.00  0.00     0.147 C 
HETATM   22  C   UNL     1      41.446  -7.415  -2.167  1.00  0.00     0.044 C 
BRANCH  21  23
HETATM   23  O   UNL     1      43.791  -7.793  -1.823  1.00  0.00    -0.391 OA
HETATM   24  H   UNL     1      44.565  -7.654  -2.394  1.00  0.00     0.210 HD
ENDBRANCH  21  23
ENDBRANCH  17  21
ENDBRANCH  12  15
ENDBRANCH   6  11
BRANCH   8  25
HETATM   25  C   UNL     1      43.334 -14.574   4.112  1.00  0.00     0.409 C 
HETATM   26  F   UNL     1      43.918 -13.370   3.981  1.00  0.00    -0.169 F 
HETATM   27  F   UNL     1      43.933 -15.203   5.150  1.00  0.00    -0.169 F 
HETATM   28  F   UNL     1      43.647 -15.296   3.005  1.00  0.00    -0.169 F 
ENDBRANCH   8  25
BRANCH   1  29
HETATM   29  C   UNL     1      42.106 -17.896   4.300  1.00  0.00    -0.035 A 
HETATM   30  C   UNL     1      42.538 -18.353   3.045  1.00  0.00     0.010 A 
HETATM   31  C   UNL     1      43.604 -19.250   2.930  1.00  0.00     0.007 A 
HETATM   32  C   UNL     1      44.256 -19.727   4.069  1.00  0.00    -0.062 A 
HETATM   33  C   UNL     1      45.403 -20.686   3.955  1.00  0.00     0.048 C 
HETATM   34  C   UNL     1      43.835 -19.281   5.324  1.00  0.00     0.007 A 
HETATM   35  C   UNL     1      42.773 -18.377   5.438  1.00  0.00     0.010 A 
ENDBRANCH   1  29
TORSDOF 6
ENDMDL
