MODEL 1
REMARK VINA RESULT:      -8.1      0.000      0.000
REMARK  4 active torsions:
REMARK  status: ('A' for Active; 'I' for Inactive)
REMARK    1  A    between atoms: C_9  and  C_10 
REMARK    2  A    between atoms: C_17  and  C_18 
REMARK       I    between atoms: C_18  and  N_19 
REMARK    3  A    between atoms: N_19  and  C_20 
REMARK    4  A    between atoms: C_23  and  O_24 
ROOT
HETATM    1  C   UNL     1      44.262 -14.891   6.911  1.00  0.00     0.070 C 
HETATM    2  C   UNL     1      43.071 -14.270   6.222  1.00  0.00     0.037 C 
HETATM    3  N   UNL     1      42.834 -12.933   6.532  1.00  0.00    -0.192 N 
HETATM    4  C   UNL     1      41.656 -12.325   6.282  1.00  0.00     0.725 A 
HETATM    5  N   UNL     1      40.728 -12.961   5.503  1.00  0.00    -0.084 N 
HETATM    6  N   UNL     1      39.580 -12.255   5.432  1.00  0.00    -0.149 NA
HETATM    7  C   UNL     1      39.908 -11.181   6.160  1.00  0.00     0.275 A 
HETATM    8  N   UNL     1      41.172 -11.182   6.692  1.00  0.00    -0.054 NA
HETATM    9  C   UNL     1      40.949 -14.264   4.866  1.00  0.00     0.202 C 
HETATM   10  C   UNL     1      42.202 -14.937   5.419  1.00  0.00     0.062 C 
HETATM   11  H   UNL     1      43.445 -12.497   7.219  1.00  0.00     0.184 HD
ENDROOT
BRANCH  10  12
HETATM   12  C   UNL     1      42.269 -16.397   5.134  1.00  0.00     0.256 C 
HETATM   13  N   UNL     1      43.129 -16.737   4.114  1.00  0.00    -0.323 N 
HETATM   14  H   UNL     1      43.573 -15.980   3.610  1.00  0.00     0.169 HD
HETATM   15  O   UNL     1      41.547 -17.149   5.778  1.00  0.00    -0.267 OA
BRANCH  13  16
HETATM   16  C   UNL     1      43.501 -18.041   3.719  1.00  0.00     0.035 A 
HETATM   17  C   UNL     1      44.308 -18.887   4.480  1.00  0.00     0.032 A 
HETATM   18  C   UNL     1      44.657 -20.154   4.001  1.00  0.00     0.039 A 
HETATM   19  C   UNL     1      44.209 -20.601   2.758  1.00  0.00     0.068 A 
HETATM   20  C   UNL     1      43.406 -19.762   1.990  1.00  0.00     0.039 A 
HETATM   21  C   UNL     1      43.051 -18.492   2.471  1.00  0.00     0.032 A 
BRANCH  19  22
HETATM   22  O   UNL     1      44.629 -21.855   2.415  1.00  0.00    -0.356 OA
HETATM   23  C   UNL     1      44.700 -22.819   3.458  1.00  0.00     0.210 C 
ENDBRANCH  19  22
ENDBRANCH  13  16
ENDBRANCH  10  12
BRANCH   9  24
HETATM   24  C   UNL     1      41.007 -14.106   3.344  1.00  0.00    -0.028 A 
HETATM   25  C   UNL     1      40.109 -14.777   2.492  1.00  0.00     0.011 A 
HETATM   26  C   UNL     1      40.199 -14.631   1.106  1.00  0.00     0.024 A 
HETATM   27  C   UNL     1      41.176 -13.803   0.557  1.00  0.00     0.034 A 
HETATM   28 CL   UNL     1      41.291 -13.635  -1.151  1.00  0.00    -0.084 Cl
HETATM   29  C   UNL     1      42.058 -13.114   1.384  1.00  0.00     0.024 A 
HETATM   30  C   UNL     1      41.972 -13.260   2.771  1.00  0.00     0.011 A 
ENDBRANCH   9  24
TORSDOF 4
ENDMDL
MODEL 2
REMARK VINA RESULT:      -7.8      3.446      6.589
REMARK  4 active torsions:
REMARK  status: ('A' for Active; 'I' for Inactive)
REMARK    1  A    between atoms: C_9  and  C_10 
REMARK    2  A    between atoms: C_17  and  C_18 
REMARK       I    between atoms: C_18  and  N_19 
REMARK    3  A    between atoms: N_19  and  C_20 
REMARK    4  A    between atoms: C_23  and  O_24 
ROOT
HETATM    1  C   UNL     1      40.240 -15.473   5.505  1.00  0.00     0.070 C 
HETATM    2  C   UNL     1      41.513 -16.283   5.555  1.00  0.00     0.037 C 
HETATM    3  N   UNL     1      41.772 -16.911   6.771  1.00  0.00    -0.192 N 
HETATM    4  C   UNL     1      42.991 -17.386   7.100  1.00  0.00     0.725 A 
HETATM    5  N   UNL     1      43.962 -17.459   6.139  1.00  0.00    -0.084 N 
HETATM    6  N   UNL     1      45.137 -17.869   6.659  1.00  0.00    -0.149 NA
HETATM    7  C   UNL     1      44.786 -18.065   7.935  1.00  0.00     0.275 A 
HETATM    8  N   UNL     1      43.479 -17.787   8.245  1.00  0.00    -0.054 NA
HETATM    9  C   UNL     1      43.751 -17.096   4.733  1.00  0.00     0.202 C 
HETATM   10  C   UNL     1      42.426 -16.359   4.552  1.00  0.00     0.062 C 
HETATM   11  H   UNL     1      41.117 -16.745   7.532  1.00  0.00     0.184 HD
ENDROOT
BRANCH  10  12
HETATM   12  C   UNL     1      42.330 -15.615   3.267  1.00  0.00     0.256 C 
HETATM   13  N   UNL     1      41.307 -16.034   2.444  1.00  0.00    -0.323 N 
HETATM   14  H   UNL     1      40.771 -16.838   2.744  1.00  0.00     0.169 HD
HETATM   15  O   UNL     1      43.165 -14.750   3.031  1.00  0.00    -0.267 OA
BRANCH  13  16
HETATM   16  C   UNL     1      40.889 -15.429   1.238  1.00  0.00     0.035 A 
HETATM   17  C   UNL     1      39.921 -14.428   1.162  1.00  0.00     0.032 A 
HETATM   18  C   UNL     1      39.539 -13.903  -0.078  1.00  0.00     0.039 A 
HETATM   19  C   UNL     1      40.114 -14.366  -1.261  1.00  0.00     0.068 A 
HETATM   20  C   UNL     1      41.078 -15.369  -1.194  1.00  0.00     0.039 A 
HETATM   21  C   UNL     1      41.465 -15.893   0.048  1.00  0.00     0.032 A 
BRANCH  19  22
HETATM   22  O   UNL     1      39.645 -13.769  -2.397  1.00  0.00    -0.356 OA
HETATM   23  C   UNL     1      40.519 -13.738  -3.517  1.00  0.00     0.210 C 
ENDBRANCH  19  22
ENDBRANCH  13  16
ENDBRANCH  10  12
BRANCH   9  24
HETATM   24  C   UNL     1      43.840 -18.341   3.846  1.00  0.00    -0.028 A 
HETATM   25  C   UNL     1      43.467 -18.315   2.489  1.00  0.00     0.011 A 
HETATM   26  C   UNL     1      43.537 -19.471   1.708  1.00  0.00     0.024 A 
HETATM   27  C   UNL     1      43.996 -20.660   2.270  1.00  0.00     0.034 A 
HETATM   28 CL   UNL     1      44.071 -22.085   1.309  1.00  0.00    -0.084 Cl
HETATM   29  C   UNL     1      44.391 -20.700   3.604  1.00  0.00     0.024 A 
HETATM   30  C   UNL     1      44.318 -19.546   4.388  1.00  0.00     0.011 A 
ENDBRANCH   9  24
TORSDOF 4
ENDMDL
MODEL 3
REMARK VINA RESULT:      -7.7      3.803      5.503
REMARK  4 active torsions:
REMARK  status: ('A' for Active; 'I' for Inactive)
REMARK    1  A    between atoms: C_9  and  C_10 
REMARK    2  A    between atoms: C_17  and  C_18 
REMARK       I    between atoms: C_18  and  N_19 
REMARK    3  A    between atoms: N_19  and  C_20 
REMARK    4  A    between atoms: C_23  and  O_24 
ROOT
HETATM    1  C   UNL     1      40.820 -15.869  -2.368  1.00  0.00     0.070 C 
HETATM    2  C   UNL     1      41.231 -14.599  -1.663  1.00  0.00     0.037 C 
HETATM    3  N   UNL     1      41.347 -13.476  -2.479  1.00  0.00    -0.192 N 
HETATM    4  C   UNL     1      42.008 -12.364  -2.098  1.00  0.00     0.725 A 
HETATM    5  N   UNL     1      42.397 -12.232  -0.793  1.00  0.00    -0.084 N 
HETATM    6  N   UNL     1      43.122 -11.109  -0.608  1.00  0.00    -0.149 NA
HETATM    7  C   UNL     1      43.092 -10.592  -1.841  1.00  0.00     0.275 A 
HETATM    8  N   UNL     1      42.414 -11.326  -2.781  1.00  0.00    -0.054 NA
HETATM    9  C   UNL     1      42.094 -13.214   0.255  1.00  0.00     0.202 C 
HETATM   10  C   UNL     1      41.565 -14.512  -0.349  1.00  0.00     0.062 C 
HETATM   11  H   UNL     1      41.190 -13.605  -3.476  1.00  0.00     0.184 HD
ENDROOT
BRANCH  10  12
HETATM   12  C   UNL     1      41.621 -15.669   0.585  1.00  0.00     0.256 C 
HETATM   13  N   UNL     1      42.887 -16.169   0.793  1.00  0.00    -0.323 N 
HETATM   14  H   UNL     1      43.640 -15.765   0.251  1.00  0.00     0.169 HD
HETATM   15  O   UNL     1      40.569 -16.098   1.044  1.00  0.00    -0.267 OA
BRANCH  13  16
HETATM   16  C   UNL     1      43.263 -17.162   1.725  1.00  0.00     0.035 A 
HETATM   17  C   UNL     1      43.503 -18.495   1.391  1.00  0.00     0.032 A 
HETATM   18  C   UNL     1      43.841 -19.424   2.381  1.00  0.00     0.039 A 
HETATM   19  C   UNL     1      43.945 -19.043   3.719  1.00  0.00     0.068 A 
HETATM   20  C   UNL     1      43.704 -17.714   4.061  1.00  0.00     0.039 A 
HETATM   21  C   UNL     1      43.369 -16.780   3.069  1.00  0.00     0.032 A 
BRANCH  19  22
HETATM   22  O   UNL     1      44.278 -20.052   4.578  1.00  0.00    -0.356 OA
HETATM   23  C   UNL     1      44.053 -19.821   5.962  1.00  0.00     0.210 C 
ENDBRANCH  19  22
ENDBRANCH  13  16
ENDBRANCH  10  12
BRANCH   9  24
HETATM   24  C   UNL     1      41.121 -12.616   1.274  1.00  0.00    -0.028 A 
HETATM   25  C   UNL     1      39.789 -12.308   0.937  1.00  0.00     0.011 A 
HETATM   26  C   UNL     1      38.928 -11.743   1.880  1.00  0.00     0.024 A 
HETATM   27  C   UNL     1      39.382 -11.494   3.173  1.00  0.00     0.034 A 
HETATM   28 CL   UNL     1      38.323 -10.788   4.329  1.00  0.00    -0.084 Cl
HETATM   29  C   UNL     1      40.689 -11.814   3.532  1.00  0.00     0.024 A 
HETATM   30  C   UNL     1      41.553 -12.376   2.589  1.00  0.00     0.011 A 
ENDBRANCH   9  24
TORSDOF 4
ENDMDL
MODEL 4
REMARK VINA RESULT:      -7.7      1.729      2.299
REMARK  4 active torsions:
REMARK  status: ('A' for Active; 'I' for Inactive)
REMARK    1  A    between atoms: C_9  and  C_10 
REMARK    2  A    between atoms: C_17  and  C_18 
REMARK       I    between atoms: C_18  and  N_19 
REMARK    3  A    between atoms: N_19  and  C_20 
REMARK    4  A    between atoms: C_23  and  O_24 
ROOT
HETATM    1  C   UNL     1      43.331 -13.666   5.304  1.00  0.00     0.070 C 
HETATM    2  C   UNL     1      42.286 -13.209   4.315  1.00  0.00     0.037 C 
HETATM    3  N   UNL     1      42.010 -11.844   4.330  1.00  0.00    -0.192 N 
HETATM    4  C   UNL     1      40.900 -11.320   3.770  1.00  0.00     0.725 A 
HETATM    5  N   UNL     1      40.119 -12.107   2.969  1.00  0.00    -0.084 N 
HETATM    6  N   UNL     1      39.009 -11.454   2.569  1.00  0.00    -0.149 NA
HETATM    7  C   UNL     1      39.211 -10.259   3.136  1.00  0.00     0.275 A 
HETATM    8  N   UNL     1      40.360 -10.134   3.874  1.00  0.00    -0.054 NA
HETATM    9  C   UNL     1      40.439 -13.499   2.627  1.00  0.00     0.202 C 
HETATM   10  C   UNL     1      41.568 -14.031   3.506  1.00  0.00     0.062 C 
HETATM   11  H   UNL     1      42.493 -11.277   5.023  1.00  0.00     0.184 HD
ENDROOT
BRANCH  10  12
HETATM   12  C   UNL     1      41.672 -15.515   3.508  1.00  0.00     0.256 C 
HETATM   13  N   UNL     1      42.807 -16.005   2.901  1.00  0.00    -0.323 N 
HETATM   14  H   UNL     1      43.420 -15.335   2.454  1.00  0.00     0.169 HD
HETATM   15  O   UNL     1      40.751 -16.163   3.992  1.00  0.00    -0.267 OA
BRANCH  13  16
HETATM   16  C   UNL     1      43.241 -17.349   2.875  1.00  0.00     0.035 A 
HETATM   17  C   UNL     1      43.083 -18.200   1.781  1.00  0.00     0.032 A 
HETATM   18  C   UNL     1      43.513 -19.530   1.848  1.00  0.00     0.039 A 
HETATM   19  C   UNL     1      44.107 -20.035   3.005  1.00  0.00     0.068 A 
HETATM   20  C   UNL     1      44.265 -19.194   4.103  1.00  0.00     0.039 A 
HETATM   21  C   UNL     1      43.838 -17.858   4.036  1.00  0.00     0.032 A 
BRANCH  19  22
HETATM   22  O   UNL     1      44.474 -21.349   2.933  1.00  0.00    -0.356 OA
HETATM   23  C   UNL     1      44.272 -22.007   1.689  1.00  0.00     0.210 C 
ENDBRANCH  19  22
ENDBRANCH  13  16
ENDBRANCH  10  12
BRANCH   9  24
HETATM   24  C   UNL     1      40.768 -13.616   1.137  1.00  0.00    -0.028 A 
HETATM   25  C   UNL     1      40.104 -14.531   0.299  1.00  0.00     0.011 A 
HETATM   26  C   UNL     1      40.440 -14.633  -1.053  1.00  0.00     0.024 A 
HETATM   27  C   UNL     1      41.431 -13.811  -1.585  1.00  0.00     0.034 A 
HETATM   28 CL   UNL     1      41.850 -13.946  -3.248  1.00  0.00    -0.084 Cl
HETATM   29  C   UNL     1      42.083 -12.884  -0.777  1.00  0.00     0.024 A 
HETATM   30  C   UNL     1      41.751 -12.783   0.576  1.00  0.00     0.011 A 
ENDBRANCH   9  24
TORSDOF 4
ENDMDL
MODEL 5
REMARK VINA RESULT:      -7.7      3.379      6.309
REMARK  4 active torsions:
REMARK  status: ('A' for Active; 'I' for Inactive)
REMARK    1  A    between atoms: C_9  and  C_10 
REMARK    2  A    between atoms: C_17  and  C_18 
REMARK       I    between atoms: C_18  and  N_19 
REMARK    3  A    between atoms: N_19  and  C_20 
REMARK    4  A    between atoms: C_23  and  O_24 
ROOT
HETATM    1  C   UNL     1      43.941 -17.959   1.734  1.00  0.00     0.070 C 
HETATM    2  C   UNL     1      43.381 -17.493   3.056  1.00  0.00     0.037 C 
HETATM    3  N   UNL     1      44.150 -17.810   4.173  1.00  0.00    -0.192 N 
HETATM    4  C   UNL     1      43.659 -17.772   5.429  1.00  0.00     0.725 A 
HETATM    5  N   UNL     1      42.438 -17.197   5.653  1.00  0.00    -0.084 N 
HETATM    6  N   UNL     1      42.063 -17.326   6.942  1.00  0.00    -0.149 NA
HETATM    7  C   UNL     1      43.131 -17.954   7.446  1.00  0.00     0.275 A 
HETATM    8  N   UNL     1      44.133 -18.239   6.554  1.00  0.00    -0.054 NA
HETATM    9  C   UNL     1      41.629 -16.560   4.607  1.00  0.00     0.202 C 
HETATM   10  C   UNL     1      42.178 -16.883   3.220  1.00  0.00     0.062 C 
HETATM   11  H   UNL     1      44.993 -18.359   4.020  1.00  0.00     0.184 HD
ENDROOT
BRANCH  10  12
HETATM   12  C   UNL     1      41.208 -16.625   2.121  1.00  0.00     0.256 C 
HETATM   13  N   UNL     1      41.553 -15.581   1.292  1.00  0.00    -0.323 N 
HETATM   14  H   UNL     1      42.377 -15.046   1.539  1.00  0.00     0.169 HD
HETATM   15  O   UNL     1      40.193 -17.309   2.068  1.00  0.00    -0.267 OA
BRANCH  13  16
HETATM   16  C   UNL     1      40.906 -15.199   0.096  1.00  0.00     0.035 A 
HETATM   17  C   UNL     1      39.862 -14.276   0.034  1.00  0.00     0.032 A 
HETATM   18  C   UNL     1      39.253 -13.976  -1.189  1.00  0.00     0.039 A 
HETATM   19  C   UNL     1      39.672 -14.589  -2.370  1.00  0.00     0.068 A 
HETATM   20  C   UNL     1      40.712 -15.514  -2.316  1.00  0.00     0.039 A 
HETATM   21  C   UNL     1      41.327 -15.813  -1.091  1.00  0.00     0.032 A 
BRANCH  19  22
HETATM   22  O   UNL     1      38.987 -14.205  -3.488  1.00  0.00    -0.356 OA
HETATM   23  C   UNL     1      37.918 -15.043  -3.908  1.00  0.00     0.210 C 
ENDBRANCH  19  22
ENDBRANCH  13  16
ENDBRANCH  10  12
BRANCH   9  24
HETATM   24  C   UNL     1      41.541 -15.052   4.852  1.00  0.00    -0.028 A 
HETATM   25  C   UNL     1      42.594 -14.181   4.514  1.00  0.00     0.011 A 
HETATM   26  C   UNL     1      42.496 -12.811   4.769  1.00  0.00     0.024 A 
HETATM   27  C   UNL     1      41.339 -12.295   5.349  1.00  0.00     0.034 A 
HETATM   28 CL   UNL     1      41.226 -10.609   5.671  1.00  0.00    -0.084 Cl
HETATM   29  C   UNL     1      40.278 -13.137   5.669  1.00  0.00     0.024 A 
HETATM   30  C   UNL     1      40.375 -14.507   5.418  1.00  0.00     0.011 A 
ENDBRANCH   9  24
TORSDOF 4
ENDMDL
MODEL 6
REMARK VINA RESULT:      -7.4      3.359      6.027
REMARK  4 active torsions:
REMARK  status: ('A' for Active; 'I' for Inactive)
REMARK    1  A    between atoms: C_9  and  C_10 
REMARK    2  A    between atoms: C_17  and  C_18 
REMARK       I    between atoms: C_18  and  N_19 
REMARK    3  A    between atoms: N_19  and  C_20 
REMARK    4  A    between atoms: C_23  and  O_24 
ROOT
HETATM    1  C   UNL     1      39.342 -13.983   5.295  1.00  0.00     0.070 C 
HETATM    2  C   UNL     1      40.800 -14.299   5.067  1.00  0.00     0.037 C 
HETATM    3  N   UNL     1      41.633 -14.089   6.164  1.00  0.00    -0.192 N 
HETATM    4  C   UNL     1      42.975 -13.998   6.052  1.00  0.00     0.725 A 
HETATM    5  N   UNL     1      43.572 -14.337   4.869  1.00  0.00    -0.084 N 
HETATM    6  N   UNL     1      44.900 -14.102   4.904  1.00  0.00    -0.149 NA
HETATM    7  C   UNL     1      45.037 -13.659   6.159  1.00  0.00     0.275 A 
HETATM    8  N   UNL     1      43.884 -13.587   6.897  1.00  0.00    -0.054 NA
HETATM    9  C   UNL     1      42.845 -14.853   3.703  1.00  0.00     0.202 C 
HETATM   10  C   UNL     1      41.338 -14.678   3.878  1.00  0.00     0.062 C 
HETATM   11  H   UNL     1      41.210 -13.704   7.005  1.00  0.00     0.184 HD
ENDROOT
BRANCH  10  12
HETATM   12  C   UNL     1      40.574 -14.793   2.606  1.00  0.00     0.256 C 
HETATM   13  N   UNL     1      41.198 -14.228   1.516  1.00  0.00    -0.323 N 
HETATM   14  H   UNL     1      42.064 -13.732   1.684  1.00  0.00     0.169 HD
HETATM   15  O   UNL     1      39.470 -15.324   2.637  1.00  0.00    -0.267 OA
BRANCH  13  16
HETATM   16  C   UNL     1      40.783 -14.306   0.168  1.00  0.00     0.035 A 
HETATM   17  C   UNL     1      39.845 -13.452  -0.411  1.00  0.00     0.032 A 
HETATM   18  C   UNL     1      39.465 -13.617  -1.747  1.00  0.00     0.039 A 
HETATM   19  C   UNL     1      40.011 -14.635  -2.529  1.00  0.00     0.068 A 
HETATM   20  C   UNL     1      40.946 -15.494  -1.957  1.00  0.00     0.039 A 
HETATM   21  C   UNL     1      41.332 -15.327  -0.619  1.00  0.00     0.032 A 
BRANCH  19  22
HETATM   22  O   UNL     1      39.547 -14.682  -3.813  1.00  0.00    -0.356 OA
HETATM   23  C   UNL     1      38.793 -15.828  -4.184  1.00  0.00     0.210 C 
ENDBRANCH  19  22
ENDBRANCH  13  16
ENDBRANCH  10  12
BRANCH   9  24
HETATM   24  C   UNL     1      43.226 -16.312   3.444  1.00  0.00    -0.028 A 
HETATM   25  C   UNL     1      43.077 -17.306   4.431  1.00  0.00     0.011 A 
HETATM   26  C   UNL     1      43.454 -18.626   4.175  1.00  0.00     0.024 A 
HETATM   27  C   UNL     1      43.969 -18.971   2.928  1.00  0.00     0.034 A 
HETATM   28 CL   UNL     1      44.443 -20.596   2.620  1.00  0.00    -0.084 Cl
HETATM   29  C   UNL     1      44.103 -18.008   1.932  1.00  0.00     0.024 A 
HETATM   30  C   UNL     1      43.730 -16.686   2.186  1.00  0.00     0.011 A 
ENDBRANCH   9  24
TORSDOF 4
ENDMDL
MODEL 7
REMARK VINA RESULT:      -7.1      2.495      3.479
REMARK  4 active torsions:
REMARK  status: ('A' for Active; 'I' for Inactive)
REMARK    1  A    between atoms: C_9  and  C_10 
REMARK    2  A    between atoms: C_17  and  C_18 
REMARK       I    between atoms: C_18  and  N_19 
REMARK    3  A    between atoms: N_19  and  C_20 
REMARK    4  A    between atoms: C_23  and  O_24 
ROOT
HETATM    1  C   UNL     1      40.621 -13.887   4.953  1.00  0.00     0.070 C 
HETATM    2  C   UNL     1      39.985 -13.399   3.673  1.00  0.00     0.037 C 
HETATM    3  N   UNL     1      39.391 -12.142   3.745  1.00  0.00    -0.192 N 
HETATM    4  C   UNL     1      38.508 -11.700   2.825  1.00  0.00     0.725 A 
HETATM    5  N   UNL     1      38.344 -12.404   1.664  1.00  0.00    -0.084 N 
HETATM    6  N   UNL     1      37.363 -11.875   0.903  1.00  0.00    -0.149 NA
HETATM    7  C   UNL     1      37.010 -10.825   1.654  1.00  0.00     0.275 A 
HETATM    8  N   UNL     1      37.692 -10.679   2.836  1.00  0.00    -0.054 NA
HETATM    9  C   UNL     1      39.114 -13.605   1.318  1.00  0.00     0.202 C 
HETATM   10  C   UNL     1      39.887 -14.124   2.528  1.00  0.00     0.062 C 
HETATM   11  H   UNL     1      39.393 -11.675   4.649  1.00  0.00     0.184 HD
ENDROOT
BRANCH  10  12
HETATM   12  C   UNL     1      40.353 -15.529   2.378  1.00  0.00     0.256 C 
HETATM   13  N   UNL     1      41.714 -15.693   2.512  1.00  0.00    -0.323 N 
HETATM   14  H   UNL     1      42.273 -14.857   2.625  1.00  0.00     0.169 HD
HETATM   15  O   UNL     1      39.525 -16.392   2.112  1.00  0.00    -0.267 OA
BRANCH  13  16
HETATM   16  C   UNL     1      42.419 -16.916   2.559  1.00  0.00     0.035 A 
HETATM   17  C   UNL     1      42.511 -17.722   3.695  1.00  0.00     0.032 A 
HETATM   18  C   UNL     1      43.257 -18.905   3.667  1.00  0.00     0.039 A 
HETATM   19  C   UNL     1      43.925 -19.306   2.510  1.00  0.00     0.068 A 
HETATM   20  C   UNL     1      43.842 -18.506   1.373  1.00  0.00     0.039 A 
HETATM   21  C   UNL     1      43.090 -17.321   1.398  1.00  0.00     0.032 A 
BRANCH  19  22
HETATM   22  O   UNL     1      44.618 -20.478   2.626  1.00  0.00    -0.356 OA
HETATM   23  C   UNL     1      44.061 -21.621   1.992  1.00  0.00     0.210 C 
ENDBRANCH  19  22
ENDBRANCH  13  16
ENDBRANCH  10  12
BRANCH   9  24
HETATM   24  C   UNL     1      40.034 -13.319   0.129  1.00  0.00    -0.028 A 
HETATM   25  C   UNL     1      39.755 -13.810  -1.161  1.00  0.00     0.011 A 
HETATM   26  C   UNL     1      40.624 -13.553  -2.224  1.00  0.00     0.024 A 
HETATM   27  C   UNL     1      41.771 -12.790  -2.014  1.00  0.00     0.034 A 
HETATM   28 CL   UNL     1      42.844 -12.485  -3.323  1.00  0.00    -0.084 Cl
HETATM   29  C   UNL     1      42.051 -12.277  -0.751  1.00  0.00     0.024 A 
HETATM   30  C   UNL     1      41.186 -12.536   0.315  1.00  0.00     0.011 A 
ENDBRANCH   9  24
TORSDOF 4
ENDMDL
MODEL 8
REMARK VINA RESULT:      -7.1      3.696      6.462
REMARK  4 active torsions:
REMARK  status: ('A' for Active; 'I' for Inactive)
REMARK    1  A    between atoms: C_9  and  C_10 
REMARK    2  A    between atoms: C_17  and  C_18 
REMARK       I    between atoms: C_18  and  N_19 
REMARK    3  A    between atoms: N_19  and  C_20 
REMARK    4  A    between atoms: C_23  and  O_24 
ROOT
HETATM    1  C   UNL     1      41.098 -17.750   1.066  1.00  0.00     0.070 C 
HETATM    2  C   UNL     1      40.953 -16.412   0.382  1.00  0.00     0.037 C 
HETATM    3  N   UNL     1      40.897 -16.457  -1.009  1.00  0.00    -0.192 N 
HETATM    4  C   UNL     1      41.102 -15.370  -1.782  1.00  0.00     0.725 A 
HETATM    5  N   UNL     1      41.151 -14.134  -1.198  1.00  0.00    -0.084 N 
HETATM    6  N   UNL     1      41.451 -13.176  -2.099  1.00  0.00    -0.149 NA
HETATM    7  C   UNL     1      41.528 -13.908  -3.217  1.00  0.00     0.275 A 
HETATM    8  N   UNL     1      41.314 -15.254  -3.067  1.00  0.00    -0.054 NA
HETATM    9  C   UNL     1      40.941 -13.897   0.235  1.00  0.00     0.202 C 
HETATM   10  C   UNL     1      40.963 -15.209   1.015  1.00  0.00     0.062 C 
HETATM   11  H   UNL     1      40.999 -17.368  -1.452  1.00  0.00     0.184 HD
ENDROOT
BRANCH  10  12
HETATM   12  C   UNL     1      41.164 -15.029   2.478  1.00  0.00     0.256 C 
HETATM   13  N   UNL     1      42.465 -15.202   2.898  1.00  0.00    -0.323 N 
HETATM   14  H   UNL     1      43.139 -15.501   2.205  1.00  0.00     0.169 HD
HETATM   15  O   UNL     1      40.185 -14.793   3.176  1.00  0.00    -0.267 OA
BRANCH  13  16
HETATM   16  C   UNL     1      42.977 -14.959   4.191  1.00  0.00     0.035 A 
HETATM   17  C   UNL     1      43.204 -13.686   4.714  1.00  0.00     0.032 A 
HETATM   18  C   UNL     1      43.745 -13.532   5.995  1.00  0.00     0.039 A 
HETATM   19  C   UNL     1      44.069 -14.641   6.777  1.00  0.00     0.068 A 
HETATM   20  C   UNL     1      43.849 -15.916   6.260  1.00  0.00     0.039 A 
HETATM   21  C   UNL     1      43.302 -16.072   4.977  1.00  0.00     0.032 A 
BRANCH  19  22
HETATM   22  O   UNL     1      44.592 -14.344   8.003  1.00  0.00    -0.356 OA
HETATM   23  C   UNL     1      44.914 -12.982   8.254  1.00  0.00     0.210 C 
ENDBRANCH  19  22
ENDBRANCH  13  16
ENDBRANCH  10  12
BRANCH   9  24
HETATM   24  C   UNL     1      39.643 -13.118   0.459  1.00  0.00    -0.028 A 
HETATM   25  C   UNL     1      39.645 -11.761   0.834  1.00  0.00     0.011 A 
HETATM   26  C   UNL     1      38.445 -11.081   1.053  1.00  0.00     0.024 A 
HETATM   27  C   UNL     1      37.231 -11.743   0.885  1.00  0.00     0.034 A 
HETATM   28 CL   UNL     1      35.755 -10.906   1.166  1.00  0.00    -0.084 Cl
HETATM   29  C   UNL     1      37.208 -13.079   0.492  1.00  0.00     0.024 A 
HETATM   30  C   UNL     1      38.407 -13.762   0.275  1.00  0.00     0.011 A 
ENDBRANCH   9  24
TORSDOF 4
ENDMDL
MODEL 9
REMARK VINA RESULT:      -6.8      4.015      7.077
REMARK  4 active torsions:
REMARK  status: ('A' for Active; 'I' for Inactive)
REMARK    1  A    between atoms: C_9  and  C_10 
REMARK    2  A    between atoms: C_17  and  C_18 
REMARK       I    between atoms: C_18  and  N_19 
REMARK    3  A    between atoms: N_19  and  C_20 
REMARK    4  A    between atoms: C_23  and  O_24 
ROOT
HETATM    1  C   UNL     1      39.139 -13.163   2.735  1.00  0.00     0.070 C 
HETATM    2  C   UNL     1      40.464 -13.733   3.180  1.00  0.00     0.037 C 
HETATM    3  N   UNL     1      40.679 -13.734   4.557  1.00  0.00    -0.192 N 
HETATM    4  C   UNL     1      41.903 -13.888   5.102  1.00  0.00     0.725 A 
HETATM    5  N   UNL     1      42.946 -14.274   4.306  1.00  0.00    -0.084 N 
HETATM    6  N   UNL     1      44.108 -14.291   4.992  1.00  0.00    -0.149 NA
HETATM    7  C   UNL     1      43.677 -13.943   6.210  1.00  0.00     0.275 A 
HETATM    8  N   UNL     1      42.333 -13.694   6.322  1.00  0.00    -0.054 NA
HETATM    9  C   UNL     1      42.814 -14.588   2.879  1.00  0.00     0.202 C 
HETATM   10  C   UNL     1      41.453 -14.146   2.346  1.00  0.00     0.062 C 
HETATM   11  H   UNL     1      39.957 -13.320   5.143  1.00  0.00     0.184 HD
ENDROOT
BRANCH  10  12
HETATM   12  C   UNL     1      41.396 -14.055   0.862  1.00  0.00     0.256 C 
HETATM   13  N   UNL     1      41.749 -12.824   0.354  1.00  0.00    -0.323 N 
HETATM   14  H   UNL     1      41.940 -12.086   1.020  1.00  0.00     0.169 HD
HETATM   15  O   UNL     1      41.012 -15.034   0.233  1.00  0.00    -0.267 OA
BRANCH  13  16
HETATM   16  C   UNL     1      41.923 -12.487  -1.006  1.00  0.00     0.035 A 
HETATM   17  C   UNL     1      41.642 -13.349  -2.066  1.00  0.00     0.032 A 
HETATM   18  C   UNL     1      41.873 -12.948  -3.387  1.00  0.00     0.039 A 
HETATM   19  C   UNL     1      42.387 -11.684  -3.674  1.00  0.00     0.068 A 
HETATM   20  C   UNL     1      42.675 -10.819  -2.621  1.00  0.00     0.039 A 
HETATM   21  C   UNL     1      42.440 -11.218  -1.297  1.00  0.00     0.032 A 
BRANCH  19  22
HETATM   22  O   UNL     1      42.566 -11.428  -5.004  1.00  0.00    -0.356 OA
HETATM   23  C   UNL     1      41.903 -10.289  -5.536  1.00  0.00     0.210 C 
ENDBRANCH  19  22
ENDBRANCH  13  16
ENDBRANCH  10  12
BRANCH   9  24
HETATM   24  C   UNL     1      43.067 -16.079   2.639  1.00  0.00    -0.028 A 
HETATM   25  C   UNL     1      44.002 -16.532   1.689  1.00  0.00     0.011 A 
HETATM   26  C   UNL     1      44.196 -17.898   1.476  1.00  0.00     0.024 A 
HETATM   27  C   UNL     1      43.471 -18.826   2.218  1.00  0.00     0.034 A 
HETATM   28 CL   UNL     1      43.705 -20.508   1.945  1.00  0.00    -0.084 Cl
HETATM   29  C   UNL     1      42.558 -18.399   3.179  1.00  0.00     0.024 A 
HETATM   30  C   UNL     1      42.359 -17.033   3.392  1.00  0.00     0.011 A 
ENDBRANCH   9  24
TORSDOF 4
ENDMDL
MODEL 10
REMARK VINA RESULT:      -6.7      4.433      8.300
REMARK  4 active torsions:
REMARK  status: ('A' for Active; 'I' for Inactive)
REMARK    1  A    between atoms: C_9  and  C_10 
REMARK    2  A    between atoms: C_17  and  C_18 
REMARK       I    between atoms: C_18  and  N_19 
REMARK    3  A    between atoms: N_19  and  C_20 
REMARK    4  A    between atoms: C_23  and  O_24 
ROOT
HETATM    1  C   UNL     1      41.660  -9.045   5.233  1.00  0.00     0.070 C 
HETATM    2  C   UNL     1      41.333 -10.481   4.901  1.00  0.00     0.037 C 
HETATM    3  N   UNL     1      41.188 -10.760   3.544  1.00  0.00    -0.192 N 
HETATM    4  C   UNL     1      40.584 -11.878   3.091  1.00  0.00     0.725 A 
HETATM    5  N   UNL     1      40.292 -12.884   3.971  1.00  0.00    -0.084 N 
HETATM    6  N   UNL     1      39.612 -13.881   3.369  1.00  0.00    -0.149 NA
HETATM    7  C   UNL     1      39.567 -13.423   2.113  1.00  0.00     0.275 A 
HETATM    8  N   UNL     1      40.156 -12.203   1.899  1.00  0.00    -0.054 NA
HETATM    9  C   UNL     1      40.645 -12.853   5.395  1.00  0.00     0.202 C 
HETATM   10  C   UNL     1      41.096 -11.457   5.816  1.00  0.00     0.062 C 
HETATM   11  H   UNL     1      41.270  -9.980   2.895  1.00  0.00     0.184 HD
ENDROOT
BRANCH  10  12
HETATM   12  C   UNL     1      41.078 -11.244   7.289  1.00  0.00     0.256 C 
HETATM   13  N   UNL     1      42.324 -11.087   7.855  1.00  0.00    -0.323 N 
HETATM   14  H   UNL     1      43.126 -11.200   7.248  1.00  0.00     0.169 HD
HETATM   15  O   UNL     1      39.998 -11.269   7.867  1.00  0.00    -0.267 OA
BRANCH  13  16
HETATM   16  C   UNL     1      42.608 -10.733   9.192  1.00  0.00     0.035 A 
HETATM   17  C   UNL     1      41.908  -9.762   9.909  1.00  0.00     0.032 A 
HETATM   18  C   UNL     1      42.274  -9.449  11.222  1.00  0.00     0.039 A 
HETATM   19  C   UNL     1      43.343 -10.095  11.844  1.00  0.00     0.068 A 
HETATM   20  C   UNL     1      44.049 -11.063  11.134  1.00  0.00     0.039 A 
HETATM   21  C   UNL     1      43.681 -11.382   9.819  1.00  0.00     0.032 A 
BRANCH  19  22
HETATM   22  O   UNL     1      43.592  -9.687  13.124  1.00  0.00    -0.356 OA
HETATM   23  C   UNL     1      42.828  -8.592  13.612  1.00  0.00     0.210 C 
ENDBRANCH  19  22
ENDBRANCH  13  16
ENDBRANCH  10  12
BRANCH   9  24
HETATM   24  C   UNL     1      41.704 -13.915   5.701  1.00  0.00    -0.028 A 
HETATM   25  C   UNL     1      43.081 -13.642   5.600  1.00  0.00     0.011 A 
HETATM   26  C   UNL     1      44.026 -14.636   5.864  1.00  0.00     0.024 A 
HETATM   27  C   UNL     1      43.606 -15.908   6.246  1.00  0.00     0.034 A 
HETATM   28 CL   UNL     1      44.771 -17.134   6.559  1.00  0.00    -0.084 Cl
HETATM   29  C   UNL     1      42.249 -16.191   6.374  1.00  0.00     0.024 A 
HETATM   30  C   UNL     1      41.302 -15.200   6.107  1.00  0.00     0.011 A 
ENDBRANCH   9  24
TORSDOF 4
ENDMDL
