MODEL 1
REMARK VINA RESULT:      -7.8      0.000      0.000
REMARK  6 active torsions:
REMARK  status: ('A' for Active; 'I' for Inactive)
REMARK       I    between atoms: C_2  and  N_3 
REMARK    1  A    between atoms: N_3  and  C_4 
REMARK    2  A    between atoms: C_7  and  C_8 
REMARK    3  A    between atoms: C_8  and  N_9 
REMARK    4  A    between atoms: N_9  and  C_11 
REMARK    5  A    between atoms: C_11  and  C_12 
REMARK    6  A    between atoms: C_14  and  C_15 
ROOT
HETATM    1  N   UNL     1      40.827 -14.632   3.929  1.00  0.00    -0.063 N 
HETATM    2  H   UNL     1      41.819 -14.345   3.922  1.00  0.00     0.280 HD
HETATM    3  C   UNL     1      39.968 -13.419   3.841  1.00  0.00     0.270 C 
ENDROOT
BRANCH   1   4
HETATM    4  C   UNL     1      40.686 -15.354   5.258  1.00  0.00     0.294 C 
BRANCH   4   5
HETATM    5  C   UNL     1      42.014 -15.502   5.931  1.00  0.00     0.069 A 
HETATM    6  C   UNL     1      42.540 -16.605   6.576  1.00  0.00     0.082 A 
HETATM    7  S   UNL     1      44.109 -16.229   7.178  1.00  0.00    -0.062 SA
HETATM    8  C   UNL     1      43.973 -14.669   6.511  1.00  0.00     0.173 A 
HETATM    9  N   UNL     1      42.841 -14.390   5.918  1.00  0.00    -0.227 NA
BRANCH   8  10
HETATM   10  N   UNL     1      45.063 -13.862   6.655  1.00  0.00    -0.306 N 
HETATM   11  C   UNL     1      45.328 -13.239   7.857  1.00  0.00     0.219 C 
HETATM   12  C   UNL     1      46.607 -12.444   7.815  1.00  0.00     0.117 C 
HETATM   13  O   UNL     1      44.619 -13.267   8.860  1.00  0.00    -0.274 OA
HETATM   14  H   UNL     1      45.633 -13.690   5.838  1.00  0.00     0.171 HD
ENDBRANCH   8  10
ENDBRANCH   4   5
ENDBRANCH   1   4
BRANCH   1  15
HETATM   15  C   UNL     1      40.715 -15.532   2.714  1.00  0.00     0.312 C 
BRANCH  15  16
HETATM   16  C   UNL     1      41.866 -16.459   2.498  1.00  0.00     0.130 A 
HETATM   17  N   UNL     1      41.902 -17.750   2.769  1.00  0.00    -0.232 NA
HETATM   18  C   UNL     1      43.194 -18.159   2.514  1.00  0.00     0.084 A 
HETATM   19  C   UNL     1      43.933 -17.103   2.032  1.00  0.00     0.122 A 
HETATM   20  N   UNL     1      43.079 -16.034   2.012  1.00  0.00    -0.351 N 
HETATM   21  H   UNL     1      43.319 -15.094   1.718  1.00  0.00     0.166 HD
BRANCH  18  22
HETATM   22  C   UNL     1      43.664 -19.513   2.755  1.00  0.00    -0.006 A 
HETATM   23  C   UNL     1      44.360 -19.804   3.938  1.00  0.00     0.014 A 
HETATM   24  C   UNL     1      44.841 -21.093   4.183  1.00  0.00     0.001 A 
HETATM   25  C   UNL     1      44.638 -22.102   3.245  1.00  0.00     0.000 A 
HETATM   26  C   UNL     1      43.951 -21.826   2.064  1.00  0.00     0.001 A 
HETATM   27  C   UNL     1      43.465 -20.538   1.820  1.00  0.00     0.014 A 
ENDBRANCH  18  22
ENDBRANCH  15  16
ENDBRANCH   1  15
TORSDOF 6
ENDMDL
MODEL 2
REMARK VINA RESULT:      -7.8      1.846      2.609
REMARK  6 active torsions:
REMARK  status: ('A' for Active; 'I' for Inactive)
REMARK       I    between atoms: C_2  and  N_3 
REMARK    1  A    between atoms: N_3  and  C_4 
REMARK    2  A    between atoms: C_7  and  C_8 
REMARK    3  A    between atoms: C_8  and  N_9 
REMARK    4  A    between atoms: N_9  and  C_11 
REMARK    5  A    between atoms: C_11  and  C_12 
REMARK    6  A    between atoms: C_14  and  C_15 
ROOT
HETATM    1  N   UNL     1      40.620 -15.064   0.963  1.00  0.00    -0.063 N 
HETATM    2  H   UNL     1      41.399 -14.511   1.355  1.00  0.00     0.280 HD
HETATM    3  C   UNL     1      39.850 -14.214   0.012  1.00  0.00     0.270 C 
ENDROOT
BRANCH   1   4
HETATM    4  C   UNL     1      39.813 -15.445   2.192  1.00  0.00     0.294 C 
BRANCH   4   5
HETATM    5  C   UNL     1      40.230 -14.634   3.378  1.00  0.00     0.069 A 
HETATM    6  C   UNL     1      39.713 -13.437   3.835  1.00  0.00     0.082 A 
HETATM    7  S   UNL     1      40.570 -12.935   5.242  1.00  0.00    -0.062 SA
HETATM    8  C   UNL     1      41.517 -14.346   5.147  1.00  0.00     0.173 A 
HETATM    9  N   UNL     1      41.280 -15.136   4.133  1.00  0.00    -0.227 NA
BRANCH   8  10
HETATM   10  N   UNL     1      42.430 -14.520   6.147  1.00  0.00    -0.306 N 
HETATM   11  C   UNL     1      43.740 -14.121   5.984  1.00  0.00     0.219 C 
HETATM   12  C   UNL     1      44.562 -14.350   7.226  1.00  0.00     0.117 C 
HETATM   13  O   UNL     1      44.237 -13.661   4.958  1.00  0.00    -0.274 OA
HETATM   14  H   UNL     1      42.128 -15.002   6.982  1.00  0.00     0.171 HD
ENDBRANCH   8  10
ENDBRANCH   4   5
ENDBRANCH   1   4
BRANCH   1  15
HETATM   15  C   UNL     1      41.321 -16.228   0.290  1.00  0.00     0.312 C 
BRANCH  15  16
HETATM   16  C   UNL     1      42.340 -16.929   1.128  1.00  0.00     0.130 A 
HETATM   17  N   UNL     1      42.479 -18.232   1.277  1.00  0.00    -0.232 NA
HETATM   18  C   UNL     1      43.467 -18.406   2.222  1.00  0.00     0.084 A 
HETATM   19  C   UNL     1      43.967 -17.183   2.608  1.00  0.00     0.122 A 
HETATM   20  N   UNL     1      43.256 -16.254   1.899  1.00  0.00    -0.351 N 
HETATM   21  H   UNL     1      43.372 -15.248   1.963  1.00  0.00     0.166 HD
BRANCH  18  22
HETATM   22  C   UNL     1      43.873 -19.709   2.721  1.00  0.00    -0.006 A 
HETATM   23  C   UNL     1      44.394 -19.822   4.018  1.00  0.00     0.014 A 
HETATM   24  C   UNL     1      44.812 -21.061   4.513  1.00  0.00     0.001 A 
HETATM   25  C   UNL     1      44.721 -22.197   3.713  1.00  0.00     0.000 A 
HETATM   26  C   UNL     1      44.209 -22.099   2.421  1.00  0.00     0.001 A 
HETATM   27  C   UNL     1      43.785 -20.861   1.927  1.00  0.00     0.014 A 
ENDBRANCH  18  22
ENDBRANCH  15  16
ENDBRANCH   1  15
TORSDOF 6
ENDMDL
MODEL 3
REMARK VINA RESULT:      -7.8      2.198      2.689
REMARK  6 active torsions:
REMARK  status: ('A' for Active; 'I' for Inactive)
REMARK       I    between atoms: C_2  and  N_3 
REMARK    1  A    between atoms: N_3  and  C_4 
REMARK    2  A    between atoms: C_7  and  C_8 
REMARK    3  A    between atoms: C_8  and  N_9 
REMARK    4  A    between atoms: N_9  and  C_11 
REMARK    5  A    between atoms: C_11  and  C_12 
REMARK    6  A    between atoms: C_14  and  C_15 
ROOT
HETATM    1  N   UNL     1      40.585 -14.769   1.929  1.00  0.00    -0.063 N 
HETATM    2  H   UNL     1      41.578 -14.487   1.942  1.00  0.00     0.280 HD
HETATM    3  C   UNL     1      39.777 -13.680   1.315  1.00  0.00     0.270 C 
ENDROOT
BRANCH   1   4
HETATM    4  C   UNL     1      40.266 -14.977   3.400  1.00  0.00     0.294 C 
BRANCH   4   5
HETATM    5  C   UNL     1      41.503 -14.878   4.235  1.00  0.00     0.069 A 
HETATM    6  C   UNL     1      42.163 -13.747   4.675  1.00  0.00     0.082 A 
HETATM    7  S   UNL     1      43.542 -14.204   5.601  1.00  0.00    -0.062 SA
HETATM    8  C   UNL     1      43.131 -15.840   5.371  1.00  0.00     0.173 A 
HETATM    9  N   UNL     1      42.082 -16.075   4.627  1.00  0.00    -0.227 NA
BRANCH   8  10
HETATM   10  N   UNL     1      43.936 -16.750   5.993  1.00  0.00    -0.306 N 
HETATM   11  C   UNL     1      43.474 -17.488   7.063  1.00  0.00     0.219 C 
HETATM   12  C   UNL     1      44.501 -18.471   7.561  1.00  0.00     0.117 C 
HETATM   13  O   UNL     1      42.377 -17.371   7.605  1.00  0.00    -0.274 OA
HETATM   14  H   UNL     1      44.895 -16.819   5.683  1.00  0.00     0.171 HD
ENDBRANCH   8  10
ENDBRANCH   4   5
ENDBRANCH   1   4
BRANCH   1  15
HETATM   15  C   UNL     1      40.595 -16.042   1.106  1.00  0.00     0.312 C 
BRANCH  15  16
HETATM   16  C   UNL     1      41.817 -16.888   1.253  1.00  0.00     0.130 A 
HETATM   17  N   UNL     1      41.895 -18.069   1.837  1.00  0.00    -0.232 NA
HETATM   18  C   UNL     1      43.231 -18.410   1.833  1.00  0.00     0.084 A 
HETATM   19  C   UNL     1      43.961 -17.438   1.188  1.00  0.00     0.122 A 
HETATM   20  N   UNL     1      43.054 -16.484   0.811  1.00  0.00    -0.351 N 
HETATM   21  H   UNL     1      43.274 -15.624   0.322  1.00  0.00     0.166 HD
BRANCH  18  22
HETATM   22  C   UNL     1      43.746 -19.620   2.451  1.00  0.00    -0.006 A 
HETATM   23  C   UNL     1      43.640 -20.843   1.772  1.00  0.00     0.014 A 
HETATM   24  C   UNL     1      44.108 -22.024   2.354  1.00  0.00     0.001 A 
HETATM   25  C   UNL     1      44.680 -21.996   3.623  1.00  0.00     0.000 A 
HETATM   26  C   UNL     1      44.788 -20.789   4.311  1.00  0.00     0.001 A 
HETATM   27  C   UNL     1      44.326 -19.606   3.727  1.00  0.00     0.014 A 
ENDBRANCH  18  22
ENDBRANCH  15  16
ENDBRANCH   1  15
TORSDOF 6
ENDMDL
MODEL 4
REMARK VINA RESULT:      -7.7      3.857      5.781
REMARK  6 active torsions:
REMARK  status: ('A' for Active; 'I' for Inactive)
REMARK       I    between atoms: C_2  and  N_3 
REMARK    1  A    between atoms: N_3  and  C_4 
REMARK    2  A    between atoms: C_7  and  C_8 
REMARK    3  A    between atoms: C_8  and  N_9 
REMARK    4  A    between atoms: N_9  and  C_11 
REMARK    5  A    between atoms: C_11  and  C_12 
REMARK    6  A    between atoms: C_14  and  C_15 
ROOT
HETATM    1  N   UNL     1      41.267 -14.230   3.611  1.00  0.00    -0.063 N 
HETATM    2  H   UNL     1      41.135 -14.737   2.721  1.00  0.00     0.280 HD
HETATM    3  C   UNL     1      39.982 -14.224   4.363  1.00  0.00     0.270 C 
ENDROOT
BRANCH   1   4
HETATM    4  C   UNL     1      41.686 -12.841   3.158  1.00  0.00     0.294 C 
BRANCH   4   5
HETATM    5  C   UNL     1      41.782 -12.770   1.667  1.00  0.00     0.069 A 
HETATM    6  C   UNL     1      42.066 -11.680   0.867  1.00  0.00     0.082 A 
HETATM    7  S   UNL     1      42.044 -12.154  -0.788  1.00  0.00    -0.062 SA
HETATM    8  C   UNL     1      41.697 -13.750  -0.308  1.00  0.00     0.173 A 
HETATM    9  N   UNL     1      41.553 -13.951   0.976  1.00  0.00    -0.227 NA
BRANCH   8  10
HETATM   10  N   UNL     1      41.610 -14.669  -1.313  1.00  0.00    -0.306 N 
HETATM   11  C   UNL     1      40.430 -14.853  -2.003  1.00  0.00     0.219 C 
HETATM   12  C   UNL     1      40.569 -15.870  -3.106  1.00  0.00     0.117 C 
HETATM   13  O   UNL     1      39.356 -14.305  -1.762  1.00  0.00    -0.274 OA
HETATM   14  H   UNL     1      42.419 -15.248  -1.493  1.00  0.00     0.171 HD
ENDBRANCH   8  10
ENDBRANCH   4   5
ENDBRANCH   1   4
BRANCH   1  15
HETATM   15  C   UNL     1      42.361 -15.018   4.304  1.00  0.00     0.312 C 
BRANCH  15  16
HETATM   16  C   UNL     1      42.932 -16.148   3.512  1.00  0.00     0.130 A 
HETATM   17  N   UNL     1      42.927 -17.426   3.843  1.00  0.00    -0.232 NA
HETATM   18  C   UNL     1      43.661 -18.075   2.873  1.00  0.00     0.084 A 
HETATM   19  C   UNL     1      44.069 -17.176   1.914  1.00  0.00     0.122 A 
HETATM   20  N   UNL     1      43.591 -15.960   2.321  1.00  0.00    -0.351 N 
HETATM   21  H   UNL     1      43.731 -15.080   1.837  1.00  0.00     0.166 HD
BRANCH  18  22
HETATM   22  C   UNL     1      43.950 -19.498   2.911  1.00  0.00    -0.006 A 
HETATM   23  C   UNL     1      43.552 -20.314   1.842  1.00  0.00     0.014 A 
HETATM   24  C   UNL     1      43.799 -21.690   1.865  1.00  0.00     0.001 A 
HETATM   25  C   UNL     1      44.439 -22.264   2.959  1.00  0.00     0.000 A 
HETATM   26  C   UNL     1      44.837 -21.466   4.030  1.00  0.00     0.001 A 
HETATM   27  C   UNL     1      44.595 -20.089   4.006  1.00  0.00     0.014 A 
ENDBRANCH  18  22
ENDBRANCH  15  16
ENDBRANCH   1  15
TORSDOF 6
ENDMDL
MODEL 5
REMARK VINA RESULT:      -7.7      3.457      5.493
REMARK  6 active torsions:
REMARK  status: ('A' for Active; 'I' for Inactive)
REMARK       I    between atoms: C_2  and  N_3 
REMARK    1  A    between atoms: N_3  and  C_4 
REMARK    2  A    between atoms: C_7  and  C_8 
REMARK    3  A    between atoms: C_8  and  N_9 
REMARK    4  A    between atoms: N_9  and  C_11 
REMARK    5  A    between atoms: C_11  and  C_12 
REMARK    6  A    between atoms: C_14  and  C_15 
ROOT
HETATM    1  N   UNL     1      41.758 -15.175   5.065  1.00  0.00    -0.063 N 
HETATM    2  H   UNL     1      41.528 -16.150   4.817  1.00  0.00     0.280 HD
HETATM    3  C   UNL     1      40.654 -14.606   5.886  1.00  0.00     0.270 C 
ENDROOT
BRANCH   1   4
HETATM    4  C   UNL     1      41.890 -14.497   3.711  1.00  0.00     0.294 C 
BRANCH   4   5
HETATM    5  C   UNL     1      41.599 -15.457   2.601  1.00  0.00     0.069 A 
HETATM    6  C   UNL     1      41.055 -16.725   2.673  1.00  0.00     0.082 A 
HETATM    7  S   UNL     1      40.943 -17.397   1.091  1.00  0.00    -0.062 SA
HETATM    8  C   UNL     1      41.586 -15.956   0.452  1.00  0.00     0.173 A 
HETATM    9  N   UNL     1      41.918 -15.036   1.319  1.00  0.00    -0.227 NA
BRANCH   8  10
HETATM   10  N   UNL     1      41.686 -15.900  -0.908  1.00  0.00    -0.306 N 
HETATM   11  C   UNL     1      40.837 -15.104  -1.647  1.00  0.00     0.219 C 
HETATM   12  C   UNL     1      41.157 -15.144  -3.119  1.00  0.00     0.117 C 
HETATM   13  O   UNL     1      39.893 -14.449  -1.210  1.00  0.00    -0.274 OA
HETATM   14  H   UNL     1      42.362 -16.504  -1.355  1.00  0.00     0.171 HD
ENDBRANCH   8  10
ENDBRANCH   4   5
ENDBRANCH   1   4
BRANCH   1  15
HETATM   15  C   UNL     1      43.062 -15.305   5.827  1.00  0.00     0.312 C 
BRANCH  15  16
HETATM   16  C   UNL     1      43.752 -16.623   5.690  1.00  0.00     0.130 A 
HETATM   17  N   UNL     1      43.579 -17.509   4.728  1.00  0.00    -0.232 NA
HETATM   18  C   UNL     1      44.334 -18.608   5.078  1.00  0.00     0.084 A 
HETATM   19  C   UNL     1      45.014 -18.355   6.248  1.00  0.00     0.122 A 
HETATM   20  N   UNL     1      44.649 -17.090   6.621  1.00  0.00    -0.351 N 
HETATM   21  H   UNL     1      44.967 -16.606   7.453  1.00  0.00     0.166 HD
BRANCH  18  22
HETATM   22  C   UNL     1      44.360 -19.837   4.304  1.00  0.00    -0.006 A 
HETATM   23  C   UNL     1      44.771 -21.031   4.915  1.00  0.00     0.014 A 
HETATM   24  C   UNL     1      44.826 -22.222   4.186  1.00  0.00     0.001 A 
HETATM   25  C   UNL     1      44.477 -22.231   2.838  1.00  0.00     0.000 A 
HETATM   26  C   UNL     1      44.070 -21.051   2.217  1.00  0.00     0.001 A 
HETATM   27  C   UNL     1      44.010 -19.860   2.947  1.00  0.00     0.014 A 
ENDBRANCH  18  22
ENDBRANCH  15  16
ENDBRANCH   1  15
TORSDOF 6
ENDMDL
MODEL 6
REMARK VINA RESULT:      -7.7      4.719      6.830
REMARK  6 active torsions:
REMARK  status: ('A' for Active; 'I' for Inactive)
REMARK       I    between atoms: C_2  and  N_3 
REMARK    1  A    between atoms: N_3  and  C_4 
REMARK    2  A    between atoms: C_7  and  C_8 
REMARK    3  A    between atoms: C_8  and  N_9 
REMARK    4  A    between atoms: N_9  and  C_11 
REMARK    5  A    between atoms: C_11  and  C_12 
REMARK    6  A    between atoms: C_14  and  C_15 
ROOT
HETATM    1  N   UNL     1      41.147 -13.200   2.589  1.00  0.00    -0.063 N 
HETATM    2  H   UNL     1      40.508 -12.416   2.381  1.00  0.00     0.280 HD
HETATM    3  C   UNL     1      42.093 -12.787   3.661  1.00  0.00     0.270 C 
ENDROOT
BRANCH   1   4
HETATM    4  C   UNL     1      41.840 -13.442   1.258  1.00  0.00     0.294 C 
BRANCH   4   5
HETATM    5  C   UNL     1      40.898 -13.225   0.116  1.00  0.00     0.069 A 
HETATM    6  C   UNL     1      40.404 -12.036  -0.385  1.00  0.00     0.082 A 
HETATM    7  S   UNL     1      39.347 -12.359  -1.706  1.00  0.00    -0.062 SA
HETATM    8  C   UNL     1      39.658 -14.023  -1.525  1.00  0.00     0.173 A 
HETATM    9  N   UNL     1      40.445 -14.361  -0.537  1.00  0.00    -0.227 NA
BRANCH   8  10
HETATM   10  N   UNL     1      39.058 -14.843  -2.435  1.00  0.00    -0.306 N 
HETATM   11  C   UNL     1      39.737 -15.272  -3.556  1.00  0.00     0.219 C 
HETATM   12  C   UNL     1      38.912 -16.214  -4.394  1.00  0.00     0.117 C 
HETATM   13  O   UNL     1      40.867 -14.928  -3.896  1.00  0.00    -0.274 OA
HETATM   14  H   UNL     1      38.085 -15.076  -2.289  1.00  0.00     0.171 HD
ENDBRANCH   8  10
ENDBRANCH   4   5
ENDBRANCH   1   4
BRANCH   1  15
HETATM   15  C   UNL     1      40.209 -14.312   3.016  1.00  0.00     0.312 C 
BRANCH  15  16
HETATM   16  C   UNL     1      40.673 -15.695   2.697  1.00  0.00     0.130 A 
HETATM   17  N   UNL     1      41.623 -16.371   3.314  1.00  0.00    -0.232 NA
HETATM   18  C   UNL     1      41.779 -17.545   2.608  1.00  0.00     0.084 A 
HETATM   19  C   UNL     1      40.867 -17.596   1.578  1.00  0.00     0.122 A 
HETATM   20  N   UNL     1      40.162 -16.425   1.652  1.00  0.00    -0.351 N 
HETATM   21  H   UNL     1      39.418 -16.146   1.022  1.00  0.00     0.166 HD
BRANCH  18  22
HETATM   22  C   UNL     1      42.786 -18.542   2.930  1.00  0.00    -0.006 A 
HETATM   23  C   UNL     1      43.443 -18.486   4.168  1.00  0.00     0.014 A 
HETATM   24  C   UNL     1      44.430 -19.421   4.493  1.00  0.00     0.001 A 
HETATM   25  C   UNL     1      44.776 -20.415   3.581  1.00  0.00     0.000 A 
HETATM   26  C   UNL     1      44.133 -20.479   2.346  1.00  0.00     0.001 A 
HETATM   27  C   UNL     1      43.142 -19.549   2.022  1.00  0.00     0.014 A 
ENDBRANCH  18  22
ENDBRANCH  15  16
ENDBRANCH   1  15
TORSDOF 6
ENDMDL
MODEL 7
REMARK VINA RESULT:      -7.5      2.642      3.750
REMARK  6 active torsions:
REMARK  status: ('A' for Active; 'I' for Inactive)
REMARK       I    between atoms: C_2  and  N_3 
REMARK    1  A    between atoms: N_3  and  C_4 
REMARK    2  A    between atoms: C_7  and  C_8 
REMARK    3  A    between atoms: C_8  and  N_9 
REMARK    4  A    between atoms: N_9  and  C_11 
REMARK    5  A    between atoms: C_11  and  C_12 
REMARK    6  A    between atoms: C_14  and  C_15 
ROOT
HETATM    1  N   UNL     1      43.658 -14.919   7.053  1.00  0.00    -0.063 N 
HETATM    2  H   UNL     1      43.153 -14.391   7.782  1.00  0.00     0.280 HD
HETATM    3  C   UNL     1      43.826 -16.329   7.501  1.00  0.00     0.270 C 
ENDROOT
BRANCH   1   4
HETATM    4  C   UNL     1      44.981 -14.179   6.942  1.00  0.00     0.294 C 
BRANCH   4   5
HETATM    5  C   UNL     1      45.134 -13.188   8.052  1.00  0.00     0.069 A 
HETATM    6  C   UNL     1      46.028 -12.140   8.162  1.00  0.00     0.082 A 
HETATM    7  S   UNL     1      45.775 -11.316   9.652  1.00  0.00    -0.062 SA
HETATM    8  C   UNL     1      44.496 -12.383  10.005  1.00  0.00     0.173 A 
HETATM    9  N   UNL     1      44.271 -13.327   9.129  1.00  0.00    -0.227 NA
BRANCH   8  10
HETATM   10  N   UNL     1      43.824 -12.144  11.168  1.00  0.00    -0.306 N 
HETATM   11  C   UNL     1      42.727 -11.308  11.192  1.00  0.00     0.219 C 
HETATM   12  C   UNL     1      42.102 -11.230  12.561  1.00  0.00     0.117 C 
HETATM   13  O   UNL     1      42.292 -10.655  10.246  1.00  0.00    -0.274 OA
HETATM   14  H   UNL     1      44.192 -12.551  12.017  1.00  0.00     0.171 HD
ENDBRANCH   8  10
ENDBRANCH   4   5
ENDBRANCH   1   4
BRANCH   1  15
HETATM   15  C   UNL     1      42.762 -14.782   5.838  1.00  0.00     0.312 C 
BRANCH  15  16
HETATM   16  C   UNL     1      43.050 -15.731   4.721  1.00  0.00     0.130 A 
HETATM   17  N   UNL     1      43.127 -17.046   4.803  1.00  0.00    -0.232 NA
HETATM   18  C   UNL     1      43.523 -17.484   3.557  1.00  0.00     0.084 A 
HETATM   19  C   UNL     1      43.635 -16.415   2.698  1.00  0.00     0.122 A 
HETATM   20  N   UNL     1      43.320 -15.310   3.442  1.00  0.00    -0.351 N 
HETATM   21  H   UNL     1      43.320 -14.354   3.104  1.00  0.00     0.166 HD
BRANCH  18  22
HETATM   22  C   UNL     1      43.789 -18.879   3.250  1.00  0.00    -0.006 A 
HETATM   23  C   UNL     1      44.496 -19.667   4.170  1.00  0.00     0.014 A 
HETATM   24  C   UNL     1      44.785 -21.006   3.889  1.00  0.00     0.001 A 
HETATM   25  C   UNL     1      44.375 -21.568   2.683  1.00  0.00     0.000 A 
HETATM   26  C   UNL     1      43.675 -20.795   1.758  1.00  0.00     0.001 A 
HETATM   27  C   UNL     1      43.382 -19.458   2.040  1.00  0.00     0.014 A 
ENDBRANCH  18  22
ENDBRANCH  15  16
ENDBRANCH   1  15
TORSDOF 6
ENDMDL
MODEL 8
REMARK VINA RESULT:      -7.3      3.809      5.588
REMARK  6 active torsions:
REMARK  status: ('A' for Active; 'I' for Inactive)
REMARK       I    between atoms: C_2  and  N_3 
REMARK    1  A    between atoms: N_3  and  C_4 
REMARK    2  A    between atoms: C_7  and  C_8 
REMARK    3  A    between atoms: C_8  and  N_9 
REMARK    4  A    between atoms: N_9  and  C_11 
REMARK    5  A    between atoms: C_11  and  C_12 
REMARK    6  A    between atoms: C_14  and  C_15 
ROOT
HETATM    1  N   UNL     1      41.170 -13.126   4.568  1.00  0.00    -0.063 N 
HETATM    2  H   UNL     1      40.395 -13.044   3.891  1.00  0.00     0.280 HD
HETATM    3  C   UNL     1      41.138 -11.957   5.490  1.00  0.00     0.270 C 
ENDROOT
BRANCH   1   4
HETATM    4  C   UNL     1      42.404 -13.137   3.682  1.00  0.00     0.294 C 
BRANCH   4   5
HETATM    5  C   UNL     1      42.039 -12.883   2.253  1.00  0.00     0.069 A 
HETATM    6  C   UNL     1      41.596 -11.713   1.666  1.00  0.00     0.082 A 
HETATM    7  S   UNL     1      41.314 -11.978  -0.012  1.00  0.00    -0.062 SA
HETATM    8  C   UNL     1      41.829 -13.590   0.173  1.00  0.00     0.173 A 
HETATM    9  N   UNL     1      42.150 -13.960   1.386  1.00  0.00    -0.227 NA
BRANCH   8  10
HETATM   10  N   UNL     1      41.863 -14.339  -0.966  1.00  0.00    -0.306 N 
HETATM   11  C   UNL     1      40.698 -14.709  -1.605  1.00  0.00     0.219 C 
HETATM   12  C   UNL     1      40.964 -15.481  -2.871  1.00  0.00     0.117 C 
HETATM   13  O   UNL     1      39.554 -14.492  -1.210  1.00  0.00    -0.274 OA
HETATM   14  H   UNL     1      42.765 -14.662  -1.291  1.00  0.00     0.171 HD
ENDBRANCH   8  10
ENDBRANCH   4   5
ENDBRANCH   1   4
BRANCH   1  15
HETATM   15  C   UNL     1      40.889 -14.443   5.264  1.00  0.00     0.312 C 
BRANCH  15  16
HETATM   16  C   UNL     1      41.111 -15.664   4.433  1.00  0.00     0.130 A 
HETATM   17  N   UNL     1      42.047 -16.578   4.605  1.00  0.00    -0.232 NA
HETATM   18  C   UNL     1      41.935 -17.446   3.540  1.00  0.00     0.084 A 
HETATM   19  C   UNL     1      40.878 -17.074   2.742  1.00  0.00     0.122 A 
HETATM   20  N   UNL     1      40.353 -15.952   3.323  1.00  0.00    -0.351 N 
HETATM   21  H   UNL     1      39.566 -15.419   2.971  1.00  0.00     0.166 HD
BRANCH  18  22
HETATM   22  C   UNL     1      42.838 -18.564   3.325  1.00  0.00    -0.006 A 
HETATM   23  C   UNL     1      43.743 -18.927   4.334  1.00  0.00     0.014 A 
HETATM   24  C   UNL     1      44.636 -19.985   4.143  1.00  0.00     0.001 A 
HETATM   25  C   UNL     1      44.640 -20.685   2.940  1.00  0.00     0.000 A 
HETATM   26  C   UNL     1      43.750 -20.332   1.927  1.00  0.00     0.001 A 
HETATM   27  C   UNL     1      42.851 -19.278   2.119  1.00  0.00     0.014 A 
ENDBRANCH  18  22
ENDBRANCH  15  16
ENDBRANCH   1  15
TORSDOF 6
ENDMDL
MODEL 9
REMARK VINA RESULT:      -7.2      4.287      6.390
REMARK  6 active torsions:
REMARK  status: ('A' for Active; 'I' for Inactive)
REMARK       I    between atoms: C_2  and  N_3 
REMARK    1  A    between atoms: N_3  and  C_4 
REMARK    2  A    between atoms: C_7  and  C_8 
REMARK    3  A    between atoms: C_8  and  N_9 
REMARK    4  A    between atoms: N_9  and  C_11 
REMARK    5  A    between atoms: C_11  and  C_12 
REMARK    6  A    between atoms: C_14  and  C_15 
ROOT
HETATM    1  N   UNL     1      41.161 -14.516   2.851  1.00  0.00    -0.063 N 
HETATM    2  H   UNL     1      40.744 -15.063   2.080  1.00  0.00     0.280 HD
HETATM    3  C   UNL     1      40.563 -14.958   4.141  1.00  0.00     0.270 C 
ENDROOT
BRANCH   1   4
HETATM    4  C   UNL     1      40.795 -13.085   2.496  1.00  0.00     0.294 C 
BRANCH   4   5
HETATM    5  C   UNL     1      39.539 -13.039   1.685  1.00  0.00     0.069 A 
HETATM    6  C   UNL     1      38.453 -12.194   1.816  1.00  0.00     0.082 A 
HETATM    7  S   UNL     1      37.272 -12.579   0.622  1.00  0.00    -0.062 SA
HETATM    8  C   UNL     1      38.302 -13.793   0.020  1.00  0.00     0.173 A 
HETATM    9  N   UNL     1      39.430 -13.966   0.660  1.00  0.00    -0.227 NA
BRANCH   8  10
HETATM   10  N   UNL     1      37.852 -14.466  -1.078  1.00  0.00    -0.306 N 
HETATM   11  C   UNL     1      38.216 -14.069  -2.348  1.00  0.00     0.219 C 
HETATM   12  C   UNL     1      37.658 -14.981  -3.410  1.00  0.00     0.117 C 
HETATM   13  O   UNL     1      38.882 -13.076  -2.635  1.00  0.00    -0.274 OA
HETATM   14  H   UNL     1      37.200 -15.224  -0.932  1.00  0.00     0.171 HD
ENDBRANCH   8  10
ENDBRANCH   4   5
ENDBRANCH   1   4
BRANCH   1  15
HETATM   15  C   UNL     1      42.640 -14.829   2.740  1.00  0.00     0.312 C 
BRANCH  15  16
HETATM   16  C   UNL     1      42.968 -16.211   2.277  1.00  0.00     0.130 A 
HETATM   17  N   UNL     1      43.138 -17.278   3.034  1.00  0.00    -0.232 NA
HETATM   18  C   UNL     1      43.534 -18.290   2.185  1.00  0.00     0.084 A 
HETATM   19  C   UNL     1      43.551 -17.833   0.887  1.00  0.00     0.122 A 
HETATM   20  N   UNL     1      43.177 -16.518   0.954  1.00  0.00    -0.351 N 
HETATM   21  H   UNL     1      43.102 -15.886   0.164  1.00  0.00     0.166 HD
BRANCH  18  22
HETATM   22  C   UNL     1      43.889 -19.622   2.645  1.00  0.00    -0.006 A 
HETATM   23  C   UNL     1      44.438 -19.789   3.924  1.00  0.00     0.014 A 
HETATM   24  C   UNL     1      44.809 -21.057   4.381  1.00  0.00     0.001 A 
HETATM   25  C   UNL     1      44.642 -22.169   3.560  1.00  0.00     0.000 A 
HETATM   26  C   UNL     1      44.102 -22.017   2.285  1.00  0.00     0.001 A 
HETATM   27  C   UNL     1      43.725 -20.750   1.829  1.00  0.00     0.014 A 
ENDBRANCH  18  22
ENDBRANCH  15  16
ENDBRANCH   1  15
TORSDOF 6
ENDMDL
MODEL 10
REMARK VINA RESULT:      -7.1      4.076      5.642
REMARK  6 active torsions:
REMARK  status: ('A' for Active; 'I' for Inactive)
REMARK       I    between atoms: C_2  and  N_3 
REMARK    1  A    between atoms: N_3  and  C_4 
REMARK    2  A    between atoms: C_7  and  C_8 
REMARK    3  A    between atoms: C_8  and  N_9 
REMARK    4  A    between atoms: N_9  and  C_11 
REMARK    5  A    between atoms: C_11  and  C_12 
REMARK    6  A    between atoms: C_14  and  C_15 
ROOT
HETATM    1  N   UNL     1      41.774 -14.611   3.713  1.00  0.00    -0.063 N 
HETATM    2  H   UNL     1      41.266 -15.464   3.429  1.00  0.00     0.280 HD
HETATM    3  C   UNL     1      41.520 -14.350   5.157  1.00  0.00     0.270 C 
ENDROOT
BRANCH   1   4
HETATM    4  C   UNL     1      41.182 -13.540   2.812  1.00  0.00     0.294 C 
BRANCH   4   5
HETATM    5  C   UNL     1      41.165 -13.991   1.386  1.00  0.00     0.069 A 
HETATM    6  C   UNL     1      40.503 -15.065   0.824  1.00  0.00     0.082 A 
HETATM    7  S   UNL     1      40.834 -15.130  -0.865  1.00  0.00    -0.062 SA
HETATM    8  C   UNL     1      41.786 -13.727  -0.715  1.00  0.00     0.173 A 
HETATM    9  N   UNL     1      41.915 -13.241   0.492  1.00  0.00    -0.227 NA
BRANCH   8  10
HETATM   10  N   UNL     1      42.318 -13.242  -1.874  1.00  0.00    -0.306 N 
HETATM   11  C   UNL     1      41.665 -12.267  -2.599  1.00  0.00     0.219 C 
HETATM   12  C   UNL     1      42.452 -11.834  -3.808  1.00  0.00     0.117 C 
HETATM   13  O   UNL     1      40.555 -11.800  -2.350  1.00  0.00    -0.274 OA
HETATM   14  H   UNL     1      43.174 -13.661  -2.211  1.00  0.00     0.171 HD
ENDBRANCH   8  10
ENDBRANCH   4   5
ENDBRANCH   1   4
BRANCH   1  15
HETATM   15  C   UNL     1      43.221 -14.949   3.413  1.00  0.00     0.312 C 
BRANCH  15  16
HETATM   16  C   UNL     1      43.455 -16.315   2.855  1.00  0.00     0.130 A 
HETATM   17  N   UNL     1      43.545 -17.442   3.535  1.00  0.00    -0.232 NA
HETATM   18  C   UNL     1      43.875 -18.417   2.618  1.00  0.00     0.084 A 
HETATM   19  C   UNL     1      43.932 -17.872   1.355  1.00  0.00     0.122 A 
HETATM   20  N   UNL     1      43.650 -16.542   1.514  1.00  0.00    -0.351 N 
HETATM   21  H   UNL     1      43.625 -15.853   0.770  1.00  0.00     0.166 HD
BRANCH  18  22
HETATM   22  C   UNL     1      44.134 -19.799   2.982  1.00  0.00    -0.006 A 
HETATM   23  C   UNL     1      44.604 -20.099   4.269  1.00  0.00     0.014 A 
HETATM   24  C   UNL     1      44.882 -21.418   4.638  1.00  0.00     0.001 A 
HETATM   25  C   UNL     1      44.700 -22.450   3.721  1.00  0.00     0.000 A 
HETATM   26  C   UNL     1      44.237 -22.167   2.437  1.00  0.00     0.001 A 
HETATM   27  C   UNL     1      43.954 -20.848   2.070  1.00  0.00     0.014 A 
ENDBRANCH  18  22
ENDBRANCH  15  16
ENDBRANCH   1  15
TORSDOF 6
ENDMDL
