MODEL 1
REMARK VINA RESULT:      -8.5      0.000      0.000
REMARK  10 active torsions:
REMARK  status: ('A' for Active; 'I' for Inactive)
REMARK    1  A    between atoms: C_3  and  C_4 
REMARK    2  A    between atoms: C_4  and  C_5 
REMARK       I    between atoms: C_5  and  N_6 
REMARK    3  A    between atoms: N_6  and  C_7 
REMARK    4  A    between atoms: C_7  and  C_8 
REMARK    5  A    between atoms: C_8  and  O_9 
REMARK    6  A    between atoms: C_15  and  N_16 
REMARK    7  A    between atoms: N_16  and  C_17 
REMARK    8  A    between atoms: C_26  and  C_27 
REMARK    9  A    between atoms: C_27  and  O_28 
REMARK   10  A    between atoms: C_30  and  O_31 
ROOT
HETATM    1  C   UNL     1      39.830 -14.824   4.920  1.00  0.00     0.016 C 
HETATM    2  C   UNL     1      40.818 -14.224   3.865  1.00  0.00    -0.030 C 
HETATM    3  C   UNL     1      42.269 -14.870   4.051  1.00  0.00     0.056 C 
HETATM    4  C   UNL     1      42.336 -16.225   3.379  1.00  0.00     0.055 C 
HETATM    5  C   UNL     1      41.345 -16.740   2.571  1.00  0.00     0.011 C 
HETATM    6  S   UNL     1      41.767 -18.292   2.025  1.00  0.00    -0.060 SA
HETATM    7  C   UNL     1      43.356 -18.062   2.668  1.00  0.00     0.150 C 
HETATM    8  N   UNL     1      43.492 -16.986   3.418  1.00  0.00    -0.232 NA
HETATM    9  C   UNL     1      40.088 -16.051   2.181  1.00  0.00     0.054 C 
HETATM   10  C   UNL     1      40.219 -14.522   2.424  1.00  0.00     0.012 C 
HETATM   11  C   UNL     1      40.857 -13.690   1.220  1.00  0.00     0.008 C 
HETATM   12  C   UNL     1      39.718 -13.483   0.177  1.00  0.00     0.020 C 
HETATM   13  C   UNL     1      41.307 -12.274   1.696  1.00  0.00     0.128 C 
HETATM   14  C   UNL     1      40.550 -11.812   2.932  1.00  0.00     0.033 C 
HETATM   15  C   UNL     1      40.875 -12.688   4.140  1.00  0.00     0.013 C 
ENDROOT
BRANCH   3  16
HETATM   16  C   UNL     1      42.682 -14.951   5.534  1.00  0.00     0.114 C 
BRANCH  16  17
HETATM   17  C   UNL     1      43.942 -14.198   5.911  1.00  0.00     0.218 C 
HETATM   18  N   UNL     1      44.217 -14.125   7.250  1.00  0.00    -0.359 N 
HETATM   19  H   UNL     1      43.764 -14.790   7.881  1.00  0.00     0.162 HD
HETATM   20  O   UNL     1      44.609 -13.607   5.061  1.00  0.00    -0.274 OA
BRANCH  18  21
HETATM   21  C   UNL     1      45.256 -13.256   7.768  1.00  0.00     0.148 C 
BRANCH  21  22
HETATM   22  C   UNL     1      44.781 -12.305   8.873  1.00  0.00     0.186 C 
BRANCH  22  23
HETATM   23  O   UNL     1      44.743 -12.911  10.170  1.00  0.00    -0.394 OA
HETATM   24  C   UNL     1      44.039 -12.132  11.130  1.00  0.00     0.201 C 
ENDBRANCH  22  23
ENDBRANCH  21  22
ENDBRANCH  18  21
ENDBRANCH  16  17
ENDBRANCH   3  16
BRANCH  11  25
HETATM   25  C   UNL     1      42.044 -14.361   0.477  1.00  0.00     0.176 C 
BRANCH  25  26
HETATM   26  O   UNL     1      41.667 -14.884  -0.792  1.00  0.00    -0.400 OA
HETATM   27  H   UNL     1      41.361 -14.125  -1.321  1.00  0.00     0.209 HD
ENDBRANCH  25  26
ENDBRANCH  11  25
BRANCH   7  28
HETATM   28  N   UNL     1      44.331 -18.956   2.357  1.00  0.00    -0.238 NA
HETATM   29  H   UNL     1      45.248 -18.525   2.296  1.00  0.00     0.136 HD
BRANCH  28  30
HETATM   30  C   UNL     1      44.465 -20.192   3.049  1.00  0.00     0.014 A 
HETATM   31  C   UNL     1      44.506 -21.438   2.411  1.00  0.00     0.024 A 
HETATM   32  C   UNL     1      44.622 -22.621   3.148  1.00  0.00     0.002 A 
HETATM   33  C   UNL     1      44.740 -22.576   4.533  1.00  0.00     0.000 A 
HETATM   34  C   UNL     1      44.756 -21.345   5.182  1.00  0.00     0.002 A 
HETATM   35  C   UNL     1      44.632 -20.163   4.444  1.00  0.00     0.024 A 
ENDBRANCH  28  30
ENDBRANCH   7  28
BRANCH  13  36
HETATM   36  O   UNL     1      42.705 -12.253   1.989  1.00  0.00    -0.395 OA
HETATM   37  H   UNL     1      42.826 -11.800   2.843  1.00  0.00     0.210 HD
ENDBRANCH  13  36
TORSDOF 10
ENDMDL
MODEL 2
REMARK VINA RESULT:      -8.0      2.738      6.865
REMARK  10 active torsions:
REMARK  status: ('A' for Active; 'I' for Inactive)
REMARK    1  A    between atoms: C_3  and  C_4 
REMARK    2  A    between atoms: C_4  and  C_5 
REMARK       I    between atoms: C_5  and  N_6 
REMARK    3  A    between atoms: N_6  and  C_7 
REMARK    4  A    between atoms: C_7  and  C_8 
REMARK    5  A    between atoms: C_8  and  O_9 
REMARK    6  A    between atoms: C_15  and  N_16 
REMARK    7  A    between atoms: N_16  and  C_17 
REMARK    8  A    between atoms: C_26  and  C_27 
REMARK    9  A    between atoms: C_27  and  O_28 
REMARK   10  A    between atoms: C_30  and  O_31 
ROOT
HETATM    1  C   UNL     1      40.670 -16.898   6.478  1.00  0.00     0.016 C 
HETATM    2  C   UNL     1      41.849 -16.088   5.845  1.00  0.00    -0.030 C 
HETATM    3  C   UNL     1      42.287 -16.759   4.461  1.00  0.00     0.056 C 
HETATM    4  C   UNL     1      41.359 -16.325   3.345  1.00  0.00     0.055 C 
HETATM    5  C   UNL     1      40.393 -15.351   3.475  1.00  0.00     0.011 C 
HETATM    6  S   UNL     1      39.536 -15.162   2.020  1.00  0.00    -0.060 SA
HETATM    7  C   UNL     1      40.688 -16.186   1.236  1.00  0.00     0.150 C 
HETATM    8  N   UNL     1      41.530 -16.789   2.052  1.00  0.00    -0.232 NA
HETATM    9  C   UNL     1      40.130 -14.535   4.689  1.00  0.00     0.054 C 
HETATM   10  C   UNL     1      41.353 -14.593   5.646  1.00  0.00     0.012 C 
HETATM   11  C   UNL     1      42.493 -13.512   5.365  1.00  0.00     0.008 C 
HETATM   12  C   UNL     1      41.997 -12.175   5.991  1.00  0.00     0.020 C 
HETATM   13  C   UNL     1      43.819 -13.896   6.094  1.00  0.00     0.128 C 
HETATM   14  C   UNL     1      43.577 -14.796   7.296  1.00  0.00     0.033 C 
HETATM   15  C   UNL     1      43.026 -16.156   6.869  1.00  0.00     0.013 C 
ENDROOT
BRANCH   3  16
HETATM   16  C   UNL     1      42.373 -18.295   4.562  1.00  0.00     0.114 C 
BRANCH  16  17
HETATM   17  C   UNL     1      43.692 -18.912   4.139  1.00  0.00     0.218 C 
HETATM   18  N   UNL     1      43.665 -19.646   2.984  1.00  0.00    -0.359 N 
HETATM   19  H   UNL     1      42.888 -19.509   2.334  1.00  0.00     0.162 HD
HETATM   20  O   UNL     1      44.689 -18.833   4.855  1.00  0.00    -0.274 OA
BRANCH  18  21
HETATM   21  C   UNL     1      44.786 -20.471   2.580  1.00  0.00     0.148 C 
BRANCH  21  22
HETATM   22  C   UNL     1      44.385 -21.846   2.033  1.00  0.00     0.186 C 
BRANCH  22  23
HETATM   23  O   UNL     1      44.757 -22.931   2.889  1.00  0.00    -0.394 OA
HETATM   24  C   UNL     1      44.659 -22.611   4.271  1.00  0.00     0.201 C 
ENDBRANCH  22  23
ENDBRANCH  21  22
ENDBRANCH  18  21
ENDBRANCH  16  17
ENDBRANCH   3  16
BRANCH  11  25
HETATM   25  C   UNL     1      42.816 -13.230   3.872  1.00  0.00     0.176 C 
BRANCH  25  26
HETATM   26  O   UNL     1      42.133 -12.083   3.375  1.00  0.00    -0.400 OA
HETATM   27  H   UNL     1      42.225 -11.393   4.057  1.00  0.00     0.209 HD
ENDBRANCH  25  26
ENDBRANCH  11  25
BRANCH   7  28
HETATM   28  N   UNL     1      40.670 -16.284  -0.119  1.00  0.00    -0.238 NA
HETATM   29  H   UNL     1      39.775 -16.606  -0.474  1.00  0.00     0.136 HD
BRANCH  28  30
HETATM   30  C   UNL     1      41.125 -15.226  -0.955  1.00  0.00     0.014 A 
HETATM   31  C   UNL     1      41.724 -14.057  -0.469  1.00  0.00     0.024 A 
HETATM   32  C   UNL     1      42.135 -13.042  -1.340  1.00  0.00     0.002 A 
HETATM   33  C   UNL     1      41.991 -13.198  -2.715  1.00  0.00     0.000 A 
HETATM   34  C   UNL     1      41.447 -14.375  -3.221  1.00  0.00     0.002 A 
HETATM   35  C   UNL     1      41.030 -15.384  -2.348  1.00  0.00     0.024 A 
ENDBRANCH  28  30
ENDBRANCH   7  28
BRANCH  13  36
HETATM   36  O   UNL     1      44.717 -14.562   5.205  1.00  0.00    -0.395 OA
HETATM   37  H   UNL     1      45.626 -14.379   5.504  1.00  0.00     0.210 HD
ENDBRANCH  13  36
TORSDOF 10
ENDMDL
MODEL 3
REMARK VINA RESULT:      -7.5      4.133      7.748
REMARK  10 active torsions:
REMARK  status: ('A' for Active; 'I' for Inactive)
REMARK    1  A    between atoms: C_3  and  C_4 
REMARK    2  A    between atoms: C_4  and  C_5 
REMARK       I    between atoms: C_5  and  N_6 
REMARK    3  A    between atoms: N_6  and  C_7 
REMARK    4  A    between atoms: C_7  and  C_8 
REMARK    5  A    between atoms: C_8  and  O_9 
REMARK    6  A    between atoms: C_15  and  N_16 
REMARK    7  A    between atoms: N_16  and  C_17 
REMARK    8  A    between atoms: C_26  and  C_27 
REMARK    9  A    between atoms: C_27  and  O_28 
REMARK   10  A    between atoms: C_30  and  O_31 
ROOT
HETATM    1  C   UNL     1      42.463 -12.587  -1.752  1.00  0.00     0.016 C 
HETATM    2  C   UNL     1      41.028 -12.615  -1.130  1.00  0.00    -0.030 C 
HETATM    3  C   UNL     1      40.588 -14.126  -0.848  1.00  0.00     0.056 C 
HETATM    4  C   UNL     1      41.187 -14.619   0.453  1.00  0.00     0.055 C 
HETATM    5  C   UNL     1      41.862 -13.818   1.348  1.00  0.00     0.011 C 
HETATM    6  S   UNL     1      42.409 -14.731   2.671  1.00  0.00    -0.060 SA
HETATM    7  C   UNL     1      41.474 -16.070   2.105  1.00  0.00     0.150 C 
HETATM    8  N   UNL     1      40.958 -15.908   0.903  1.00  0.00    -0.232 NA
HETATM    9  C   UNL     1      42.071 -12.351   1.226  1.00  0.00     0.054 C 
HETATM   10  C   UNL     1      41.066 -11.752   0.203  1.00  0.00     0.012 C 
HETATM   11  C   UNL     1      39.647 -11.335   0.803  1.00  0.00     0.008 C 
HETATM   12  C   UNL     1      39.850  -9.955   1.495  1.00  0.00     0.020 C 
HETATM   13  C   UNL     1      38.598 -11.129  -0.334  1.00  0.00     0.128 C 
HETATM   14  C   UNL     1      39.250 -10.796  -1.668  1.00  0.00     0.033 C 
HETATM   15  C   UNL     1      40.079 -11.969  -2.188  1.00  0.00     0.013 C 
ENDROOT
BRANCH   3  16
HETATM   16  C   UNL     1      40.937 -15.062  -2.023  1.00  0.00     0.114 C 
BRANCH  16  17
HETATM   17  C   UNL     1      39.866 -15.215  -3.086  1.00  0.00     0.218 C 
HETATM   18  N   UNL     1      38.574 -15.093  -2.653  1.00  0.00    -0.359 N 
HETATM   19  H   UNL     1      38.397 -14.634  -1.757  1.00  0.00     0.162 HD
HETATM   20  O   UNL     1      40.156 -15.532  -4.239  1.00  0.00    -0.274 OA
BRANCH  18  21
HETATM   21  C   UNL     1      37.451 -15.434  -3.504  1.00  0.00     0.148 C 
BRANCH  21  22
HETATM   22  C   UNL     1      36.801 -14.227  -4.193  1.00  0.00     0.186 C 
BRANCH  22  23
HETATM   23  O   UNL     1      35.667 -14.571  -4.996  1.00  0.00    -0.394 OA
HETATM   24  C   UNL     1      35.456 -13.672  -6.079  1.00  0.00     0.201 C 
ENDBRANCH  22  23
ENDBRANCH  21  22
ENDBRANCH  18  21
ENDBRANCH  16  17
ENDBRANCH   3  16
BRANCH  11  25
HETATM   25  C   UNL     1      39.042 -12.297   1.862  1.00  0.00     0.176 C 
BRANCH  25  26
HETATM   26  O   UNL     1      37.910 -11.738   2.521  1.00  0.00    -0.400 OA
HETATM   27  H   UNL     1      37.454 -11.186   1.860  1.00  0.00     0.209 HD
ENDBRANCH  25  26
ENDBRANCH  11  25
BRANCH   7  28
HETATM   28  N   UNL     1      41.317 -17.154   2.909  1.00  0.00    -0.238 NA
HETATM   29  H   UNL     1      40.469 -17.673   2.702  1.00  0.00     0.136 HD
BRANCH  28  30
HETATM   30  C   UNL     1      42.369 -18.089   3.123  1.00  0.00     0.014 A 
HETATM   31  C   UNL     1      42.976 -18.302   4.367  1.00  0.00     0.024 A 
HETATM   32  C   UNL     1      44.019 -19.224   4.511  1.00  0.00     0.002 A 
HETATM   33  C   UNL     1      44.444 -19.977   3.422  1.00  0.00     0.000 A 
HETATM   34  C   UNL     1      43.817 -19.820   2.189  1.00  0.00     0.002 A 
HETATM   35  C   UNL     1      42.780 -18.892   2.046  1.00  0.00     0.024 A 
ENDBRANCH  28  30
ENDBRANCH   7  28
BRANCH  13  36
HETATM   36  O   UNL     1      37.792 -12.295  -0.506  1.00  0.00    -0.395 OA
HETATM   37  H   UNL     1      37.614 -12.400  -1.457  1.00  0.00     0.210 HD
ENDBRANCH  13  36
TORSDOF 10
ENDMDL
MODEL 4
REMARK VINA RESULT:      -7.4      3.245      7.543
REMARK  10 active torsions:
REMARK  status: ('A' for Active; 'I' for Inactive)
REMARK    1  A    between atoms: C_3  and  C_4 
REMARK    2  A    between atoms: C_4  and  C_5 
REMARK       I    between atoms: C_5  and  N_6 
REMARK    3  A    between atoms: N_6  and  C_7 
REMARK    4  A    between atoms: C_7  and  C_8 
REMARK    5  A    between atoms: C_8  and  O_9 
REMARK    6  A    between atoms: C_15  and  N_16 
REMARK    7  A    between atoms: N_16  and  C_17 
REMARK    8  A    between atoms: C_26  and  C_27 
REMARK    9  A    between atoms: C_27  and  O_28 
REMARK   10  A    between atoms: C_30  and  O_31 
ROOT
HETATM    1  C   UNL     1      39.659 -16.491   2.134  1.00  0.00     0.016 C 
HETATM    2  C   UNL     1      40.760 -15.932   3.094  1.00  0.00    -0.030 C 
HETATM    3  C   UNL     1      41.993 -15.377   2.242  1.00  0.00     0.056 C 
HETATM    4  C   UNL     1      41.699 -13.983   1.729  1.00  0.00     0.055 C 
HETATM    5  C   UNL     1      40.602 -13.236   2.101  1.00  0.00     0.011 C 
HETATM    6  S   UNL     1      40.599 -11.739   1.298  1.00  0.00    -0.060 SA
HETATM    7  C   UNL     1      42.198 -12.069   0.727  1.00  0.00     0.150 C 
HETATM    8  N   UNL     1      42.616 -13.298   0.951  1.00  0.00    -0.232 NA
HETATM    9  C   UNL     1      39.564 -13.635   3.087  1.00  0.00     0.054 C 
HETATM   10  C   UNL     1      40.092 -14.794   3.978  1.00  0.00     0.012 C 
HETATM   11  C   UNL     1      40.915 -14.343   5.269  1.00  0.00     0.008 C 
HETATM   12  C   UNL     1      39.861 -13.927   6.339  1.00  0.00     0.020 C 
HETATM   13  C   UNL     1      41.723 -15.539   5.863  1.00  0.00     0.128 C 
HETATM   14  C   UNL     1      41.124 -16.886   5.486  1.00  0.00     0.033 C 
HETATM   15  C   UNL     1      41.218 -17.133   3.982  1.00  0.00     0.013 C 
ENDROOT
BRANCH   3  16
HETATM   16  C   UNL     1      42.384 -16.332   1.096  1.00  0.00     0.114 C 
BRANCH  16  17
HETATM   17  C   UNL     1      43.526 -17.284   1.389  1.00  0.00     0.218 C 
HETATM   18  N   UNL     1      43.168 -18.525   1.842  1.00  0.00    -0.359 N 
HETATM   19  H   UNL     1      42.210 -18.846   1.688  1.00  0.00     0.162 HD
HETATM   20  O   UNL     1      44.698 -16.914   1.316  1.00  0.00    -0.274 OA
BRANCH  18  21
HETATM   21  C   UNL     1      44.147 -19.454   2.370  1.00  0.00     0.148 C 
BRANCH  21  22
HETATM   22  C   UNL     1      44.142 -19.564   3.900  1.00  0.00     0.186 C 
BRANCH  22  23
HETATM   23  O   UNL     1      44.416 -18.325   4.562  1.00  0.00    -0.394 OA
HETATM   24  C   UNL     1      44.857 -18.494   5.904  1.00  0.00     0.201 C 
ENDBRANCH  22  23
ENDBRANCH  21  22
ENDBRANCH  18  21
ENDBRANCH  16  17
ENDBRANCH   3  16
BRANCH  11  25
HETATM   25  C   UNL     1      41.880 -13.141   5.082  1.00  0.00     0.176 C 
BRANCH  25  26
HETATM   26  O   UNL     1      42.512 -12.755   6.298  1.00  0.00    -0.400 OA
HETATM   27  H   UNL     1      43.262 -12.185   6.047  1.00  0.00     0.209 HD
ENDBRANCH  25  26
ENDBRANCH  11  25
BRANCH   7  28
HETATM   28  N   UNL     1      42.903 -11.074   0.127  1.00  0.00    -0.238 NA
HETATM   29  H   UNL     1      43.895 -11.115   0.344  1.00  0.00     0.136 HD
BRANCH  28  30
HETATM   30  C   UNL     1      42.763 -10.786  -1.260  1.00  0.00     0.014 A 
HETATM   31  C   UNL     1      42.900  -9.501  -1.802  1.00  0.00     0.024 A 
HETATM   32  C   UNL     1      42.733  -9.278  -3.173  1.00  0.00     0.002 A 
HETATM   33  C   UNL     1      42.467 -10.341  -4.030  1.00  0.00     0.000 A 
HETATM   34  C   UNL     1      42.382 -11.632  -3.518  1.00  0.00     0.002 A 
HETATM   35  C   UNL     1      42.541 -11.853  -2.146  1.00  0.00     0.024 A 
ENDBRANCH  28  30
ENDBRANCH   7  28
BRANCH  13  36
HETATM   36  O   UNL     1      43.080 -15.510   5.418  1.00  0.00    -0.395 OA
HETATM   37  H   UNL     1      43.643 -15.827   6.147  1.00  0.00     0.210 HD
ENDBRANCH  13  36
TORSDOF 10
ENDMDL
MODEL 5
REMARK VINA RESULT:      -7.2      2.960      6.856
REMARK  10 active torsions:
REMARK  status: ('A' for Active; 'I' for Inactive)
REMARK    1  A    between atoms: C_3  and  C_4 
REMARK    2  A    between atoms: C_4  and  C_5 
REMARK       I    between atoms: C_5  and  N_6 
REMARK    3  A    between atoms: N_6  and  C_7 
REMARK    4  A    between atoms: C_7  and  C_8 
REMARK    5  A    between atoms: C_8  and  O_9 
REMARK    6  A    between atoms: C_15  and  N_16 
REMARK    7  A    between atoms: N_16  and  C_17 
REMARK    8  A    between atoms: C_26  and  C_27 
REMARK    9  A    between atoms: C_27  and  O_28 
REMARK   10  A    between atoms: C_30  and  O_31 
ROOT
HETATM    1  C   UNL     1      40.612 -17.110   4.596  1.00  0.00     0.016 C 
HETATM    2  C   UNL     1      41.674 -16.021   4.231  1.00  0.00    -0.030 C 
HETATM    3  C   UNL     1      41.864 -15.958   2.644  1.00  0.00     0.056 C 
HETATM    4  C   UNL     1      40.763 -15.132   2.011  1.00  0.00     0.055 C 
HETATM    5  C   UNL     1      39.841 -14.394   2.721  1.00  0.00     0.011 C 
HETATM    6  S   UNL     1      38.752 -13.627   1.668  1.00  0.00    -0.060 SA
HETATM    7  C   UNL     1      39.745 -14.099   0.334  1.00  0.00     0.150 C 
HETATM    8  N   UNL     1      40.708 -14.946   0.640  1.00  0.00    -0.232 NA
HETATM    9  C   UNL     1      39.796 -14.238   4.199  1.00  0.00     0.054 C 
HETATM   10  C   UNL     1      41.164 -14.637   4.820  1.00  0.00     0.012 C 
HETATM   11  C   UNL     1      42.249 -13.469   4.893  1.00  0.00     0.008 C 
HETATM   12  C   UNL     1      41.877 -12.600   6.131  1.00  0.00     0.020 C 
HETATM   13  C   UNL     1      43.675 -14.047   5.149  1.00  0.00     0.128 C 
HETATM   14  C   UNL     1      43.635 -15.409   5.825  1.00  0.00     0.033 C 
HETATM   15  C   UNL     1      43.007 -16.462   4.913  1.00  0.00     0.013 C 
ENDROOT
BRANCH   3  16
HETATM   16  C   UNL     1      41.953 -17.362   2.014  1.00  0.00     0.114 C 
BRANCH  16  17
HETATM   17  C   UNL     1      43.334 -17.986   1.983  1.00  0.00     0.218 C 
HETATM   18  N   UNL     1      43.404 -19.301   2.356  1.00  0.00    -0.359 N 
HETATM   19  H   UNL     1      42.548 -19.860   2.349  1.00  0.00     0.162 HD
HETATM   20  O   UNL     1      44.332 -17.310   1.735  1.00  0.00    -0.274 OA
BRANCH  18  21
HETATM   21  C   UNL     1      44.674 -19.960   2.588  1.00  0.00     0.148 C 
BRANCH  21  22
HETATM   22  C   UNL     1      44.854 -20.484   4.018  1.00  0.00     0.186 C 
BRANCH  22  23
HETATM   23  O   UNL     1      44.803 -19.456   5.013  1.00  0.00    -0.394 OA
HETATM   24  C   UNL     1      44.047 -19.827   6.160  1.00  0.00     0.201 C 
ENDBRANCH  22  23
ENDBRANCH  21  22
ENDBRANCH  18  21
ENDBRANCH  16  17
ENDBRANCH   3  16
BRANCH  11  25
HETATM   25  C   UNL     1      42.315 -12.518   3.667  1.00  0.00     0.176 C 
BRANCH  25  26
HETATM   26  O   UNL     1      41.753 -11.239   3.938  1.00  0.00    -0.400 OA
HETATM   27  H   UNL     1      40.978 -11.396   4.508  1.00  0.00     0.209 HD
ENDBRANCH  25  26
ENDBRANCH  11  25
BRANCH   7  28
HETATM   28  N   UNL     1      39.495 -13.574  -0.894  1.00  0.00    -0.238 NA
HETATM   29  H   UNL     1      40.179 -12.873  -1.164  1.00  0.00     0.136 HD
BRANCH  28  30
HETATM   30  C   UNL     1      39.235 -14.399  -2.025  1.00  0.00     0.014 A 
HETATM   31  C   UNL     1      40.193 -15.236  -2.611  1.00  0.00     0.024 A 
HETATM   32  C   UNL     1      39.881 -16.011  -3.734  1.00  0.00     0.002 A 
HETATM   33  C   UNL     1      38.596 -15.992  -4.264  1.00  0.00     0.000 A 
HETATM   34  C   UNL     1      37.615 -15.208  -3.663  1.00  0.00     0.002 A 
HETATM   35  C   UNL     1      37.930 -14.428  -2.546  1.00  0.00     0.024 A 
ENDBRANCH  28  30
ENDBRANCH   7  28
BRANCH  13  36
HETATM   36  O   UNL     1      44.404 -14.172   3.927  1.00  0.00    -0.395 OA
HETATM   37  H   UNL     1      43.855 -13.806   3.211  1.00  0.00     0.210 HD
ENDBRANCH  13  36
TORSDOF 10
ENDMDL
MODEL 6
REMARK VINA RESULT:      -7.2      2.495      6.272
REMARK  10 active torsions:
REMARK  status: ('A' for Active; 'I' for Inactive)
REMARK    1  A    between atoms: C_3  and  C_4 
REMARK    2  A    between atoms: C_4  and  C_5 
REMARK       I    between atoms: C_5  and  N_6 
REMARK    3  A    between atoms: N_6  and  C_7 
REMARK    4  A    between atoms: C_7  and  C_8 
REMARK    5  A    between atoms: C_8  and  O_9 
REMARK    6  A    between atoms: C_15  and  N_16 
REMARK    7  A    between atoms: N_16  and  C_17 
REMARK    8  A    between atoms: C_26  and  C_27 
REMARK    9  A    between atoms: C_27  and  O_28 
REMARK   10  A    between atoms: C_30  and  O_31 
ROOT
HETATM    1  C   UNL     1      40.871 -12.748   1.968  1.00  0.00     0.016 C 
HETATM    2  C   UNL     1      40.694 -13.672   3.218  1.00  0.00    -0.030 C 
HETATM    3  C   UNL     1      40.275 -15.142   2.750  1.00  0.00     0.056 C 
HETATM    4  C   UNL     1      41.494 -15.927   2.313  1.00  0.00     0.055 C 
HETATM    5  C   UNL     1      42.793 -15.493   2.471  1.00  0.00     0.011 C 
HETATM    6  S   UNL     1      43.883 -16.630   1.835  1.00  0.00    -0.060 SA
HETATM    7  C   UNL     1      42.575 -17.745   1.646  1.00  0.00     0.150 C 
HETATM    8  N   UNL     1      41.380 -17.227   1.851  1.00  0.00    -0.232 NA
HETATM    9  C   UNL     1      43.220 -14.232   3.130  1.00  0.00     0.054 C 
HETATM   10  C   UNL     1      42.069 -13.673   4.012  1.00  0.00     0.012 C 
HETATM   11  C   UNL     1      42.012 -14.242   5.502  1.00  0.00     0.008 C 
HETATM   12  C   UNL     1      43.087 -13.460   6.314  1.00  0.00     0.020 C 
HETATM   13  C   UNL     1      40.630 -13.942   6.162  1.00  0.00     0.128 C 
HETATM   14  C   UNL     1      39.933 -12.748   5.527  1.00  0.00     0.033 C 
HETATM   15  C   UNL     1      39.553 -13.036   4.075  1.00  0.00     0.013 C 
ENDROOT
BRANCH   3  16
HETATM   16  C   UNL     1      39.193 -15.116   1.652  1.00  0.00     0.114 C 
BRANCH  16  17
HETATM   17  C   UNL     1      39.653 -14.660   0.282  1.00  0.00     0.218 C 
HETATM   18  N   UNL     1      40.513 -15.503  -0.371  1.00  0.00    -0.359 N 
HETATM   19  H   UNL     1      40.569 -16.477  -0.068  1.00  0.00     0.162 HD
HETATM   20  O   UNL     1      39.345 -13.552  -0.157  1.00  0.00    -0.274 OA
BRANCH  18  21
HETATM   21  C   UNL     1      41.204 -15.098  -1.579  1.00  0.00     0.148 C 
BRANCH  21  22
HETATM   22  C   UNL     1      40.680 -15.772  -2.853  1.00  0.00     0.186 C 
BRANCH  22  23
HETATM   23  O   UNL     1      39.307 -15.478  -3.131  1.00  0.00    -0.394 OA
HETATM   24  C   UNL     1      38.840 -16.076  -4.334  1.00  0.00     0.201 C 
ENDBRANCH  22  23
ENDBRANCH  21  22
ENDBRANCH  18  21
ENDBRANCH  16  17
ENDBRANCH   3  16
BRANCH  11  25
HETATM   25  C   UNL     1      42.319 -15.755   5.670  1.00  0.00     0.176 C 
BRANCH  25  26
HETATM   26  O   UNL     1      42.317 -16.163   7.034  1.00  0.00    -0.400 OA
HETATM   27  H   UNL     1      42.163 -17.126   7.032  1.00  0.00     0.209 HD
ENDBRANCH  25  26
ENDBRANCH  11  25
BRANCH   7  28
HETATM   28  N   UNL     1      42.849 -19.039   1.334  1.00  0.00    -0.238 NA
HETATM   29  H   UNL     1      43.298 -19.133   0.427  1.00  0.00     0.136 HD
BRANCH  28  30
HETATM   30  C   UNL     1      43.507 -19.909   2.248  1.00  0.00     0.014 A 
HETATM   31  C   UNL     1      43.913 -19.521   3.532  1.00  0.00     0.024 A 
HETATM   32  C   UNL     1      44.573 -20.418   4.379  1.00  0.00     0.002 A 
HETATM   33  C   UNL     1      44.800 -21.729   3.973  1.00  0.00     0.000 A 
HETATM   34  C   UNL     1      44.356 -22.149   2.723  1.00  0.00     0.002 A 
HETATM   35  C   UNL     1      43.704 -21.249   1.874  1.00  0.00     0.024 A 
ENDBRANCH  28  30
ENDBRANCH   7  28
BRANCH  13  36
HETATM   36  O   UNL     1      39.762 -15.072   6.070  1.00  0.00    -0.395 OA
HETATM   37  H   UNL     1      39.734 -15.354   5.138  1.00  0.00     0.210 HD
ENDBRANCH  13  36
TORSDOF 10
ENDMDL
MODEL 7
REMARK VINA RESULT:      -7.2      3.434      7.757
REMARK  10 active torsions:
REMARK  status: ('A' for Active; 'I' for Inactive)
REMARK    1  A    between atoms: C_3  and  C_4 
REMARK    2  A    between atoms: C_4  and  C_5 
REMARK       I    between atoms: C_5  and  N_6 
REMARK    3  A    between atoms: N_6  and  C_7 
REMARK    4  A    between atoms: C_7  and  C_8 
REMARK    5  A    between atoms: C_8  and  O_9 
REMARK    6  A    between atoms: C_15  and  N_16 
REMARK    7  A    between atoms: N_16  and  C_17 
REMARK    8  A    between atoms: C_26  and  C_27 
REMARK    9  A    between atoms: C_27  and  O_28 
REMARK   10  A    between atoms: C_30  and  O_31 
ROOT
HETATM    1  C   UNL     1      39.781 -17.002   2.205  1.00  0.00     0.016 C 
HETATM    2  C   UNL     1      40.875 -15.964   2.619  1.00  0.00    -0.030 C 
HETATM    3  C   UNL     1      41.866 -15.700   1.392  1.00  0.00     0.056 C 
HETATM    4  C   UNL     1      41.257 -14.708   0.423  1.00  0.00     0.055 C 
HETATM    5  C   UNL     1      40.099 -14.001   0.663  1.00  0.00     0.011 C 
HETATM    6  S   UNL     1      39.719 -13.011  -0.664  1.00  0.00    -0.060 SA
HETATM    7  C   UNL     1      41.263 -13.375  -1.350  1.00  0.00     0.150 C 
HETATM    8  N   UNL     1      41.926 -14.332  -0.729  1.00  0.00    -0.232 NA
HETATM    9  C   UNL     1      39.288 -14.045   1.908  1.00  0.00     0.054 C 
HETATM   10  C   UNL     1      40.130 -14.637   3.073  1.00  0.00     0.012 C 
HETATM   11  C   UNL     1      41.015 -13.582   3.880  1.00  0.00     0.008 C 
HETATM   12  C   UNL     1      40.050 -12.863   4.869  1.00  0.00     0.020 C 
HETATM   13  C   UNL     1      42.099 -14.305   4.740  1.00  0.00     0.128 C 
HETATM   14  C   UNL     1      41.713 -15.739   5.071  1.00  0.00     0.033 C 
HETATM   15  C   UNL     1      41.656 -16.602   3.811  1.00  0.00     0.013 C 
ENDROOT
BRANCH   3  16
HETATM   16  C   UNL     1      42.274 -17.008   0.684  1.00  0.00     0.114 C 
BRANCH  16  17
HETATM   17  C   UNL     1      43.462 -17.738   1.277  1.00  0.00     0.218 C 
HETATM   18  N   UNL     1      43.221 -19.011   1.718  1.00  0.00    -0.359 N 
HETATM   19  H   UNL     1      42.389 -19.499   1.379  1.00  0.00     0.162 HD
HETATM   20  O   UNL     1      44.542 -17.170   1.439  1.00  0.00    -0.274 OA
BRANCH  18  21
HETATM   21  C   UNL     1      44.196 -19.742   2.504  1.00  0.00     0.148 C 
BRANCH  21  22
HETATM   22  C   UNL     1      44.190 -21.255   2.255  1.00  0.00     0.186 C 
BRANCH  22  23
HETATM   23  O   UNL     1      44.541 -22.024   3.410  1.00  0.00    -0.394 OA
HETATM   24  C   UNL     1      44.908 -21.222   4.526  1.00  0.00     0.201 C 
ENDBRANCH  22  23
ENDBRANCH  21  22
ENDBRANCH  18  21
ENDBRANCH  16  17
ENDBRANCH   3  16
BRANCH  11  25
HETATM   25  C   UNL     1      41.711 -12.481   3.034  1.00  0.00     0.176 C 
BRANCH  25  26
HETATM   26  O   UNL     1      41.779 -11.233   3.715  1.00  0.00    -0.400 OA
HETATM   27  H   UNL     1      40.890 -10.839   3.655  1.00  0.00     0.209 HD
ENDBRANCH  25  26
ENDBRANCH  11  25
BRANCH   7  28
HETATM   28  N   UNL     1      41.692 -12.668  -2.428  1.00  0.00    -0.238 NA
HETATM   29  H   UNL     1      41.013 -12.662  -3.184  1.00  0.00     0.136 HD
BRANCH  28  30
HETATM   30  C   UNL     1      42.226 -11.355  -2.300  1.00  0.00     0.014 A 
HETATM   31  C   UNL     1      41.834 -10.276  -3.104  1.00  0.00     0.024 A 
HETATM   32  C   UNL     1      42.410  -9.012  -2.942  1.00  0.00     0.002 A 
HETATM   33  C   UNL     1      43.356  -8.794  -1.946  1.00  0.00     0.000 A 
HETATM   34  C   UNL     1      43.719  -9.839  -1.101  1.00  0.00     0.002 A 
HETATM   35  C   UNL     1      43.148 -11.105  -1.270  1.00  0.00     0.024 A 
ENDBRANCH  28  30
ENDBRANCH   7  28
BRANCH  13  36
HETATM   36  O   UNL     1      43.358 -14.321   4.067  1.00  0.00    -0.395 OA
HETATM   37  H   UNL     1      43.667 -13.401   3.985  1.00  0.00     0.210 HD
ENDBRANCH  13  36
TORSDOF 10
ENDMDL
MODEL 8
REMARK VINA RESULT:      -7.1      3.666      7.226
REMARK  10 active torsions:
REMARK  status: ('A' for Active; 'I' for Inactive)
REMARK    1  A    between atoms: C_3  and  C_4 
REMARK    2  A    between atoms: C_4  and  C_5 
REMARK       I    between atoms: C_5  and  N_6 
REMARK    3  A    between atoms: N_6  and  C_7 
REMARK    4  A    between atoms: C_7  and  C_8 
REMARK    5  A    between atoms: C_8  and  O_9 
REMARK    6  A    between atoms: C_15  and  N_16 
REMARK    7  A    between atoms: N_16  and  C_17 
REMARK    8  A    between atoms: C_26  and  C_27 
REMARK    9  A    between atoms: C_27  and  O_28 
REMARK   10  A    between atoms: C_30  and  O_31 
ROOT
HETATM    1  C   UNL     1      42.230 -12.191  -0.423  1.00  0.00     0.016 C 
HETATM    2  C   UNL     1      40.942 -12.907   0.103  1.00  0.00    -0.030 C 
HETATM    3  C   UNL     1      40.940 -14.435  -0.367  1.00  0.00     0.056 C 
HETATM    4  C   UNL     1      41.809 -15.272   0.548  1.00  0.00     0.055 C 
HETATM    5  C   UNL     1      42.369 -14.812   1.720  1.00  0.00     0.011 C 
HETATM    6  S   UNL     1      43.298 -16.030   2.456  1.00  0.00    -0.060 SA
HETATM    7  C   UNL     1      42.667 -17.167   1.317  1.00  0.00     0.150 C 
HETATM    8  N   UNL     1      41.975 -16.630   0.332  1.00  0.00    -0.232 NA
HETATM    9  C   UNL     1      42.182 -13.460   2.308  1.00  0.00     0.054 C 
HETATM   10  C   UNL     1      40.934 -12.776   1.686  1.00  0.00     0.012 C 
HETATM   11  C   UNL     1      39.546 -13.102   2.404  1.00  0.00     0.008 C 
HETATM   12  C   UNL     1      39.481 -12.195   3.670  1.00  0.00     0.020 C 
HETATM   13  C   UNL     1      38.340 -12.708   1.495  1.00  0.00     0.128 C 
HETATM   14  C   UNL     1      38.707 -11.634   0.482  1.00  0.00     0.033 C 
HETATM   15  C   UNL     1      39.730 -12.150  -0.527  1.00  0.00     0.013 C 
ENDROOT
BRANCH   3  16
HETATM   16  C   UNL     1      41.358 -14.589  -1.843  1.00  0.00     0.114 C 
BRANCH  16  17
HETATM   17  C   UNL     1      40.228 -14.582  -2.854  1.00  0.00     0.218 C 
HETATM   18  N   UNL     1      39.454 -15.710  -2.891  1.00  0.00    -0.359 N 
HETATM   19  H   UNL     1      39.471 -16.345  -2.090  1.00  0.00     0.162 HD
HETATM   20  O   UNL     1      40.095 -13.655  -3.652  1.00  0.00    -0.274 OA
BRANCH  18  21
HETATM   21  C   UNL     1      38.487 -15.935  -3.948  1.00  0.00     0.148 C 
BRANCH  21  22
HETATM   22  C   UNL     1      37.189 -15.136  -3.787  1.00  0.00     0.186 C 
BRANCH  22  23
HETATM   23  O   UNL     1      36.512 -14.891  -5.024  1.00  0.00    -0.394 OA
HETATM   24  C   UNL     1      35.333 -14.109  -4.871  1.00  0.00     0.201 C 
ENDBRANCH  22  23
ENDBRANCH  21  22
ENDBRANCH  18  21
ENDBRANCH  16  17
ENDBRANCH   3  16
BRANCH  11  25
HETATM   25  C   UNL     1      39.348 -14.568   2.878  1.00  0.00     0.176 C 
BRANCH  25  26
HETATM   26  O   UNL     1      39.591 -14.727   4.272  1.00  0.00    -0.400 OA
HETATM   27  H   UNL     1      40.507 -15.049   4.355  1.00  0.00     0.209 HD
ENDBRANCH  25  26
ENDBRANCH  11  25
BRANCH   7  28
HETATM   28  N   UNL     1      42.896 -18.493   1.511  1.00  0.00    -0.238 NA
HETATM   29  H   UNL     1      43.420 -18.913   0.749  1.00  0.00     0.136 HD
BRANCH  28  30
HETATM   30  C   UNL     1      43.417 -18.993   2.737  1.00  0.00     0.014 A 
HETATM   31  C   UNL     1      44.525 -19.846   2.819  1.00  0.00     0.024 A 
HETATM   32  C   UNL     1      44.979 -20.319   4.055  1.00  0.00     0.002 A 
HETATM   33  C   UNL     1      44.358 -19.914   5.232  1.00  0.00     0.000 A 
HETATM   34  C   UNL     1      43.289 -19.025   5.176  1.00  0.00     0.002 A 
HETATM   35  C   UNL     1      42.832 -18.559   3.939  1.00  0.00     0.024 A 
ENDBRANCH  28  30
ENDBRANCH   7  28
BRANCH  13  36
HETATM   36  O   UNL     1      37.841 -13.843   0.787  1.00  0.00    -0.395 OA
HETATM   37  H   UNL     1      38.598 -14.302   0.382  1.00  0.00     0.210 HD
ENDBRANCH  13  36
TORSDOF 10
ENDMDL
MODEL 9
REMARK VINA RESULT:      -7.1      3.524      7.585
REMARK  10 active torsions:
REMARK  status: ('A' for Active; 'I' for Inactive)
REMARK    1  A    between atoms: C_3  and  C_4 
REMARK    2  A    between atoms: C_4  and  C_5 
REMARK       I    between atoms: C_5  and  N_6 
REMARK    3  A    between atoms: N_6  and  C_7 
REMARK    4  A    between atoms: C_7  and  C_8 
REMARK    5  A    between atoms: C_8  and  O_9 
REMARK    6  A    between atoms: C_15  and  N_16 
REMARK    7  A    between atoms: N_16  and  C_17 
REMARK    8  A    between atoms: C_26  and  C_27 
REMARK    9  A    between atoms: C_27  and  O_28 
REMARK   10  A    between atoms: C_30  and  O_31 
ROOT
HETATM    1  C   UNL     1      44.255 -14.150   3.606  1.00  0.00     0.016 C 
HETATM    2  C   UNL     1      42.878 -14.885   3.519  1.00  0.00    -0.030 C 
HETATM    3  C   UNL     1      42.063 -14.675   4.878  1.00  0.00     0.056 C 
HETATM    4  C   UNL     1      41.371 -13.328   4.879  1.00  0.00     0.055 C 
HETATM    5  C   UNL     1      41.307 -12.489   3.788  1.00  0.00     0.011 C 
HETATM    6  S   UNL     1      40.475 -11.061   4.181  1.00  0.00    -0.060 SA
HETATM    7  C   UNL     1      40.014 -11.772   5.688  1.00  0.00     0.150 C 
HETATM    8  N   UNL     1      40.614 -12.913   5.961  1.00  0.00    -0.232 NA
HETATM    9  C   UNL     1      41.847 -12.772   2.433  1.00  0.00     0.054 C 
HETATM   10  C   UNL     1      42.098 -14.297   2.266  1.00  0.00     0.012 C 
HETATM   11  C   UNL     1      40.843 -15.146   1.766  1.00  0.00     0.008 C 
HETATM   12  C   UNL     1      40.755 -14.936   0.225  1.00  0.00     0.020 C 
HETATM   13  C   UNL     1      41.066 -16.671   2.009  1.00  0.00     0.128 C 
HETATM   14  C   UNL     1      42.542 -17.033   2.091  1.00  0.00     0.033 C 
HETATM   15  C   UNL     1      43.201 -16.400   3.316  1.00  0.00     0.013 C 
ENDROOT
BRANCH   3  16
HETATM   16  C   UNL     1      42.955 -14.855   6.123  1.00  0.00     0.114 C 
BRANCH  16  17
HETATM   17  C   UNL     1      43.073 -16.271   6.652  1.00  0.00     0.218 C 
HETATM   18  N   UNL     1      44.337 -16.796   6.677  1.00  0.00    -0.359 N 
HETATM   19  H   UNL     1      45.135 -16.158   6.629  1.00  0.00     0.162 HD
HETATM   20  O   UNL     1      42.073 -16.928   6.940  1.00  0.00    -0.274 OA
BRANCH  18  21
HETATM   21  C   UNL     1      44.572 -18.201   6.944  1.00  0.00     0.148 C 
BRANCH  21  22
HETATM   22  C   UNL     1      45.036 -19.000   5.720  1.00  0.00     0.186 C 
BRANCH  22  23
HETATM   23  O   UNL     1      43.958 -19.504   4.926  1.00  0.00    -0.394 OA
HETATM   24  C   UNL     1      44.375 -19.965   3.646  1.00  0.00     0.201 C 
ENDBRANCH  22  23
ENDBRANCH  21  22
ENDBRANCH  18  21
ENDBRANCH  16  17
ENDBRANCH   3  16
BRANCH  11  25
HETATM   25  C   UNL     1      39.465 -14.749   2.363  1.00  0.00     0.176 C 
BRANCH  25  26
HETATM   26  O   UNL     1      38.396 -15.521   1.827  1.00  0.00    -0.400 OA
HETATM   27  H   UNL     1      38.428 -16.383   2.279  1.00  0.00     0.209 HD
ENDBRANCH  25  26
ENDBRANCH  11  25
BRANCH   7  28
HETATM   28  N   UNL     1      39.083 -11.147   6.456  1.00  0.00    -0.238 NA
HETATM   29  H   UNL     1      38.296 -11.748   6.679  1.00  0.00     0.136 HD
BRANCH  28  30
HETATM   30  C   UNL     1      39.440 -10.427   7.631  1.00  0.00     0.014 A 
HETATM   31  C   UNL     1      39.777  -9.068   7.635  1.00  0.00     0.024 A 
HETATM   32  C   UNL     1      40.137  -8.419   8.822  1.00  0.00     0.002 A 
HETATM   33  C   UNL     1      40.126  -9.109  10.029  1.00  0.00     0.000 A 
HETATM   34  C   UNL     1      39.741 -10.446  10.054  1.00  0.00     0.002 A 
HETATM   35  C   UNL     1      39.389 -11.095   8.866  1.00  0.00     0.024 A 
ENDBRANCH  28  30
ENDBRANCH   7  28
BRANCH  13  36
HETATM   36  O   UNL     1      40.431 -17.095   3.216  1.00  0.00    -0.395 OA
HETATM   37  H   UNL     1      40.494 -16.368   3.861  1.00  0.00     0.210 HD
ENDBRANCH  13  36
TORSDOF 10
ENDMDL
MODEL 10
REMARK VINA RESULT:      -6.8      3.262      6.879
REMARK  10 active torsions:
REMARK  status: ('A' for Active; 'I' for Inactive)
REMARK    1  A    between atoms: C_3  and  C_4 
REMARK    2  A    between atoms: C_4  and  C_5 
REMARK       I    between atoms: C_5  and  N_6 
REMARK    3  A    between atoms: N_6  and  C_7 
REMARK    4  A    between atoms: C_7  and  C_8 
REMARK    5  A    between atoms: C_8  and  O_9 
REMARK    6  A    between atoms: C_15  and  N_16 
REMARK    7  A    between atoms: N_16  and  C_17 
REMARK    8  A    between atoms: C_26  and  C_27 
REMARK    9  A    between atoms: C_27  and  O_28 
REMARK   10  A    between atoms: C_30  and  O_31 
ROOT
HETATM    1  C   UNL     1      42.122 -11.706   0.897  1.00  0.00     0.016 C 
HETATM    2  C   UNL     1      40.874 -11.932   1.811  1.00  0.00    -0.030 C 
HETATM    3  C   UNL     1      40.358 -13.438   1.663  1.00  0.00     0.056 C 
HETATM    4  C   UNL     1      41.186 -14.369   2.524  1.00  0.00     0.055 C 
HETATM    5  C   UNL     1      42.127 -13.948   3.438  1.00  0.00     0.011 C 
HETATM    6  S   UNL     1      42.867 -15.280   4.189  1.00  0.00    -0.060 SA
HETATM    7  C   UNL     1      41.694 -16.317   3.454  1.00  0.00     0.150 C 
HETATM    8  N   UNL     1      40.935 -15.731   2.550  1.00  0.00    -0.232 NA
HETATM    9  C   UNL     1      42.451 -12.537   3.774  1.00  0.00     0.054 C 
HETATM   10  C   UNL     1      41.305 -11.599   3.304  1.00  0.00     0.012 C 
HETATM   11  C   UNL     1      40.112 -11.402   4.345  1.00  0.00     0.008 C 
HETATM   12  C   UNL     1      40.609 -10.360   5.392  1.00  0.00     0.020 C 
HETATM   13  C   UNL     1      38.857 -10.789   3.649  1.00  0.00     0.128 C 
HETATM   14  C   UNL     1      39.216 -10.014   2.390  1.00  0.00     0.033 C 
HETATM   15  C   UNL     1      39.778 -10.938   1.311  1.00  0.00     0.013 C 
ENDROOT
BRANCH   3  16
HETATM   16  C   UNL     1      40.329 -13.900   0.192  1.00  0.00     0.114 C 
BRANCH  16  17
HETATM   17  C   UNL     1      38.964 -13.921  -0.467  1.00  0.00     0.218 C 
HETATM   18  N   UNL     1      38.940 -13.609  -1.800  1.00  0.00    -0.359 N 
HETATM   19  H   UNL     1      39.810 -13.668  -2.334  1.00  0.00     0.162 HD
HETATM   20  O   UNL     1      37.942 -14.108   0.192  1.00  0.00    -0.274 OA
BRANCH  18  21
HETATM   21  C   UNL     1      37.695 -13.373  -2.504  1.00  0.00     0.148 C 
BRANCH  21  22
HETATM   22  C   UNL     1      37.538 -14.198  -3.787  1.00  0.00     0.186 C 
BRANCH  22  23
HETATM   23  O   UNL     1      37.704 -15.605  -3.586  1.00  0.00    -0.394 OA
HETATM   24  C   UNL     1      38.807 -16.145  -4.303  1.00  0.00     0.201 C 
ENDBRANCH  22  23
ENDBRANCH  21  22
ENDBRANCH  18  21
ENDBRANCH  16  17
ENDBRANCH   3  16
BRANCH  11  25
HETATM   25  C   UNL     1      39.671 -12.668   5.130  1.00  0.00     0.176 C 
BRANCH  25  26
HETATM   26  O   UNL     1      38.683 -12.382   6.114  1.00  0.00    -0.400 OA
HETATM   27  H   UNL     1      37.891 -12.086   5.629  1.00  0.00     0.209 HD
ENDBRANCH  25  26
ENDBRANCH  11  25
BRANCH   7  28
HETATM   28  N   UNL     1      41.616 -17.613   3.854  1.00  0.00    -0.238 NA
HETATM   29  H   UNL     1      40.718 -18.034   3.636  1.00  0.00     0.136 HD
BRANCH  28  30
HETATM   30  C   UNL     1      42.636 -18.557   3.545  1.00  0.00     0.014 A 
HETATM   31  C   UNL     1      42.838 -19.088   2.264  1.00  0.00     0.024 A 
HETATM   32  C   UNL     1      43.848 -20.027   2.026  1.00  0.00     0.002 A 
HETATM   33  C   UNL     1      44.697 -20.420   3.055  1.00  0.00     0.000 A 
HETATM   34  C   UNL     1      44.547 -19.863   4.321  1.00  0.00     0.002 A 
HETATM   35  C   UNL     1      43.533 -18.931   4.560  1.00  0.00     0.024 A 
ENDBRANCH  28  30
ENDBRANCH   7  28
BRANCH  13  36
HETATM   36  O   UNL     1      37.918 -11.807   3.299  1.00  0.00    -0.395 OA
HETATM   37  H   UNL     1      37.889 -12.452   4.028  1.00  0.00     0.210 HD
ENDBRANCH  13  36
TORSDOF 10
ENDMDL
