MODEL 1
REMARK VINA RESULT:      -9.3      0.000      0.000
REMARK  8 active torsions:
REMARK  status: ('A' for Active; 'I' for Inactive)
REMARK    1  A    between atoms: C_2  and  C_3 
REMARK    2  A    between atoms: C_4  and  O_5 
REMARK    3  A    between atoms: O_5  and  C_6 
REMARK    4  A    between atoms: C_6  and  C_7 
REMARK    5  A    between atoms: C_15  and  O_16 
REMARK    6  A    between atoms: C_17  and  C_18 
REMARK    7  A    between atoms: C_22  and  N_23 
REMARK    8  A    between atoms: C_24  and  C_25 
ROOT
HETATM    1  C   UNL     1      43.298 -16.106   6.898  1.00  0.00    -0.024 A 
HETATM    2  C   UNL     1      43.998 -14.891   6.869  1.00  0.00     0.078 A 
HETATM    3  C   UNL     1      44.082 -14.140   5.693  1.00  0.00     0.074 A 
HETATM    4  C   UNL     1      43.404 -14.566   4.548  1.00  0.00     0.081 A 
HETATM    5  C   UNL     1      42.644 -15.743   4.566  1.00  0.00     0.029 A 
HETATM    6  C   UNL     1      42.610 -16.511   5.741  1.00  0.00     0.026 A 
ENDROOT
BRANCH   5   7
HETATM    7  C   UNL     1      41.850 -16.163   3.414  1.00  0.00     0.107 A 
HETATM    8  N   UNL     1      40.833 -15.389   2.993  1.00  0.00    -0.172 NA
HETATM    9  N   UNL     1      40.329 -16.051   1.947  1.00  0.00    -0.262 N 
HETATM   10  H   UNL     1      39.548 -15.640   1.454  1.00  0.00     0.191 HD
HETATM   11  C   UNL     1      40.937 -17.248   1.688  1.00  0.00     0.131 A 
HETATM   12  C   UNL     1      41.933 -17.364   2.641  1.00  0.00     0.076 A 
BRANCH  11  13
HETATM   13  N   UNL     1      40.510 -18.031   0.673  1.00  0.00    -0.384 N 
HETATM   14  H   UNL     1      41.090 -18.746   0.242  1.00  0.00     0.157 HD
HETATM   15  H   UNL     1      39.513 -18.178   0.525  1.00  0.00     0.157 HD
ENDBRANCH  11  13
BRANCH  12  16
HETATM   16  C   UNL     1      42.888 -18.508   2.817  1.00  0.00     0.114 A 
HETATM   17  S   UNL     1      44.114 -18.562   4.030  1.00  0.00    -0.079 SA
HETATM   18  C   UNL     1      44.634 -20.083   3.445  1.00  0.00     0.078 A 
HETATM   19  C   UNL     1      43.852 -20.469   2.376  1.00  0.00     0.038 A 
HETATM   20  C   UNL     1      43.976 -21.721   1.587  1.00  0.00     0.071 C 
HETATM   21  N   UNL     1      42.865 -19.565   2.028  1.00  0.00    -0.245 NA
ENDBRANCH  12  16
ENDBRANCH   5   7
BRANCH   4  22
HETATM   22  O   UNL     1      43.505 -13.830   3.397  1.00  0.00    -0.360 OA
HETATM   23  H   UNL     1      42.997 -14.264   2.695  1.00  0.00     0.217 HD
ENDBRANCH   4  22
BRANCH   1  24
HETATM   24  C   UNL     1      43.269 -16.983   8.124  1.00  0.00     0.037 C 
HETATM   25  C   UNL     1      44.010 -18.295   7.912  1.00  0.00     0.010 C 
ENDBRANCH   1  24
BRANCH   2  26
HETATM   26  O   UNL     1      44.652 -14.479   8.004  1.00  0.00    -0.346 OA
BRANCH  26  27
HETATM   27  C   UNL     1      45.246 -13.186   7.820  1.00  0.00     0.214 C 
BRANCH  27  28
HETATM   28  C   UNL     1      44.736 -12.221   8.869  1.00  0.00    -0.034 A 
HETATM   29  C   UNL     1      43.533 -11.523   8.684  1.00  0.00     0.016 A 
HETATM   30  C   UNL     1      43.085 -10.589   9.628  1.00  0.00    -0.061 A 
HETATM   31  C   UNL     1      41.807  -9.833   9.414  1.00  0.00     0.048 C 
HETATM   32  C   UNL     1      43.866 -10.338  10.762  1.00  0.00     0.007 A 
HETATM   33  C   UNL     1      45.069 -11.017  10.953  1.00  0.00     0.001 A 
HETATM   34  C   UNL     1      45.503 -11.949  10.009  1.00  0.00     0.009 A 
ENDBRANCH  27  28
ENDBRANCH  26  27
ENDBRANCH   2  26
TORSDOF 8
ENDMDL
MODEL 2
REMARK VINA RESULT:      -9.0      4.748      7.866
REMARK  8 active torsions:
REMARK  status: ('A' for Active; 'I' for Inactive)
REMARK    1  A    between atoms: C_2  and  C_3 
REMARK    2  A    between atoms: C_4  and  O_5 
REMARK    3  A    between atoms: O_5  and  C_6 
REMARK    4  A    between atoms: C_6  and  C_7 
REMARK    5  A    between atoms: C_15  and  O_16 
REMARK    6  A    between atoms: C_17  and  C_18 
REMARK    7  A    between atoms: C_22  and  N_23 
REMARK    8  A    between atoms: C_24  and  C_25 
ROOT
HETATM    1  C   UNL     1      41.873 -16.444   4.361  1.00  0.00    -0.024 A 
HETATM    2  C   UNL     1      43.083 -16.247   3.680  1.00  0.00     0.078 A 
HETATM    3  C   UNL     1      43.331 -15.059   2.988  1.00  0.00     0.074 A 
HETATM    4  C   UNL     1      42.393 -14.024   3.029  1.00  0.00     0.081 A 
HETATM    5  C   UNL     1      41.204 -14.168   3.755  1.00  0.00     0.029 A 
HETATM    6  C   UNL     1      40.949 -15.387   4.404  1.00  0.00     0.026 A 
ENDROOT
BRANCH   5   7
HETATM    7  C   UNL     1      40.249 -13.071   3.893  1.00  0.00     0.107 A 
HETATM    8  N   UNL     1      40.094 -12.475   5.090  1.00  0.00    -0.172 NA
HETATM    9  N   UNL     1      39.166 -11.538   4.870  1.00  0.00    -0.262 N 
HETATM   10  H   UNL     1      38.895 -10.945   5.643  1.00  0.00     0.191 HD
HETATM   11  C   UNL     1      38.669 -11.520   3.596  1.00  0.00     0.131 A 
HETATM   12  C   UNL     1      39.345 -12.524   2.927  1.00  0.00     0.076 A 
BRANCH  11  13
HETATM   13  N   UNL     1      37.707 -10.638   3.246  1.00  0.00    -0.384 N 
HETATM   14  H   UNL     1      37.589 -10.293   2.297  1.00  0.00     0.157 HD
HETATM   15  H   UNL     1      36.868 -10.544   3.815  1.00  0.00     0.157 HD
ENDBRANCH  11  13
BRANCH  12  16
HETATM   16  C   UNL     1      39.163 -12.941   1.497  1.00  0.00     0.114 A 
HETATM   17  S   UNL     1      37.824 -13.868   0.927  1.00  0.00    -0.079 SA
HETATM   18  C   UNL     1      38.479 -13.855  -0.652  1.00  0.00     0.078 A 
HETATM   19  C   UNL     1      39.664 -13.147  -0.665  1.00  0.00     0.038 A 
HETATM   20  C   UNL     1      40.542 -12.901  -1.836  1.00  0.00     0.071 C 
HETATM   21  N   UNL     1      40.042 -12.634   0.563  1.00  0.00    -0.245 NA
ENDBRANCH  12  16
ENDBRANCH   5   7
BRANCH   4  22
HETATM   22  O   UNL     1      42.640 -12.868   2.335  1.00  0.00    -0.360 OA
HETATM   23  H   UNL     1      41.860 -12.294   2.385  1.00  0.00     0.217 HD
ENDBRANCH   4  22
BRANCH   1  24
HETATM   24  C   UNL     1      41.540 -17.751   5.037  1.00  0.00     0.037 C 
HETATM   25  C   UNL     1      42.124 -17.840   6.440  1.00  0.00     0.010 C 
ENDBRANCH   1  24
BRANCH   2  26
HETATM   26  O   UNL     1      44.000 -17.269   3.655  1.00  0.00    -0.346 OA
BRANCH  26  27
HETATM   27  C   UNL     1      43.983 -17.952   2.393  1.00  0.00     0.214 C 
BRANCH  27  28
HETATM   28  C   UNL     1      44.052 -19.449   2.604  1.00  0.00    -0.034 A 
HETATM   29  C   UNL     1      44.477 -19.987   3.829  1.00  0.00     0.016 A 
HETATM   30  C   UNL     1      44.594 -21.372   4.010  1.00  0.00    -0.061 A 
HETATM   31  C   UNL     1      45.068 -21.938   5.316  1.00  0.00     0.048 C 
HETATM   32  C   UNL     1      44.299 -22.225   2.942  1.00  0.00     0.007 A 
HETATM   33  C   UNL     1      43.884 -21.704   1.717  1.00  0.00     0.001 A 
HETATM   34  C   UNL     1      43.766 -20.324   1.548  1.00  0.00     0.009 A 
ENDBRANCH  27  28
ENDBRANCH  26  27
ENDBRANCH   2  26
TORSDOF 8
ENDMDL
MODEL 3
REMARK VINA RESULT:      -9.0      4.658      7.985
REMARK  8 active torsions:
REMARK  status: ('A' for Active; 'I' for Inactive)
REMARK    1  A    between atoms: C_2  and  C_3 
REMARK    2  A    between atoms: C_4  and  O_5 
REMARK    3  A    between atoms: O_5  and  C_6 
REMARK    4  A    between atoms: C_6  and  C_7 
REMARK    5  A    between atoms: C_15  and  O_16 
REMARK    6  A    between atoms: C_17  and  C_18 
REMARK    7  A    between atoms: C_22  and  N_23 
REMARK    8  A    between atoms: C_24  and  C_25 
ROOT
HETATM    1  C   UNL     1      41.332 -15.975   3.902  1.00  0.00    -0.024 A 
HETATM    2  C   UNL     1      42.159 -16.776   3.102  1.00  0.00     0.078 A 
HETATM    3  C   UNL     1      41.919 -16.909   1.731  1.00  0.00     0.074 A 
HETATM    4  C   UNL     1      40.886 -16.182   1.134  1.00  0.00     0.081 A 
HETATM    5  C   UNL     1      40.084 -15.324   1.898  1.00  0.00     0.029 A 
HETATM    6  C   UNL     1      40.307 -15.240   3.281  1.00  0.00     0.026 A 
ENDROOT
BRANCH   5   7
HETATM    7  C   UNL     1      39.059 -14.483   1.286  1.00  0.00     0.107 A 
HETATM    8  N   UNL     1      37.759 -14.766   1.493  1.00  0.00    -0.172 NA
HETATM    9  N   UNL     1      37.106 -13.825   0.804  1.00  0.00    -0.262 N 
HETATM   10  H   UNL     1      36.095 -13.832   0.828  1.00  0.00     0.191 HD
HETATM   11  C   UNL     1      37.914 -12.963   0.116  1.00  0.00     0.131 A 
HETATM   12  C   UNL     1      39.206 -13.373   0.394  1.00  0.00     0.076 A 
BRANCH  11  13
HETATM   13  N   UNL     1      37.382 -11.978  -0.642  1.00  0.00    -0.384 N 
HETATM   14  H   UNL     1      37.918 -11.457  -1.331  1.00  0.00     0.157 HD
HETATM   15  H   UNL     1      36.377 -11.944  -0.803  1.00  0.00     0.157 HD
ENDBRANCH  11  13
BRANCH  12  16
HETATM   16  C   UNL     1      40.478 -12.775  -0.131  1.00  0.00     0.114 A 
HETATM   17  S   UNL     1      41.306 -11.461   0.619  1.00  0.00    -0.079 SA
HETATM   18  C   UNL     1      42.486 -11.490  -0.618  1.00  0.00     0.078 A 
HETATM   19  C   UNL     1      42.196 -12.492  -1.522  1.00  0.00     0.038 A 
HETATM   20  C   UNL     1      42.970 -12.847  -2.737  1.00  0.00     0.071 C 
HETATM   21  N   UNL     1      41.051 -13.214  -1.234  1.00  0.00    -0.245 NA
ENDBRANCH  12  16
ENDBRANCH   5   7
BRANCH   4  22
HETATM   22  O   UNL     1      40.651 -16.331  -0.208  1.00  0.00    -0.360 OA
HETATM   23  H   UNL     1      41.271 -15.775  -0.703  1.00  0.00     0.217 HD
ENDBRANCH   4  22
BRANCH   1  24
HETATM   24  C   UNL     1      41.508 -15.887   5.397  1.00  0.00     0.037 C 
HETATM   25  C   UNL     1      40.705 -16.948   6.136  1.00  0.00     0.010 C 
ENDBRANCH   1  24
BRANCH   2  26
HETATM   26  O   UNL     1      43.176 -17.478   3.700  1.00  0.00    -0.346 OA
BRANCH  26  27
HETATM   27  C   UNL     1      44.085 -18.008   2.724  1.00  0.00     0.214 C 
BRANCH  27  28
HETATM   28  C   UNL     1      44.131 -19.518   2.815  1.00  0.00    -0.034 A 
HETATM   29  C   UNL     1      44.594 -20.159   3.974  1.00  0.00     0.016 A 
HETATM   30  C   UNL     1      44.688 -21.556   4.042  1.00  0.00    -0.061 A 
HETATM   31  C   UNL     1      45.202 -22.232   5.278  1.00  0.00     0.048 C 
HETATM   32  C   UNL     1      44.332 -22.317   2.922  1.00  0.00     0.007 A 
HETATM   33  C   UNL     1      43.879 -21.692   1.761  1.00  0.00     0.001 A 
HETATM   34  C   UNL     1      43.784 -20.301   1.706  1.00  0.00     0.009 A 
ENDBRANCH  27  28
ENDBRANCH  26  27
ENDBRANCH   2  26
TORSDOF 8
ENDMDL
MODEL 4
REMARK VINA RESULT:      -9.0      3.726      7.778
REMARK  8 active torsions:
REMARK  status: ('A' for Active; 'I' for Inactive)
REMARK    1  A    between atoms: C_2  and  C_3 
REMARK    2  A    between atoms: C_4  and  O_5 
REMARK    3  A    between atoms: O_5  and  C_6 
REMARK    4  A    between atoms: C_6  and  C_7 
REMARK    5  A    between atoms: C_15  and  O_16 
REMARK    6  A    between atoms: C_17  and  C_18 
REMARK    7  A    between atoms: C_22  and  N_23 
REMARK    8  A    between atoms: C_24  and  C_25 
ROOT
HETATM    1  C   UNL     1      42.387 -15.337   4.330  1.00  0.00    -0.024 A 
HETATM    2  C   UNL     1      42.080 -16.614   3.839  1.00  0.00     0.078 A 
HETATM    3  C   UNL     1      40.976 -16.815   3.005  1.00  0.00     0.074 A 
HETATM    4  C   UNL     1      40.206 -15.723   2.598  1.00  0.00     0.081 A 
HETATM    5  C   UNL     1      40.528 -14.427   3.021  1.00  0.00     0.029 A 
HETATM    6  C   UNL     1      41.610 -14.248   3.898  1.00  0.00     0.026 A 
ENDROOT
BRANCH   5   7
HETATM    7  C   UNL     1      39.799 -13.257   2.537  1.00  0.00     0.107 A 
HETATM    8  N   UNL     1      38.958 -12.612   3.367  1.00  0.00    -0.172 NA
HETATM    9  N   UNL     1      38.466 -11.615   2.623  1.00  0.00    -0.262 N 
HETATM   10  H   UNL     1      37.810 -10.978   3.053  1.00  0.00     0.191 HD
HETATM   11  C   UNL     1      38.909 -11.602   1.329  1.00  0.00     0.131 A 
HETATM   12  C   UNL     1      39.776 -12.676   1.230  1.00  0.00     0.076 A 
BRANCH  11  13
HETATM   13  N   UNL     1      38.471 -10.663   0.462  1.00  0.00    -0.384 N 
HETATM   14  H   UNL     1      37.486 -10.494   0.277  1.00  0.00     0.157 HD
HETATM   15  H   UNL     1      39.068  -9.873   0.220  1.00  0.00     0.157 HD
ENDBRANCH  11  13
BRANCH  12  16
HETATM   16  C   UNL     1      40.523 -13.125   0.009  1.00  0.00     0.114 A 
HETATM   17  S   UNL     1      41.851 -12.265  -0.679  1.00  0.00    -0.079 SA
HETATM   18  C   UNL     1      41.976 -13.436  -1.919  1.00  0.00     0.078 A 
HETATM   19  C   UNL     1      41.017 -14.412  -1.742  1.00  0.00     0.038 A 
HETATM   20  C   UNL     1      40.789 -15.603  -2.600  1.00  0.00     0.071 C 
HETATM   21  N   UNL     1      40.197 -14.224  -0.644  1.00  0.00    -0.245 NA
ENDBRANCH  12  16
ENDBRANCH   5   7
BRANCH   4  22
HETATM   22  O   UNL     1      39.118 -15.933   1.792  1.00  0.00    -0.360 OA
HETATM   23  H   UNL     1      38.569 -16.634   2.175  1.00  0.00     0.217 HD
ENDBRANCH   4  22
BRANCH   1  24
HETATM   24  C   UNL     1      43.513 -15.105   5.305  1.00  0.00     0.037 C 
HETATM   25  C   UNL     1      43.461 -13.717   5.928  1.00  0.00     0.010 C 
ENDBRANCH   1  24
BRANCH   2  26
HETATM   26  O   UNL     1      42.850 -17.678   4.239  1.00  0.00    -0.346 OA
BRANCH  26  27
HETATM   27  C   UNL     1      43.844 -18.000   3.256  1.00  0.00     0.214 C 
BRANCH  27  28
HETATM   28  C   UNL     1      43.991 -19.501   3.131  1.00  0.00    -0.034 A 
HETATM   29  C   UNL     1      44.499 -20.269   4.190  1.00  0.00     0.016 A 
HETATM   30  C   UNL     1      44.687 -21.652   4.058  1.00  0.00    -0.061 A 
HETATM   31  C   UNL     1      45.250 -22.461   5.189  1.00  0.00     0.048 C 
HETATM   32  C   UNL     1      44.380 -22.267   2.840  1.00  0.00     0.007 A 
HETATM   33  C   UNL     1      43.882 -21.515   1.776  1.00  0.00     0.001 A 
HETATM   34  C   UNL     1      43.694 -20.140   1.919  1.00  0.00     0.009 A 
ENDBRANCH  27  28
ENDBRANCH  26  27
ENDBRANCH   2  26
TORSDOF 8
ENDMDL
MODEL 5
REMARK VINA RESULT:      -9.0      3.961      8.668
REMARK  8 active torsions:
REMARK  status: ('A' for Active; 'I' for Inactive)
REMARK    1  A    between atoms: C_2  and  C_3 
REMARK    2  A    between atoms: C_4  and  O_5 
REMARK    3  A    between atoms: O_5  and  C_6 
REMARK    4  A    between atoms: C_6  and  C_7 
REMARK    5  A    between atoms: C_15  and  O_16 
REMARK    6  A    between atoms: C_17  and  C_18 
REMARK    7  A    between atoms: C_22  and  N_23 
REMARK    8  A    between atoms: C_24  and  C_25 
ROOT
HETATM    1  C   UNL     1      42.483 -14.305   5.771  1.00  0.00    -0.024 A 
HETATM    2  C   UNL     1      41.298 -15.021   5.551  1.00  0.00     0.078 A 
HETATM    3  C   UNL     1      40.057 -14.379   5.585  1.00  0.00     0.074 A 
HETATM    4  C   UNL     1      39.996 -12.995   5.770  1.00  0.00     0.081 A 
HETATM    5  C   UNL     1      41.169 -12.245   5.928  1.00  0.00     0.029 A 
HETATM    6  C   UNL     1      42.404 -12.912   5.941  1.00  0.00     0.026 A 
ENDROOT
BRANCH   5   7
HETATM    7  C   UNL     1      41.141 -10.789   6.030  1.00  0.00     0.107 A 
HETATM    8  N   UNL     1      40.801 -10.056   4.954  1.00  0.00    -0.172 NA
HETATM    9  N   UNL     1      40.878  -8.791   5.381  1.00  0.00    -0.262 N 
HETATM   10  H   UNL     1      40.645  -8.053   4.730  1.00  0.00     0.191 HD
HETATM   11  C   UNL     1      41.298  -8.655   6.675  1.00  0.00     0.131 A 
HETATM   12  C   UNL     1      41.497  -9.946   7.131  1.00  0.00     0.076 A 
BRANCH  11  13
HETATM   13  N   UNL     1      41.444  -7.430   7.226  1.00  0.00    -0.384 N 
HETATM   14  H   UNL     1      41.623  -6.593   6.678  1.00  0.00     0.157 HD
HETATM   15  H   UNL     1      41.053  -7.233   8.146  1.00  0.00     0.157 HD
ENDBRANCH  11  13
BRANCH  12  16
HETATM   16  C   UNL     1      41.982 -10.362   8.489  1.00  0.00     0.114 A 
HETATM   17  S   UNL     1      40.953 -10.566   9.859  1.00  0.00    -0.079 SA
HETATM   18  C   UNL     1      42.306 -10.968  10.823  1.00  0.00     0.078 A 
HETATM   19  C   UNL     1      43.455 -10.935  10.060  1.00  0.00     0.038 A 
HETATM   20  C   UNL     1      44.838 -11.222  10.518  1.00  0.00     0.071 C 
HETATM   21  N   UNL     1      43.257 -10.588   8.736  1.00  0.00    -0.245 NA
ENDBRANCH  12  16
ENDBRANCH   5   7
BRANCH   4  22
HETATM   22  O   UNL     1      38.773 -12.379   5.815  1.00  0.00    -0.360 OA
HETATM   23  H   UNL     1      38.114 -13.003   6.155  1.00  0.00     0.217 HD
ENDBRANCH   4  22
BRANCH   1  24
HETATM   24  C   UNL     1      43.828 -14.986   5.835  1.00  0.00     0.037 C 
HETATM   25  C   UNL     1      44.698 -14.439   6.958  1.00  0.00     0.010 C 
ENDBRANCH   1  24
BRANCH   2  26
HETATM   26  O   UNL     1      41.372 -16.379   5.361  1.00  0.00    -0.346 OA
BRANCH  26  27
HETATM   27  C   UNL     1      41.146 -16.724   3.987  1.00  0.00     0.214 C 
BRANCH  27  28
HETATM   28  C   UNL     1      42.182 -17.723   3.519  1.00  0.00    -0.034 A 
HETATM   29  C   UNL     1      43.038 -18.358   4.432  1.00  0.00     0.016 A 
HETATM   30  C   UNL     1      44.033 -19.244   3.997  1.00  0.00    -0.061 A 
HETATM   31  C   UNL     1      44.957 -19.903   4.978  1.00  0.00     0.048 C 
HETATM   32  C   UNL     1      44.184 -19.478   2.626  1.00  0.00     0.007 A 
HETATM   33  C   UNL     1      43.346 -18.846   1.707  1.00  0.00     0.001 A 
HETATM   34  C   UNL     1      42.354 -17.971   2.151  1.00  0.00     0.009 A 
ENDBRANCH  27  28
ENDBRANCH  26  27
ENDBRANCH   2  26
TORSDOF 8
ENDMDL
MODEL 6
REMARK VINA RESULT:      -8.9      3.969      7.825
REMARK  8 active torsions:
REMARK  status: ('A' for Active; 'I' for Inactive)
REMARK    1  A    between atoms: C_2  and  C_3 
REMARK    2  A    between atoms: C_4  and  O_5 
REMARK    3  A    between atoms: O_5  and  C_6 
REMARK    4  A    between atoms: C_6  and  C_7 
REMARK    5  A    between atoms: C_15  and  O_16 
REMARK    6  A    between atoms: C_17  and  C_18 
REMARK    7  A    between atoms: C_22  and  N_23 
REMARK    8  A    between atoms: C_24  and  C_25 
ROOT
HETATM    1  C   UNL     1      42.303 -16.599   3.397  1.00  0.00    -0.024 A 
HETATM    2  C   UNL     1      43.331 -16.693   4.346  1.00  0.00     0.078 A 
HETATM    3  C   UNL     1      43.478 -15.721   5.340  1.00  0.00     0.074 A 
HETATM    4  C   UNL     1      42.552 -14.679   5.434  1.00  0.00     0.081 A 
HETATM    5  C   UNL     1      41.478 -14.597   4.539  1.00  0.00     0.029 A 
HETATM    6  C   UNL     1      41.372 -15.553   3.516  1.00  0.00     0.026 A 
ENDROOT
BRANCH   5   7
HETATM    7  C   UNL     1      40.444 -13.574   4.671  1.00  0.00     0.107 A 
HETATM    8  N   UNL     1      39.895 -13.339   5.878  1.00  0.00    -0.172 NA
HETATM    9  N   UNL     1      39.004 -12.369   5.648  1.00  0.00    -0.262 N 
HETATM   10  H   UNL     1      38.472 -12.016   6.432  1.00  0.00     0.191 HD
HETATM   11  C   UNL     1      38.907 -11.986   4.339  1.00  0.00     0.131 A 
HETATM   12  C   UNL     1      39.827 -12.767   3.662  1.00  0.00     0.076 A 
BRANCH  11  13
HETATM   13  N   UNL     1      38.027 -11.032   3.965  1.00  0.00    -0.384 N 
HETATM   14  H   UNL     1      37.859 -10.781   2.994  1.00  0.00     0.157 HD
HETATM   15  H   UNL     1      37.265 -10.768   4.586  1.00  0.00     0.157 HD
ENDBRANCH  11  13
BRANCH  12  16
HETATM   16  C   UNL     1      40.109 -12.761   2.188  1.00  0.00     0.114 A 
HETATM   17  S   UNL     1      41.538 -12.098   1.483  1.00  0.00    -0.079 SA
HETATM   18  C   UNL     1      40.961 -12.499  -0.076  1.00  0.00     0.078 A 
HETATM   19  C   UNL     1      39.731 -13.116   0.021  1.00  0.00     0.038 A 
HETATM   20  C   UNL     1      38.895 -13.618  -1.098  1.00  0.00     0.071 C 
HETATM   21  N   UNL     1      39.257 -13.257   1.313  1.00  0.00    -0.245 NA
ENDBRANCH  12  16
ENDBRANCH   5   7
BRANCH   4  22
HETATM   22  O   UNL     1      42.715 -13.724   6.404  1.00  0.00    -0.360 OA
HETATM   23  H   UNL     1      43.646 -13.456   6.433  1.00  0.00     0.217 HD
ENDBRANCH   4  22
BRANCH   1  24
HETATM   24  C   UNL     1      42.176 -17.580   2.258  1.00  0.00     0.037 C 
HETATM   25  C   UNL     1      43.086 -17.229   1.090  1.00  0.00     0.010 C 
ENDBRANCH   1  24
BRANCH   2  26
HETATM   26  O   UNL     1      44.229 -17.726   4.248  1.00  0.00    -0.346 OA
BRANCH  26  27
HETATM   27  C   UNL     1      43.986 -18.723   5.250  1.00  0.00     0.214 C 
BRANCH  27  28
HETATM   28  C   UNL     1      44.274 -20.103   4.699  1.00  0.00    -0.034 A 
HETATM   29  C   UNL     1      44.144 -20.376   3.329  1.00  0.00     0.016 A 
HETATM   30  C   UNL     1      44.358 -21.665   2.823  1.00  0.00    -0.061 A 
HETATM   31  C   UNL     1      44.198 -21.953   1.359  1.00  0.00     0.048 C 
HETATM   32  C   UNL     1      44.686 -22.698   3.708  1.00  0.00     0.007 A 
HETATM   33  C   UNL     1      44.809 -22.443   5.074  1.00  0.00     0.001 A 
HETATM   34  C   UNL     1      44.599 -21.155   5.567  1.00  0.00     0.009 A 
ENDBRANCH  27  28
ENDBRANCH  26  27
ENDBRANCH   2  26
TORSDOF 8
ENDMDL
MODEL 7
REMARK VINA RESULT:      -8.7      4.731      7.266
REMARK  8 active torsions:
REMARK  status: ('A' for Active; 'I' for Inactive)
REMARK    1  A    between atoms: C_2  and  C_3 
REMARK    2  A    between atoms: C_4  and  O_5 
REMARK    3  A    between atoms: O_5  and  C_6 
REMARK    4  A    between atoms: C_6  and  C_7 
REMARK    5  A    between atoms: C_15  and  O_16 
REMARK    6  A    between atoms: C_17  and  C_18 
REMARK    7  A    between atoms: C_22  and  N_23 
REMARK    8  A    between atoms: C_24  and  C_25 
ROOT
HETATM    1  C   UNL     1      42.049 -16.471   1.495  1.00  0.00    -0.024 A 
HETATM    2  C   UNL     1      41.119 -16.332   2.535  1.00  0.00     0.078 A 
HETATM    3  C   UNL     1      40.456 -15.119   2.745  1.00  0.00     0.074 A 
HETATM    4  C   UNL     1      40.668 -14.052   1.869  1.00  0.00     0.081 A 
HETATM    5  C   UNL     1      41.543 -14.183   0.783  1.00  0.00     0.029 A 
HETATM    6  C   UNL     1      42.238 -15.392   0.615  1.00  0.00     0.026 A 
ENDROOT
BRANCH   5   7
HETATM    7  C   UNL     1      41.712 -13.118  -0.201  1.00  0.00     0.107 A 
HETATM    8  N   UNL     1      42.352 -11.987   0.151  1.00  0.00    -0.172 NA
HETATM    9  N   UNL     1      42.329 -11.240  -0.958  1.00  0.00    -0.262 N 
HETATM   10  H   UNL     1      42.775 -10.332  -0.930  1.00  0.00     0.191 HD
HETATM   11  C   UNL     1      41.664 -11.806  -2.009  1.00  0.00     0.131 A 
HETATM   12  C   UNL     1      41.230 -13.036  -1.546  1.00  0.00     0.076 A 
BRANCH  11  13
HETATM   13  N   UNL     1      41.544 -11.148  -3.183  1.00  0.00    -0.384 N 
HETATM   14  H   UNL     1      42.322 -10.676  -3.636  1.00  0.00     0.157 HD
HETATM   15  H   UNL     1      40.784 -11.375  -3.822  1.00  0.00     0.157 HD
ENDBRANCH  11  13
BRANCH  12  16
HETATM   16  C   UNL     1      40.427 -14.055  -2.300  1.00  0.00     0.114 A 
HETATM   17  S   UNL     1      41.065 -15.551  -2.875  1.00  0.00    -0.079 SA
HETATM   18  C   UNL     1      39.547 -15.943  -3.558  1.00  0.00     0.078 A 
HETATM   19  C   UNL     1      38.643 -14.931  -3.309  1.00  0.00     0.038 A 
HETATM   20  C   UNL     1      37.220 -14.882  -3.731  1.00  0.00     0.071 C 
HETATM   21  N   UNL     1      39.156 -13.862  -2.594  1.00  0.00    -0.245 NA
ENDBRANCH  12  16
ENDBRANCH   5   7
BRANCH   4  22
HETATM   22  O   UNL     1      40.023 -12.864   2.093  1.00  0.00    -0.360 OA
HETATM   23  H   UNL     1      40.675 -12.147   2.120  1.00  0.00     0.217 HD
ENDBRANCH   4  22
BRANCH   1  24
HETATM   24  C   UNL     1      42.849 -17.735   1.302  1.00  0.00     0.037 C 
HETATM   25  C   UNL     1      44.345 -17.502   1.463  1.00  0.00     0.010 C 
ENDBRANCH   1  24
BRANCH   2  26
HETATM   26  O   UNL     1      40.914 -17.391   3.384  1.00  0.00    -0.346 OA
BRANCH  26  27
HETATM   27  C   UNL     1      41.164 -17.021   4.747  1.00  0.00     0.214 C 
BRANCH  27  28
HETATM   28  C   UNL     1      42.552 -17.459   5.164  1.00  0.00    -0.034 A 
HETATM   29  C   UNL     1      43.092 -18.673   4.714  1.00  0.00     0.016 A 
HETATM   30  C   UNL     1      44.355 -19.107   5.141  1.00  0.00    -0.061 A 
HETATM   31  C   UNL     1      44.917 -20.416   4.670  1.00  0.00     0.048 C 
HETATM   32  C   UNL     1      45.074 -18.320   6.047  1.00  0.00     0.007 A 
HETATM   33  C   UNL     1      44.545 -17.116   6.510  1.00  0.00     0.001 A 
HETATM   34  C   UNL     1      43.290 -16.690   6.075  1.00  0.00     0.009 A 
ENDBRANCH  27  28
ENDBRANCH  26  27
ENDBRANCH   2  26
TORSDOF 8
ENDMDL
MODEL 8
REMARK VINA RESULT:      -8.7      3.948      8.232
REMARK  8 active torsions:
REMARK  status: ('A' for Active; 'I' for Inactive)
REMARK    1  A    between atoms: C_2  and  C_3 
REMARK    2  A    between atoms: C_4  and  O_5 
REMARK    3  A    between atoms: O_5  and  C_6 
REMARK    4  A    between atoms: C_6  and  C_7 
REMARK    5  A    between atoms: C_15  and  O_16 
REMARK    6  A    between atoms: C_17  and  C_18 
REMARK    7  A    between atoms: C_22  and  N_23 
REMARK    8  A    between atoms: C_24  and  C_25 
ROOT
HETATM    1  C   UNL     1      41.244 -15.446   4.055  1.00  0.00    -0.024 A 
HETATM    2  C   UNL     1      42.512 -15.137   3.543  1.00  0.00     0.078 A 
HETATM    3  C   UNL     1      42.728 -13.956   2.828  1.00  0.00     0.074 A 
HETATM    4  C   UNL     1      41.687 -13.036   2.678  1.00  0.00     0.081 A 
HETATM    5  C   UNL     1      40.427 -13.288   3.235  1.00  0.00     0.029 A 
HETATM    6  C   UNL     1      40.214 -14.502   3.908  1.00  0.00     0.026 A 
ENDROOT
BRANCH   5   7
HETATM    7  C   UNL     1      39.349 -12.304   3.175  1.00  0.00     0.107 A 
HETATM    8  N   UNL     1      38.567 -12.244   2.081  1.00  0.00    -0.172 NA
HETATM    9  N   UNL     1      37.706 -11.257   2.348  1.00  0.00    -0.262 N 
HETATM   10  H   UNL     1      37.000 -11.040   1.657  1.00  0.00     0.191 HD
HETATM   11  C   UNL     1      37.913 -10.634   3.548  1.00  0.00     0.131 A 
HETATM   12  C   UNL     1      38.995 -11.284   4.114  1.00  0.00     0.076 A 
BRANCH  11  13
HETATM   13  N   UNL     1      37.129  -9.603   3.931  1.00  0.00    -0.384 N 
HETATM   14  H   UNL     1      37.236  -8.659   3.568  1.00  0.00     0.157 HD
HETATM   15  H   UNL     1      36.206  -9.781   4.324  1.00  0.00     0.157 HD
ENDBRANCH  11  13
BRANCH  12  16
HETATM   16  C   UNL     1      39.649 -10.976   5.429  1.00  0.00     0.114 A 
HETATM   17  S   UNL     1      41.189 -10.214   5.585  1.00  0.00    -0.079 SA
HETATM   18  C   UNL     1      41.079 -10.328   7.288  1.00  0.00     0.078 A 
HETATM   19  C   UNL     1      39.888 -10.925   7.645  1.00  0.00     0.038 A 
HETATM   20  C   UNL     1      39.410 -11.208   9.021  1.00  0.00     0.071 C 
HETATM   21  N   UNL     1      39.084 -11.290   6.579  1.00  0.00    -0.245 NA
ENDBRANCH  12  16
ENDBRANCH   5   7
BRANCH   4  22
HETATM   22  O   UNL     1      41.906 -11.887   1.963  1.00  0.00    -0.360 OA
HETATM   23  H   UNL     1      42.500 -12.082   1.222  1.00  0.00     0.217 HD
ENDBRANCH   4  22
BRANCH   1  24
HETATM   24  C   UNL     1      40.959 -16.755   4.748  1.00  0.00     0.037 C 
HETATM   25  C   UNL     1      41.140 -16.660   6.257  1.00  0.00     0.010 C 
ENDBRANCH   1  24
BRANCH   2  26
HETATM   26  O   UNL     1      43.529 -16.046   3.704  1.00  0.00    -0.346 OA
BRANCH  26  27
HETATM   27  C   UNL     1      43.598 -16.951   2.593  1.00  0.00     0.214 C 
BRANCH  27  28
HETATM   28  C   UNL     1      43.973 -18.338   3.068  1.00  0.00    -0.034 A 
HETATM   29  C   UNL     1      43.972 -19.430   2.185  1.00  0.00     0.016 A 
HETATM   30  C   UNL     1      44.268 -20.724   2.634  1.00  0.00    -0.061 A 
HETATM   31  C   UNL     1      44.245 -21.888   1.688  1.00  0.00     0.048 C 
HETATM   32  C   UNL     1      44.548 -20.928   3.990  1.00  0.00     0.007 A 
HETATM   33  C   UNL     1      44.544 -19.854   4.879  1.00  0.00     0.001 A 
HETATM   34  C   UNL     1      44.253 -18.568   4.421  1.00  0.00     0.009 A 
ENDBRANCH  27  28
ENDBRANCH  26  27
ENDBRANCH   2  26
TORSDOF 8
ENDMDL
MODEL 9
REMARK VINA RESULT:      -8.6      5.579      8.824
REMARK  8 active torsions:
REMARK  status: ('A' for Active; 'I' for Inactive)
REMARK    1  A    between atoms: C_2  and  C_3 
REMARK    2  A    between atoms: C_4  and  O_5 
REMARK    3  A    between atoms: O_5  and  C_6 
REMARK    4  A    between atoms: C_6  and  C_7 
REMARK    5  A    between atoms: C_15  and  O_16 
REMARK    6  A    between atoms: C_17  and  C_18 
REMARK    7  A    between atoms: C_22  and  N_23 
REMARK    8  A    between atoms: C_24  and  C_25 
ROOT
HETATM    1  C   UNL     1      40.095 -15.036   1.402  1.00  0.00    -0.024 A 
HETATM    2  C   UNL     1      41.106 -15.978   1.165  1.00  0.00     0.078 A 
HETATM    3  C   UNL     1      41.559 -16.232  -0.133  1.00  0.00     0.074 A 
HETATM    4  C   UNL     1      41.051 -15.491  -1.203  1.00  0.00     0.081 A 
HETATM    5  C   UNL     1      40.087 -14.498  -0.987  1.00  0.00     0.029 A 
HETATM    6  C   UNL     1      39.606 -14.289   0.316  1.00  0.00     0.026 A 
ENDROOT
BRANCH   5   7
HETATM    7  C   UNL     1      39.606 -13.645  -2.072  1.00  0.00     0.107 A 
HETATM    8  N   UNL     1      38.838 -14.176  -3.041  1.00  0.00    -0.172 NA
HETATM    9  N   UNL     1      38.582 -13.147  -3.856  1.00  0.00    -0.262 N 
HETATM   10  H   UNL     1      37.997 -13.313  -4.664  1.00  0.00     0.191 HD
HETATM   11  C   UNL     1      39.184 -11.974  -3.494  1.00  0.00     0.131 A 
HETATM   12  C   UNL     1      39.880 -12.264  -2.333  1.00  0.00     0.076 A 
BRANCH  11  13
HETATM   13  N   UNL     1      39.029 -10.861  -4.244  1.00  0.00    -0.384 N 
HETATM   14  H   UNL     1      38.737 -10.884  -5.217  1.00  0.00     0.157 HD
HETATM   15  H   UNL     1      38.866  -9.961  -3.795  1.00  0.00     0.157 HD
ENDBRANCH  11  13
BRANCH  12  16
HETATM   16  C   UNL     1      40.734 -11.327  -1.531  1.00  0.00     0.114 A 
HETATM   17  S   UNL     1      40.195 -10.509  -0.111  1.00  0.00    -0.079 SA
HETATM   18  C   UNL     1      41.715  -9.738   0.029  1.00  0.00     0.078 A 
HETATM   19  C   UNL     1      42.545 -10.144  -0.995  1.00  0.00     0.038 A 
HETATM   20  C   UNL     1      43.944  -9.709  -1.234  1.00  0.00     0.071 C 
HETATM   21  N   UNL     1      41.975 -11.046  -1.876  1.00  0.00    -0.245 NA
ENDBRANCH  12  16
ENDBRANCH   5   7
BRANCH   4  22
HETATM   22  O   UNL     1      41.493 -15.758  -2.472  1.00  0.00    -0.360 OA
HETATM   23  H   UNL     1      40.732 -15.960  -3.038  1.00  0.00     0.217 HD
ENDBRANCH   4  22
BRANCH   1  24
HETATM   24  C   UNL     1      39.520 -14.808   2.777  1.00  0.00     0.037 C 
HETATM   25  C   UNL     1      39.999 -13.501   3.394  1.00  0.00     0.010 C 
ENDBRANCH   1  24
BRANCH   2  26
HETATM   26  O   UNL     1      41.603 -16.693   2.226  1.00  0.00    -0.346 OA
BRANCH  26  27
HETATM   27  C   UNL     1      43.038 -16.679   2.236  1.00  0.00     0.214 C 
BRANCH  27  28
HETATM   28  C   UNL     1      43.573 -17.990   2.769  1.00  0.00    -0.034 A 
HETATM   29  C   UNL     1      43.574 -19.147   1.974  1.00  0.00     0.016 A 
HETATM   30  C   UNL     1      44.019 -20.375   2.483  1.00  0.00    -0.061 A 
HETATM   31  C   UNL     1      43.998 -21.611   1.633  1.00  0.00     0.048 C 
HETATM   32  C   UNL     1      44.449 -20.446   3.813  1.00  0.00     0.007 A 
HETATM   33  C   UNL     1      44.445 -19.306   4.616  1.00  0.00     0.001 A 
HETATM   34  C   UNL     1      44.005 -18.087   4.098  1.00  0.00     0.009 A 
ENDBRANCH  27  28
ENDBRANCH  26  27
ENDBRANCH   2  26
TORSDOF 8
ENDMDL
MODEL 10
REMARK VINA RESULT:      -8.5      3.795      8.679
REMARK  8 active torsions:
REMARK  status: ('A' for Active; 'I' for Inactive)
REMARK    1  A    between atoms: C_2  and  C_3 
REMARK    2  A    between atoms: C_4  and  O_5 
REMARK    3  A    between atoms: O_5  and  C_6 
REMARK    4  A    between atoms: C_6  and  C_7 
REMARK    5  A    between atoms: C_15  and  O_16 
REMARK    6  A    between atoms: C_17  and  C_18 
REMARK    7  A    between atoms: C_22  and  N_23 
REMARK    8  A    between atoms: C_24  and  C_25 
ROOT
HETATM    1  C   UNL     1      43.164 -13.994   6.076  1.00  0.00    -0.024 A 
HETATM    2  C   UNL     1      42.458 -15.161   5.750  1.00  0.00     0.078 A 
HETATM    3  C   UNL     1      41.065 -15.150   5.649  1.00  0.00     0.074 A 
HETATM    4  C   UNL     1      40.367 -13.950   5.805  1.00  0.00     0.081 A 
HETATM    5  C   UNL     1      41.052 -12.756   6.068  1.00  0.00     0.029 A 
HETATM    6  C   UNL     1      42.447 -12.793   6.215  1.00  0.00     0.026 A 
ENDROOT
BRANCH   5   7
HETATM    7  C   UNL     1      40.358 -11.473   6.143  1.00  0.00     0.107 A 
HETATM    8  N   UNL     1      39.744 -10.987   5.048  1.00  0.00    -0.172 NA
HETATM    9  N   UNL     1      39.224  -9.824   5.454  1.00  0.00    -0.262 N 
HETATM   10  H   UNL     1      38.695  -9.280   4.787  1.00  0.00     0.191 HD
HETATM   11  C   UNL     1      39.507  -9.499   6.752  1.00  0.00     0.131 A 
HETATM   12  C   UNL     1      40.265 -10.552   7.234  1.00  0.00     0.076 A 
BRANCH  11  13
HETATM   13  N   UNL     1      39.064  -8.338   7.283  1.00  0.00    -0.384 N 
HETATM   14  H   UNL     1      38.088  -8.170   7.513  1.00  0.00     0.157 HD
HETATM   15  H   UNL     1      39.707  -7.726   7.783  1.00  0.00     0.157 HD
ENDBRANCH  11  13
BRANCH  12  16
HETATM   16  C   UNL     1      40.855 -10.687   8.607  1.00  0.00     0.114 A 
HETATM   17  S   UNL     1      42.536 -10.509   8.955  1.00  0.00    -0.079 SA
HETATM   18  C   UNL     1      42.237 -10.847  10.604  1.00  0.00     0.078 A 
HETATM   19  C   UNL     1      40.889 -11.068  10.803  1.00  0.00     0.038 A 
HETATM   20  C   UNL     1      40.219 -11.391  12.087  1.00  0.00     0.071 C 
HETATM   21  N   UNL     1      40.115 -10.976   9.660  1.00  0.00    -0.245 NA
ENDBRANCH  12  16
ENDBRANCH   5   7
BRANCH   4  22
HETATM   22  O   UNL     1      38.999 -13.954   5.717  1.00  0.00    -0.360 OA
HETATM   23  H   UNL     1      38.730 -13.477   4.917  1.00  0.00     0.217 HD
ENDBRANCH   4  22
BRANCH   1  24
HETATM   24  C   UNL     1      44.658 -13.995   6.285  1.00  0.00     0.037 C 
HETATM   25  C   UNL     1      45.049 -13.471   7.659  1.00  0.00     0.010 C 
ENDBRANCH   1  24
BRANCH   2  26
HETATM   26  O   UNL     1      43.157 -16.332   5.590  1.00  0.00    -0.346 OA
BRANCH  26  27
HETATM   27  C   UNL     1      43.088 -16.798   4.235  1.00  0.00     0.214 C 
BRANCH  27  28
HETATM   28  C   UNL     1      43.723 -18.166   4.116  1.00  0.00    -0.034 A 
HETATM   29  C   UNL     1      43.499 -18.972   2.989  1.00  0.00     0.016 A 
HETATM   30  C   UNL     1      44.042 -20.261   2.901  1.00  0.00    -0.061 A 
HETATM   31  C   UNL     1      43.782 -21.124   1.702  1.00  0.00     0.048 C 
HETATM   32  C   UNL     1      44.802 -20.754   3.967  1.00  0.00     0.007 A 
HETATM   33  C   UNL     1      45.025 -19.968   5.097  1.00  0.00     0.001 A 
HETATM   34  C   UNL     1      44.484 -18.683   5.173  1.00  0.00     0.009 A 
ENDBRANCH  27  28
ENDBRANCH  26  27
ENDBRANCH   2  26
TORSDOF 8
ENDMDL
