MODEL 1
REMARK VINA RESULT:      -7.8      0.000      0.000
REMARK  8 active torsions:
REMARK  status: ('A' for Active; 'I' for Inactive)
REMARK    1  A    between atoms: C_2  and  C_3 
REMARK    2  A    between atoms: C_3  and  N_4 
REMARK    3  A    between atoms: N_4  and  C_5 
REMARK    4  A    between atoms: C_7  and  N_8 
REMARK    5  A    between atoms: N_8  and  C_9 
REMARK    6  A    between atoms: C_9  and  C_10 
REMARK    7  A    between atoms: C_10  and  C_11 
REMARK    8  A    between atoms: C_14  and  O_15 
ROOT
HETATM    1  C   UNL     1      43.605 -18.437   3.489  1.00  0.00     0.119 A 
HETATM    2  N   UNL     1      43.952 -17.967   4.703  1.00  0.00    -0.207 NA
HETATM    3  C   UNL     1      44.557 -18.812   5.546  1.00  0.00     0.181 A 
HETATM    4  N   UNL     1      44.802 -20.085   5.257  1.00  0.00    -0.330 N 
HETATM    5  H   UNL     1      45.197 -20.657   5.992  1.00  0.00     0.168 HD
HETATM    6  C   UNL     1      44.504 -20.593   4.058  1.00  0.00     0.048 A 
HETATM    7  C   UNL     1      43.890 -19.765   3.098  1.00  0.00     0.031 A 
HETATM    8  C   UNL     1      44.811 -21.931   3.765  1.00  0.00     0.030 A 
HETATM    9  C   UNL     1      44.522 -22.454   2.506  1.00  0.00     0.002 A 
HETATM   10  C   UNL     1      43.931 -21.649   1.537  1.00  0.00     0.001 A 
HETATM   11  C   UNL     1      43.616 -20.319   1.826  1.00  0.00     0.017 A 
ENDROOT
BRANCH   3  12
HETATM   12  N   UNL     1      44.883 -18.336   6.809  1.00  0.00    -0.262 NA
HETATM   13  H   UNL     1      45.656 -18.936   7.116  1.00  0.00     0.130 HD
BRANCH  12  14
HETATM   14  C   UNL     1      43.782 -18.372   7.777  1.00  0.00     0.100 C 
BRANCH  14  15
HETATM   15  C   UNL     1      43.562 -16.983   8.390  1.00  0.00     0.053 C 
BRANCH  15  16
HETATM   16  C   UNL     1      43.410 -15.930   7.322  1.00  0.00    -0.057 A 
HETATM   17  C   UNL     1      42.270 -15.892   6.510  1.00  0.00     0.010 A 
HETATM   18  C   UNL     1      42.160 -14.936   5.498  1.00  0.00     0.037 A 
HETATM   19  C   UNL     1      43.171 -13.998   5.287  1.00  0.00     0.068 A 
HETATM   20  C   UNL     1      44.304 -14.024   6.099  1.00  0.00     0.037 A 
HETATM   21  C   UNL     1      44.422 -14.985   7.110  1.00  0.00     0.010 A 
BRANCH  19  22
HETATM   22  O   UNL     1      42.937 -13.124   4.262  1.00  0.00    -0.356 OA
HETATM   23  C   UNL     1      42.851 -13.673   2.952  1.00  0.00     0.210 C 
ENDBRANCH  19  22
ENDBRANCH  15  16
ENDBRANCH  14  15
ENDBRANCH  12  14
ENDBRANCH   3  12
BRANCH   1  24
HETATM   24  N   UNL     1      42.993 -17.569   2.575  1.00  0.00    -0.277 NA
HETATM   25  H   UNL     1      43.198 -17.849   1.617  1.00  0.00     0.129 HD
BRANCH  24  26
HETATM   26  C   UNL     1      41.564 -17.315   2.760  1.00  0.00     0.093 C 
BRANCH  26  27
HETATM   27  C   UNL     1      40.957 -16.765   1.467  1.00  0.00     0.010 C 
HETATM   28  C   UNL     1      41.970 -16.663   0.336  1.00  0.00     0.006 C 
ENDBRANCH  26  27
ENDBRANCH  24  26
ENDBRANCH   1  24
TORSDOF 8
ENDMDL
MODEL 2
REMARK VINA RESULT:      -7.6      1.505      4.220
REMARK  8 active torsions:
REMARK  status: ('A' for Active; 'I' for Inactive)
REMARK    1  A    between atoms: C_2  and  C_3 
REMARK    2  A    between atoms: C_3  and  N_4 
REMARK    3  A    between atoms: N_4  and  C_5 
REMARK    4  A    between atoms: C_7  and  N_8 
REMARK    5  A    between atoms: N_8  and  C_9 
REMARK    6  A    between atoms: C_9  and  C_10 
REMARK    7  A    between atoms: C_10  and  C_11 
REMARK    8  A    between atoms: C_14  and  O_15 
ROOT
HETATM    1  C   UNL     1      44.192 -18.469   4.201  1.00  0.00     0.119 A 
HETATM    2  N   UNL     1      43.883 -17.693   3.145  1.00  0.00    -0.207 NA
HETATM    3  C   UNL     1      43.760 -18.287   1.953  1.00  0.00     0.181 A 
HETATM    4  N   UNL     1      43.954 -19.587   1.758  1.00  0.00    -0.330 N 
HETATM    5  H   UNL     1      43.908 -19.923   0.805  1.00  0.00     0.168 HD
HETATM    6  C   UNL     1      44.234 -20.406   2.777  1.00  0.00     0.048 A 
HETATM    7  C   UNL     1      44.354 -19.867   4.073  1.00  0.00     0.031 A 
HETATM    8  C   UNL     1      44.394 -21.781   2.550  1.00  0.00     0.030 A 
HETATM    9  C   UNL     1      44.662 -22.638   3.615  1.00  0.00     0.002 A 
HETATM   10  C   UNL     1      44.768 -22.130   4.906  1.00  0.00     0.001 A 
HETATM   11  C   UNL     1      44.617 -20.760   5.137  1.00  0.00     0.017 A 
ENDROOT
BRANCH   3  12
HETATM   12  N   UNL     1      43.475 -17.481   0.858  1.00  0.00    -0.262 NA
HETATM   13  H   UNL     1      44.113 -16.684   0.956  1.00  0.00     0.130 HD
BRANCH  12  14
HETATM   14  C   UNL     1      42.083 -17.025   0.784  1.00  0.00     0.100 C 
BRANCH  14  15
HETATM   15  C   UNL     1      42.022 -15.493   0.739  1.00  0.00     0.053 C 
BRANCH  15  16
HETATM   16  C   UNL     1      41.828 -14.911   2.116  1.00  0.00    -0.057 A 
HETATM   17  C   UNL     1      40.702 -15.239   2.880  1.00  0.00     0.010 A 
HETATM   18  C   UNL     1      40.513 -14.663   4.139  1.00  0.00     0.037 A 
HETATM   19  C   UNL     1      41.445 -13.764   4.660  1.00  0.00     0.068 A 
HETATM   20  C   UNL     1      42.574 -13.442   3.908  1.00  0.00     0.037 A 
HETATM   21  C   UNL     1      42.763 -14.012   2.644  1.00  0.00     0.010 A 
BRANCH  19  22
HETATM   22  O   UNL     1      41.136 -13.273   5.897  1.00  0.00    -0.356 OA
HETATM   23  C   UNL     1      39.757 -13.072   6.186  1.00  0.00     0.210 C 
ENDBRANCH  19  22
ENDBRANCH  15  16
ENDBRANCH  14  15
ENDBRANCH  12  14
ENDBRANCH   3  12
BRANCH   1  24
HETATM   24  N   UNL     1      44.302 -17.879   5.467  1.00  0.00    -0.277 NA
HETATM   25  H   UNL     1      45.278 -17.813   5.752  1.00  0.00     0.129 HD
BRANCH  24  26
HETATM   26  C   UNL     1      43.602 -16.610   5.669  1.00  0.00     0.093 C 
BRANCH  26  27
HETATM   27  C   UNL     1      42.610 -16.735   6.826  1.00  0.00     0.010 C 
HETATM   28  C   UNL     1      43.241 -17.314   8.085  1.00  0.00     0.006 C 
ENDBRANCH  26  27
ENDBRANCH  24  26
ENDBRANCH   1  24
TORSDOF 8
ENDMDL
MODEL 3
REMARK VINA RESULT:      -7.6      3.518      7.760
REMARK  8 active torsions:
REMARK  status: ('A' for Active; 'I' for Inactive)
REMARK    1  A    between atoms: C_2  and  C_3 
REMARK    2  A    between atoms: C_3  and  N_4 
REMARK    3  A    between atoms: N_4  and  C_5 
REMARK    4  A    between atoms: C_7  and  N_8 
REMARK    5  A    between atoms: N_8  and  C_9 
REMARK    6  A    between atoms: C_9  and  C_10 
REMARK    7  A    between atoms: C_10  and  C_11 
REMARK    8  A    between atoms: C_14  and  O_15 
ROOT
HETATM    1  C   UNL     1      42.069 -13.151   0.745  1.00  0.00     0.119 A 
HETATM    2  N   UNL     1      41.699 -14.436   0.907  1.00  0.00    -0.207 NA
HETATM    3  C   UNL     1      41.470 -15.159  -0.195  1.00  0.00     0.181 A 
HETATM    4  N   UNL     1      41.560 -14.669  -1.426  1.00  0.00    -0.330 N 
HETATM    5  H   UNL     1      41.294 -15.279  -2.187  1.00  0.00     0.168 HD
HETATM    6  C   UNL     1      41.950 -13.409  -1.643  1.00  0.00     0.048 A 
HETATM    7  C   UNL     1      42.241 -12.584  -0.539  1.00  0.00     0.031 A 
HETATM    8  C   UNL     1      42.076 -12.928  -2.954  1.00  0.00     0.030 A 
HETATM    9  C   UNL     1      42.507 -11.622  -3.182  1.00  0.00     0.002 A 
HETATM   10  C   UNL     1      42.815 -10.795  -2.105  1.00  0.00     0.001 A 
HETATM   11  C   UNL     1      42.684 -11.267  -0.797  1.00  0.00     0.017 A 
ENDROOT
BRANCH   3  12
HETATM   12  N   UNL     1      41.055 -16.474  -0.026  1.00  0.00    -0.262 NA
HETATM   13  H   UNL     1      40.032 -16.417   0.004  1.00  0.00     0.130 HD
BRANCH  12  14
HETATM   14  C   UNL     1      41.574 -17.126   1.181  1.00  0.00     0.100 C 
BRANCH  14  15
HETATM   15  C   UNL     1      43.037 -17.541   0.981  1.00  0.00     0.053 C 
BRANCH  15  16
HETATM   16  C   UNL     1      43.510 -18.437   2.097  1.00  0.00    -0.057 A 
HETATM   17  C   UNL     1      43.718 -17.929   3.385  1.00  0.00     0.010 A 
HETATM   18  C   UNL     1      44.195 -18.761   4.400  1.00  0.00     0.037 A 
HETATM   19  C   UNL     1      44.460 -20.109   4.155  1.00  0.00     0.068 A 
HETATM   20  C   UNL     1      44.245 -20.623   2.877  1.00  0.00     0.037 A 
HETATM   21  C   UNL     1      43.774 -19.791   1.855  1.00  0.00     0.010 A 
BRANCH  19  22
HETATM   22  O   UNL     1      44.926 -20.806   5.235  1.00  0.00    -0.356 OA
HETATM   23  C   UNL     1      45.022 -22.219   5.099  1.00  0.00     0.210 C 
ENDBRANCH  19  22
ENDBRANCH  15  16
ENDBRANCH  14  15
ENDBRANCH  12  14
ENDBRANCH   3  12
BRANCH   1  24
HETATM   24  N   UNL     1      42.342 -12.375   1.879  1.00  0.00    -0.277 NA
HETATM   25  H   UNL     1      41.809 -11.508   1.862  1.00  0.00     0.129 HD
BRANCH  24  26
HETATM   26  C   UNL     1      42.231 -13.041   3.178  1.00  0.00     0.093 C 
BRANCH  26  27
HETATM   27  C   UNL     1      43.545 -13.744   3.522  1.00  0.00     0.010 C 
HETATM   28  C   UNL     1      43.571 -14.284   4.945  1.00  0.00     0.006 C 
ENDBRANCH  26  27
ENDBRANCH  24  26
ENDBRANCH   1  24
TORSDOF 8
ENDMDL
MODEL 4
REMARK VINA RESULT:      -7.6      3.755      7.187
REMARK  8 active torsions:
REMARK  status: ('A' for Active; 'I' for Inactive)
REMARK    1  A    between atoms: C_2  and  C_3 
REMARK    2  A    between atoms: C_3  and  N_4 
REMARK    3  A    between atoms: N_4  and  C_5 
REMARK    4  A    between atoms: C_7  and  N_8 
REMARK    5  A    between atoms: N_8  and  C_9 
REMARK    6  A    between atoms: C_9  and  C_10 
REMARK    7  A    between atoms: C_10  and  C_11 
REMARK    8  A    between atoms: C_14  and  O_15 
ROOT
HETATM    1  C   UNL     1      41.854 -16.997   4.090  1.00  0.00     0.119 A 
HETATM    2  N   UNL     1      41.043 -16.359   3.224  1.00  0.00    -0.207 NA
HETATM    3  C   UNL     1      41.083 -16.738   1.942  1.00  0.00     0.181 A 
HETATM    4  N   UNL     1      41.896 -17.681   1.481  1.00  0.00    -0.330 N 
HETATM    5  H   UNL     1      41.901 -17.840   0.482  1.00  0.00     0.168 HD
HETATM    6  C   UNL     1      42.701 -18.364   2.302  1.00  0.00     0.048 A 
HETATM    7  C   UNL     1      42.701 -18.050   3.675  1.00  0.00     0.031 A 
HETATM    8  C   UNL     1      43.521 -19.383   1.795  1.00  0.00     0.030 A 
HETATM    9  C   UNL     1      44.341 -20.112   2.655  1.00  0.00     0.002 A 
HETATM   10  C   UNL     1      44.345 -19.830   4.017  1.00  0.00     0.001 A 
HETATM   11  C   UNL     1      43.536 -18.810   4.526  1.00  0.00     0.017 A 
ENDROOT
BRANCH   3  12
HETATM   12  N   UNL     1      40.271 -16.056   1.045  1.00  0.00    -0.262 NA
HETATM   13  H   UNL     1      40.252 -16.655   0.212  1.00  0.00     0.130 HD
BRANCH  12  14
HETATM   14  C   UNL     1      40.737 -14.707   0.704  1.00  0.00     0.100 C 
BRANCH  14  15
HETATM   15  C   UNL     1      41.362 -14.694  -0.696  1.00  0.00     0.053 C 
BRANCH  15  16
HETATM   16  C   UNL     1      40.310 -14.833  -1.768  1.00  0.00    -0.057 A 
HETATM   17  C   UNL     1      39.113 -14.111  -1.696  1.00  0.00     0.010 A 
HETATM   18  C   UNL     1      38.130 -14.279  -2.673  1.00  0.00     0.037 A 
HETATM   19  C   UNL     1      38.326 -15.155  -3.742  1.00  0.00     0.068 A 
HETATM   20  C   UNL     1      39.521 -15.870  -3.825  1.00  0.00     0.037 A 
HETATM   21  C   UNL     1      40.505 -15.709  -2.843  1.00  0.00     0.010 A 
BRANCH  19  22
HETATM   22  O   UNL     1      37.284 -15.226  -4.622  1.00  0.00    -0.356 OA
HETATM   23  C   UNL     1      36.295 -14.206  -4.537  1.00  0.00     0.210 C 
ENDBRANCH  19  22
ENDBRANCH  15  16
ENDBRANCH  14  15
ENDBRANCH  12  14
ENDBRANCH   3  12
BRANCH   1  24
HETATM   24  N   UNL     1      41.816 -16.641   5.445  1.00  0.00    -0.277 NA
HETATM   25  H   UNL     1      42.032 -17.442   6.035  1.00  0.00     0.129 HD
BRANCH  24  26
HETATM   26  C   UNL     1      42.589 -15.464   5.841  1.00  0.00     0.093 C 
BRANCH  26  27
HETATM   27  C   UNL     1      43.690 -15.865   6.824  1.00  0.00     0.010 C 
HETATM   28  C   UNL     1      43.238 -16.929   7.815  1.00  0.00     0.006 C 
ENDBRANCH  26  27
ENDBRANCH  24  26
ENDBRANCH   1  24
TORSDOF 8
ENDMDL
MODEL 5
REMARK VINA RESULT:      -7.4      3.500      6.897
REMARK  8 active torsions:
REMARK  status: ('A' for Active; 'I' for Inactive)
REMARK    1  A    between atoms: C_2  and  C_3 
REMARK    2  A    between atoms: C_3  and  N_4 
REMARK    3  A    between atoms: N_4  and  C_5 
REMARK    4  A    between atoms: C_7  and  N_8 
REMARK    5  A    between atoms: N_8  and  C_9 
REMARK    6  A    between atoms: C_9  and  C_10 
REMARK    7  A    between atoms: C_10  and  C_11 
REMARK    8  A    between atoms: C_14  and  O_15 
ROOT
HETATM    1  C   UNL     1      43.195 -17.624   4.130  1.00  0.00     0.119 A 
HETATM    2  N   UNL     1      42.397 -16.859   3.361  1.00  0.00    -0.207 NA
HETATM    3  C   UNL     1      42.045 -17.338   2.163  1.00  0.00     0.181 A 
HETATM    4  N   UNL     1      42.462 -18.506   1.688  1.00  0.00    -0.330 N 
HETATM    5  H   UNL     1      42.197 -18.742   0.741  1.00  0.00     0.168 HD
HETATM    6  C   UNL     1      43.231 -19.317   2.422  1.00  0.00     0.048 A 
HETATM    7  C   UNL     1      43.627 -18.903   3.709  1.00  0.00     0.031 A 
HETATM    8  C   UNL     1      43.625 -20.563   1.912  1.00  0.00     0.030 A 
HETATM    9  C   UNL     1      44.407 -21.419   2.686  1.00  0.00     0.002 A 
HETATM   10  C   UNL     1      44.795 -21.037   3.967  1.00  0.00     0.001 A 
HETATM   11  C   UNL     1      44.413 -19.794   4.476  1.00  0.00     0.017 A 
ENDROOT
BRANCH   3  12
HETATM   12  N   UNL     1      41.250 -16.533   1.357  1.00  0.00    -0.262 NA
HETATM   13  H   UNL     1      40.434 -17.115   1.141  1.00  0.00     0.130 HD
BRANCH  12  14
HETATM   14  C   UNL     1      41.900 -16.072   0.125  1.00  0.00     0.100 C 
BRANCH  14  15
HETATM   15  C   UNL     1      41.331 -14.714  -0.305  1.00  0.00     0.053 C 
BRANCH  15  16
HETATM   16  C   UNL     1      40.385 -14.861  -1.470  1.00  0.00    -0.057 A 
HETATM   17  C   UNL     1      39.211 -14.103  -1.539  1.00  0.00     0.010 A 
HETATM   18  C   UNL     1      38.323 -14.277  -2.604  1.00  0.00     0.037 A 
HETATM   19  C   UNL     1      38.596 -15.195  -3.620  1.00  0.00     0.068 A 
HETATM   20  C   UNL     1      39.770 -15.944  -3.562  1.00  0.00     0.037 A 
HETATM   21  C   UNL     1      40.658 -15.778  -2.493  1.00  0.00     0.010 A 
BRANCH  19  22
HETATM   22  O   UNL     1      37.642 -15.267  -4.596  1.00  0.00    -0.356 OA
HETATM   23  C   UNL     1      36.458 -14.503  -4.400  1.00  0.00     0.210 C 
ENDBRANCH  19  22
ENDBRANCH  15  16
ENDBRANCH  14  15
ENDBRANCH  12  14
ENDBRANCH   3  12
BRANCH   1  24
HETATM   24  N   UNL     1      43.561 -17.161   5.401  1.00  0.00    -0.277 NA
HETATM   25  H   UNL     1      44.021 -16.255   5.337  1.00  0.00     0.129 HD
BRANCH  24  26
HETATM   26  C   UNL     1      42.518 -17.158   6.428  1.00  0.00     0.093 C 
BRANCH  26  27
HETATM   27  C   UNL     1      43.150 -17.252   7.818  1.00  0.00     0.010 C 
HETATM   28  C   UNL     1      44.060 -18.463   7.972  1.00  0.00     0.006 C 
ENDBRANCH  26  27
ENDBRANCH  24  26
ENDBRANCH   1  24
TORSDOF 8
ENDMDL
MODEL 6
REMARK VINA RESULT:      -7.4      2.883      6.032
REMARK  8 active torsions:
REMARK  status: ('A' for Active; 'I' for Inactive)
REMARK    1  A    between atoms: C_2  and  C_3 
REMARK    2  A    between atoms: C_3  and  N_4 
REMARK    3  A    between atoms: N_4  and  C_5 
REMARK    4  A    between atoms: C_7  and  N_8 
REMARK    5  A    between atoms: N_8  and  C_9 
REMARK    6  A    between atoms: C_9  and  C_10 
REMARK    7  A    between atoms: C_10  and  C_11 
REMARK    8  A    between atoms: C_14  and  O_15 
ROOT
HETATM    1  C   UNL     1      44.186 -18.469   4.197  1.00  0.00     0.119 A 
HETATM    2  N   UNL     1      43.888 -17.681   3.147  1.00  0.00    -0.207 NA
HETATM    3  C   UNL     1      43.774 -18.261   1.947  1.00  0.00     0.181 A 
HETATM    4  N   UNL     1      43.967 -19.559   1.739  1.00  0.00    -0.330 N 
HETATM    5  H   UNL     1      43.929 -19.884   0.782  1.00  0.00     0.168 HD
HETATM    6  C   UNL     1      44.236 -20.390   2.750  1.00  0.00     0.048 A 
HETATM    7  C   UNL     1      44.346 -19.867   4.054  1.00  0.00     0.031 A 
HETATM    8  C   UNL     1      44.395 -21.762   2.509  1.00  0.00     0.030 A 
HETATM    9  C   UNL     1      44.652 -22.633   3.567  1.00  0.00     0.002 A 
HETATM   10  C   UNL     1      44.748 -22.140   4.865  1.00  0.00     0.001 A 
HETATM   11  C   UNL     1      44.598 -20.773   5.109  1.00  0.00     0.017 A 
ENDROOT
BRANCH   3  12
HETATM   12  N   UNL     1      43.500 -17.442   0.859  1.00  0.00    -0.262 NA
HETATM   13  H   UNL     1      44.415 -17.071   0.583  1.00  0.00     0.130 HD
BRANCH  12  14
HETATM   14  C   UNL     1      42.562 -16.350   1.140  1.00  0.00     0.100 C 
BRANCH  14  15
HETATM   15  C   UNL     1      41.302 -16.490   0.276  1.00  0.00     0.053 C 
BRANCH  15  16
HETATM   16  C   UNL     1      41.303 -15.496  -0.859  1.00  0.00    -0.057 A 
HETATM   17  C   UNL     1      41.657 -14.160  -0.641  1.00  0.00     0.010 A 
HETATM   18  C   UNL     1      41.615 -13.241  -1.692  1.00  0.00     0.037 A 
HETATM   19  C   UNL     1      41.234 -13.639  -2.975  1.00  0.00     0.068 A 
HETATM   20  C   UNL     1      40.890 -14.971  -3.200  1.00  0.00     0.037 A 
HETATM   21  C   UNL     1      40.924 -15.893  -2.148  1.00  0.00     0.010 A 
BRANCH  19  22
HETATM   22  O   UNL     1      41.232 -12.639  -3.907  1.00  0.00    -0.356 OA
HETATM   23  C   UNL     1      42.288 -11.687  -3.835  1.00  0.00     0.210 C 
ENDBRANCH  19  22
ENDBRANCH  15  16
ENDBRANCH  14  15
ENDBRANCH  12  14
ENDBRANCH   3  12
BRANCH   1  24
HETATM   24  N   UNL     1      44.287 -17.895   5.471  1.00  0.00    -0.277 NA
HETATM   25  H   UNL     1      45.250 -17.912   5.801  1.00  0.00     0.129 HD
BRANCH  24  26
HETATM   26  C   UNL     1      43.688 -16.571   5.647  1.00  0.00     0.093 C 
BRANCH  26  27
HETATM   27  C   UNL     1      44.073 -15.999   7.013  1.00  0.00     0.010 C 
HETATM   28  C   UNL     1      44.506 -14.541   6.941  1.00  0.00     0.006 C 
ENDBRANCH  26  27
ENDBRANCH  24  26
ENDBRANCH   1  24
TORSDOF 8
ENDMDL
MODEL 7
REMARK VINA RESULT:      -7.1      2.668      5.236
REMARK  8 active torsions:
REMARK  status: ('A' for Active; 'I' for Inactive)
REMARK    1  A    between atoms: C_2  and  C_3 
REMARK    2  A    between atoms: C_3  and  N_4 
REMARK    3  A    between atoms: N_4  and  C_5 
REMARK    4  A    between atoms: C_7  and  N_8 
REMARK    5  A    between atoms: N_8  and  C_9 
REMARK    6  A    between atoms: C_9  and  C_10 
REMARK    7  A    between atoms: C_10  and  C_11 
REMARK    8  A    between atoms: C_14  and  O_15 
ROOT
HETATM    1  C   UNL     1      44.251 -18.584   4.521  1.00  0.00     0.119 A 
HETATM    2  N   UNL     1      43.907 -17.689   3.574  1.00  0.00    -0.207 NA
HETATM    3  C   UNL     1      43.722 -18.143   2.329  1.00  0.00     0.181 A 
HETATM    4  N   UNL     1      43.889 -19.413   1.980  1.00  0.00    -0.330 N 
HETATM    5  H   UNL     1      43.796 -19.638   0.998  1.00  0.00     0.168 HD
HETATM    6  C   UNL     1      44.201 -20.346   2.885  1.00  0.00     0.048 A 
HETATM    7  C   UNL     1      44.386 -19.960   4.227  1.00  0.00     0.031 A 
HETATM    8  C   UNL     1      44.332 -21.687   2.496  1.00  0.00     0.030 A 
HETATM    9  C   UNL     1      44.634 -22.663   3.444  1.00  0.00     0.002 A 
HETATM   10  C   UNL     1      44.804 -22.307   4.779  1.00  0.00     0.001 A 
HETATM   11  C   UNL     1      44.683 -20.971   5.169  1.00  0.00     0.017 A 
ENDROOT
BRANCH   3  12
HETATM   12  N   UNL     1      43.401 -17.214   1.348  1.00  0.00    -0.262 NA
HETATM   13  H   UNL     1      44.309 -16.882   1.005  1.00  0.00     0.130 HD
BRANCH  12  14
HETATM   14  C   UNL     1      42.581 -16.092   1.816  1.00  0.00     0.100 C 
BRANCH  14  15
HETATM   15  C   UNL     1      41.104 -16.500   1.887  1.00  0.00     0.053 C 
BRANCH  15  16
HETATM   16  C   UNL     1      40.221 -15.485   1.206  1.00  0.00    -0.057 A 
HETATM   17  C   UNL     1      38.973 -15.147   1.741  1.00  0.00     0.010 A 
HETATM   18  C   UNL     1      38.147 -14.235   1.079  1.00  0.00     0.037 A 
HETATM   19  C   UNL     1      38.555 -13.638  -0.114  1.00  0.00     0.068 A 
HETATM   20  C   UNL     1      39.802 -13.962  -0.647  1.00  0.00     0.037 A 
HETATM   21  C   UNL     1      40.628 -14.881   0.010  1.00  0.00     0.010 A 
BRANCH  19  22
HETATM   22  O   UNL     1      37.650 -12.770  -0.657  1.00  0.00    -0.356 OA
HETATM   23  C   UNL     1      37.636 -12.654  -2.076  1.00  0.00     0.210 C 
ENDBRANCH  19  22
ENDBRANCH  15  16
ENDBRANCH  14  15
ENDBRANCH  12  14
ENDBRANCH   3  12
BRANCH   1  24
HETATM   24  N   UNL     1      44.425 -18.144   5.839  1.00  0.00    -0.277 NA
HETATM   25  H   UNL     1      45.411 -18.153   6.097  1.00  0.00     0.129 HD
BRANCH  24  26
HETATM   26  C   UNL     1      43.793 -16.874   6.202  1.00  0.00     0.093 C 
BRANCH  26  27
HETATM   27  C   UNL     1      42.543 -17.132   7.044  1.00  0.00     0.010 C 
HETATM   28  C   UNL     1      41.252 -16.919   6.266  1.00  0.00     0.006 C 
ENDBRANCH  26  27
ENDBRANCH  24  26
ENDBRANCH   1  24
TORSDOF 8
ENDMDL
MODEL 8
REMARK VINA RESULT:      -7.1      2.334      4.674
REMARK  8 active torsions:
REMARK  status: ('A' for Active; 'I' for Inactive)
REMARK    1  A    between atoms: C_2  and  C_3 
REMARK    2  A    between atoms: C_3  and  N_4 
REMARK    3  A    between atoms: N_4  and  C_5 
REMARK    4  A    between atoms: C_7  and  N_8 
REMARK    5  A    between atoms: N_8  and  C_9 
REMARK    6  A    between atoms: C_9  and  C_10 
REMARK    7  A    between atoms: C_10  and  C_11 
REMARK    8  A    between atoms: C_14  and  O_15 
ROOT
HETATM    1  C   UNL     1      43.407 -17.835   4.097  1.00  0.00     0.119 A 
HETATM    2  N   UNL     1      42.609 -17.039   3.360  1.00  0.00    -0.207 NA
HETATM    3  C   UNL     1      42.182 -17.508   2.182  1.00  0.00     0.181 A 
HETATM    4  N   UNL     1      42.526 -18.695   1.698  1.00  0.00    -0.330 N 
HETATM    5  H   UNL     1      42.208 -18.924   0.765  1.00  0.00     0.168 HD
HETATM    6  C   UNL     1      43.291 -19.535   2.401  1.00  0.00     0.048 A 
HETATM    7  C   UNL     1      43.763 -19.133   3.666  1.00  0.00     0.031 A 
HETATM    8  C   UNL     1      43.607 -20.800   1.883  1.00  0.00     0.030 A 
HETATM    9  C   UNL     1      44.385 -21.686   2.627  1.00  0.00     0.002 A 
HETATM   10  C   UNL     1      44.848 -21.315   3.886  1.00  0.00     0.001 A 
HETATM   11  C   UNL     1      44.543 -20.054   4.403  1.00  0.00     0.017 A 
ENDROOT
BRANCH   3  12
HETATM   12  N   UNL     1      41.387 -16.672   1.408  1.00  0.00    -0.262 NA
HETATM   13  H   UNL     1      42.000 -15.885   1.171  1.00  0.00     0.130 HD
BRANCH  12  14
HETATM   14  C   UNL     1      40.169 -16.200   2.075  1.00  0.00     0.100 C 
BRANCH  14  15
HETATM   15  C   UNL     1      40.013 -14.684   1.896  1.00  0.00     0.053 C 
BRANCH  15  16
HETATM   16  C   UNL     1      39.784 -13.997   3.218  1.00  0.00    -0.057 A 
HETATM   17  C   UNL     1      39.305 -12.683   3.269  1.00  0.00     0.010 A 
HETATM   18  C   UNL     1      39.135 -12.044   4.500  1.00  0.00     0.037 A 
HETATM   19  C   UNL     1      39.425 -12.704   5.695  1.00  0.00     0.068 A 
HETATM   20  C   UNL     1      39.892 -14.017   5.650  1.00  0.00     0.037 A 
HETATM   21  C   UNL     1      40.071 -14.658   4.419  1.00  0.00     0.010 A 
BRANCH  19  22
HETATM   22  O   UNL     1      39.218 -11.962   6.823  1.00  0.00    -0.356 OA
HETATM   23  C   UNL     1      39.665 -10.611   6.799  1.00  0.00     0.210 C 
ENDBRANCH  19  22
ENDBRANCH  15  16
ENDBRANCH  14  15
ENDBRANCH  12  14
ENDBRANCH   3  12
BRANCH   1  24
HETATM   24  N   UNL     1      43.850 -17.382   5.347  1.00  0.00    -0.277 NA
HETATM   25  H   UNL     1      44.867 -17.348   5.380  1.00  0.00     0.129 HD
BRANCH  24  26
HETATM   26  C   UNL     1      43.260 -16.140   5.847  1.00  0.00     0.093 C 
BRANCH  26  27
HETATM   27  C   UNL     1      43.977 -15.693   7.122  1.00  0.00     0.010 C 
HETATM   28  C   UNL     1      44.576 -14.298   7.004  1.00  0.00     0.006 C 
ENDBRANCH  26  27
ENDBRANCH  24  26
ENDBRANCH   1  24
TORSDOF 8
ENDMDL
MODEL 9
REMARK VINA RESULT:      -7.0      1.483      1.765
REMARK  8 active torsions:
REMARK  status: ('A' for Active; 'I' for Inactive)
REMARK    1  A    between atoms: C_2  and  C_3 
REMARK    2  A    between atoms: C_3  and  N_4 
REMARK    3  A    between atoms: N_4  and  C_5 
REMARK    4  A    between atoms: C_7  and  N_8 
REMARK    5  A    between atoms: N_8  and  C_9 
REMARK    6  A    between atoms: C_9  and  C_10 
REMARK    7  A    between atoms: C_10  and  C_11 
REMARK    8  A    between atoms: C_14  and  O_15 
ROOT
HETATM    1  C   UNL     1      43.864 -18.192   3.198  1.00  0.00     0.119 A 
HETATM    2  N   UNL     1      44.130 -17.586   4.371  1.00  0.00    -0.207 NA
HETATM    3  C   UNL     1      44.561 -18.351   5.380  1.00  0.00     0.181 A 
HETATM    4  N   UNL     1      44.711 -19.667   5.291  1.00  0.00    -0.330 N 
HETATM    5  H   UNL     1      44.972 -20.161   6.134  1.00  0.00     0.168 HD
HETATM    6  C   UNL     1      44.489 -20.313   4.142  1.00  0.00     0.048 A 
HETATM    7  C   UNL     1      44.059 -19.580   3.018  1.00  0.00     0.031 A 
HETATM    8  C   UNL     1      44.693 -21.699   4.063  1.00  0.00     0.030 A 
HETATM    9  C   UNL     1      44.485 -22.369   2.859  1.00  0.00     0.002 A 
HETATM   10  C   UNL     1      44.076 -21.661   1.732  1.00  0.00     0.001 A 
HETATM   11  C   UNL     1      43.863 -20.283   1.807  1.00  0.00     0.017 A 
ENDROOT
BRANCH   3  12
HETATM   12  N   UNL     1      44.802 -17.730   6.600  1.00  0.00    -0.262 NA
HETATM   13  H   UNL     1      44.354 -18.342   7.290  1.00  0.00     0.130 HD
BRANCH  12  14
HETATM   14  C   UNL     1      44.279 -16.363   6.701  1.00  0.00     0.100 C 
BRANCH  14  15
HETATM   15  C   UNL     1      42.752 -16.382   6.843  1.00  0.00     0.053 C 
BRANCH  15  16
HETATM   16  C   UNL     1      42.122 -15.205   6.143  1.00  0.00    -0.057 A 
HETATM   17  C   UNL     1      40.759 -15.203   5.829  1.00  0.00     0.010 A 
HETATM   18  C   UNL     1      40.195 -14.123   5.145  1.00  0.00     0.037 A 
HETATM   19  C   UNL     1      40.975 -13.026   4.775  1.00  0.00     0.068 A 
HETATM   20  C   UNL     1      42.332 -13.017   5.094  1.00  0.00     0.037 A 
HETATM   21  C   UNL     1      42.901 -14.101   5.774  1.00  0.00     0.010 A 
BRANCH  19  22
HETATM   22  O   UNL     1      40.299 -12.043   4.108  1.00  0.00    -0.356 OA
HETATM   23  C   UNL     1      39.230 -12.454   3.263  1.00  0.00     0.210 C 
ENDBRANCH  19  22
ENDBRANCH  15  16
ENDBRANCH  14  15
ENDBRANCH  12  14
ENDBRANCH   3  12
BRANCH   1  24
HETATM   24  N   UNL     1      43.435 -17.414   2.114  1.00  0.00    -0.277 NA
HETATM   25  H   UNL     1      42.541 -17.748   1.760  1.00  0.00     0.129 HD
BRANCH  24  26
HETATM   26  C   UNL     1      43.422 -15.963   2.306  1.00  0.00     0.093 C 
BRANCH  26  27
HETATM   27  C   UNL     1      41.993 -15.431   2.187  1.00  0.00     0.010 C 
HETATM   28  C   UNL     1      41.884 -14.236   1.249  1.00  0.00     0.006 C 
ENDBRANCH  26  27
ENDBRANCH  24  26
ENDBRANCH   1  24
TORSDOF 8
ENDMDL
MODEL 10
REMARK VINA RESULT:      -7.0      4.125      5.380
REMARK  8 active torsions:
REMARK  status: ('A' for Active; 'I' for Inactive)
REMARK    1  A    between atoms: C_2  and  C_3 
REMARK    2  A    between atoms: C_3  and  N_4 
REMARK    3  A    between atoms: N_4  and  C_5 
REMARK    4  A    between atoms: C_7  and  N_8 
REMARK    5  A    between atoms: N_8  and  C_9 
REMARK    6  A    between atoms: C_9  and  C_10 
REMARK    7  A    between atoms: C_10  and  C_11 
REMARK    8  A    between atoms: C_14  and  O_15 
ROOT
HETATM    1  C   UNL     1      43.276 -15.436   4.826  1.00  0.00     0.119 A 
HETATM    2  N   UNL     1      43.531 -14.647   5.887  1.00  0.00    -0.207 NA
HETATM    3  C   UNL     1      44.058 -15.221   6.975  1.00  0.00     0.181 A 
HETATM    4  N   UNL     1      44.312 -16.522   7.068  1.00  0.00    -0.330 N 
HETATM    5  H   UNL     1      44.641 -16.866   7.960  1.00  0.00     0.168 HD
HETATM    6  C   UNL     1      44.104 -17.343   6.034  1.00  0.00     0.048 A 
HETATM    7  C   UNL     1      43.578 -16.817   4.838  1.00  0.00     0.031 A 
HETATM    8  C   UNL     1      44.418 -18.706   6.146  1.00  0.00     0.030 A 
HETATM    9  C   UNL     1      44.225 -19.559   5.060  1.00  0.00     0.002 A 
HETATM   10  C   UNL     1      43.722 -19.057   3.863  1.00  0.00     0.001 A 
HETATM   11  C   UNL     1      43.399 -17.702   3.750  1.00  0.00     0.017 A 
ENDROOT
BRANCH   3  12
HETATM   12  N   UNL     1      44.288 -14.413   8.081  1.00  0.00    -0.262 NA
HETATM   13  H   UNL     1      43.397 -14.414   8.588  1.00  0.00     0.130 HD
BRANCH  12  14
HETATM   14  C   UNL     1      44.700 -13.042   7.759  1.00  0.00     0.100 C 
BRANCH  14  15
HETATM   15  C   UNL     1      45.407 -12.399   8.958  1.00  0.00     0.053 C 
BRANCH  15  16
HETATM   16  C   UNL     1      44.483 -11.472   9.706  1.00  0.00    -0.057 A 
HETATM   17  C   UNL     1      44.783 -11.058  11.009  1.00  0.00     0.010 A 
HETATM   18  C   UNL     1      43.900 -10.231  11.706  1.00  0.00     0.037 A 
HETATM   19  C   UNL     1      42.714  -9.793  11.115  1.00  0.00     0.068 A 
HETATM   20  C   UNL     1      42.414 -10.193   9.813  1.00  0.00     0.037 A 
HETATM   21  C   UNL     1      43.294 -11.028   9.114  1.00  0.00     0.010 A 
BRANCH  19  22
HETATM   22  O   UNL     1      41.940  -8.993  11.908  1.00  0.00    -0.356 OA
HETATM   23  C   UNL     1      41.788  -9.386  13.268  1.00  0.00     0.210 C 
ENDBRANCH  19  22
ENDBRANCH  15  16
ENDBRANCH  14  15
ENDBRANCH  12  14
ENDBRANCH   3  12
BRANCH   1  24
HETATM   24  N   UNL     1      42.749 -14.860   3.663  1.00  0.00    -0.277 NA
HETATM   25  H   UNL     1      42.395 -15.577   3.032  1.00  0.00     0.129 HD
BRANCH  24  26
HETATM   26  C   UNL     1      41.776 -13.782   3.843  1.00  0.00     0.093 C 
BRANCH  26  27
HETATM   27  C   UNL     1      40.365 -14.361   3.957  1.00  0.00     0.010 C 
HETATM   28  C   UNL     1      39.887 -14.471   5.399  1.00  0.00     0.006 C 
ENDBRANCH  26  27
ENDBRANCH  24  26
ENDBRANCH   1  24
TORSDOF 8
ENDMDL
