MODEL 1
REMARK VINA RESULT:      -7.4      0.000      0.000
REMARK  5 active torsions:
REMARK  status: ('A' for Active; 'I' for Inactive)
REMARK    1  A    between atoms: C_4  and  C_5 
REMARK       I    between atoms: C_5  and  N_6 
REMARK    2  A    between atoms: N_6  and  C_7 
REMARK    3  A    between atoms: C_7  and  C_8 
REMARK    4  A    between atoms: C_8  and  C_9 
REMARK    5  A    between atoms: C_18  and  O_19 
ROOT
HETATM    1  C   UNL     1      43.083 -17.994   1.814  1.00  0.00     0.254 C 
HETATM    2  N   UNL     1      41.801 -17.524   2.011  1.00  0.00    -0.356 N 
HETATM    3  O   UNL     1      43.733 -17.771   0.796  1.00  0.00    -0.268 OA
HETATM    4  H   UNL     1      41.460 -17.462   2.963  1.00  0.00     0.162 HD
ENDROOT
BRANCH   1   5
HETATM    5  C   UNL     1      43.707 -18.769   2.923  1.00  0.00     0.066 A 
HETATM    6  C   UNL     1      44.058 -18.149   4.132  1.00  0.00     0.026 A 
HETATM    7  C   UNL     1      44.650 -18.887   5.166  1.00  0.00    -0.060 A 
HETATM    8  C   UNL     1      44.987 -18.238   6.476  1.00  0.00     0.048 C 
HETATM    9  C   UNL     1      44.871 -20.259   4.988  1.00  0.00     0.016 A 
HETATM   10  C   UNL     1      44.521 -20.902   3.791  1.00  0.00    -0.027 A 
HETATM   11  C   UNL     1      43.917 -20.152   2.772  1.00  0.00     0.087 A 
HETATM   12  C   UNL     1      44.729 -22.384   3.657  1.00  0.00     0.051 C 
BRANCH  11  13
HETATM   13  O   UNL     1      43.539 -20.827   1.637  1.00  0.00    -0.359 OA
HETATM   14  H   UNL     1      42.908 -20.258   1.142  1.00  0.00     0.218 HD
ENDBRANCH  11  13
ENDBRANCH   1   5
BRANCH   2  15
HETATM   15  C   UNL     1      41.168 -16.656   1.030  1.00  0.00     0.136 C 
BRANCH  15  16
HETATM   16  C   UNL     1      40.747 -15.273   1.607  1.00  0.00    -0.004 C 
HETATM   17  C   UNL     1      40.923 -14.208   0.499  1.00  0.00     0.021 C 
HETATM   18  C   UNL     1      39.235 -15.336   1.934  1.00  0.00     0.021 C 
BRANCH  16  19
HETATM   19  C   UNL     1      41.622 -14.880   2.811  1.00  0.00    -0.046 A 
HETATM   20  C   UNL     1      42.882 -14.288   2.613  1.00  0.00     0.027 A 
HETATM   21  C   UNL     1      43.659 -13.944   3.710  1.00  0.00     0.116 A 
HETATM   22  N   UNL     1      43.281 -14.142   4.987  1.00  0.00    -0.273 NA
HETATM   23  C   UNL     1      42.068 -14.698   5.173  1.00  0.00     0.116 A 
HETATM   24  C   UNL     1      41.221 -15.078   4.138  1.00  0.00     0.027 A 
ENDBRANCH  16  19
ENDBRANCH  15  16
ENDBRANCH   2  15
TORSDOF 5
ENDMDL
MODEL 2
REMARK VINA RESULT:      -7.4      2.369      3.822
REMARK  5 active torsions:
REMARK  status: ('A' for Active; 'I' for Inactive)
REMARK    1  A    between atoms: C_4  and  C_5 
REMARK       I    between atoms: C_5  and  N_6 
REMARK    2  A    between atoms: N_6  and  C_7 
REMARK    3  A    between atoms: C_7  and  C_8 
REMARK    4  A    between atoms: C_8  and  C_9 
REMARK    5  A    between atoms: C_18  and  O_19 
ROOT
HETATM    1  C   UNL     1      42.151 -17.517   1.734  1.00  0.00     0.254 C 
HETATM    2  N   UNL     1      41.051 -17.018   2.399  1.00  0.00    -0.356 N 
HETATM    3  O   UNL     1      42.459 -17.178   0.593  1.00  0.00    -0.268 OA
HETATM    4  H   UNL     1      41.040 -17.082   3.410  1.00  0.00     0.162 HD
ENDROOT
BRANCH   1   5
HETATM    5  C   UNL     1      43.020 -18.479   2.468  1.00  0.00     0.066 A 
HETATM    6  C   UNL     1      43.328 -19.736   1.925  1.00  0.00     0.026 A 
HETATM    7  C   UNL     1      44.141 -20.636   2.627  1.00  0.00    -0.060 A 
HETATM    8  C   UNL     1      44.510 -21.963   2.031  1.00  0.00     0.048 C 
HETATM    9  C   UNL     1      44.663 -20.260   3.872  1.00  0.00     0.016 A 
HETATM   10  C   UNL     1      44.374 -19.006   4.431  1.00  0.00    -0.027 A 
HETATM   11  C   UNL     1      43.571 -18.112   3.710  1.00  0.00     0.087 A 
HETATM   12  C   UNL     1      44.992 -18.620   5.746  1.00  0.00     0.051 C 
BRANCH  11  13
HETATM   13  O   UNL     1      43.356 -16.874   4.264  1.00  0.00    -0.359 OA
HETATM   14  H   UNL     1      44.169 -16.615   4.753  1.00  0.00     0.218 HD
ENDBRANCH  11  13
ENDBRANCH   1   5
BRANCH   2  15
HETATM   15  C   UNL     1      40.224 -15.984   1.798  1.00  0.00     0.136 C 
BRANCH  15  16
HETATM   16  C   UNL     1      40.344 -14.604   2.510  1.00  0.00    -0.004 C 
HETATM   17  C   UNL     1      40.211 -14.829   4.034  1.00  0.00     0.021 C 
HETATM   18  C   UNL     1      41.772 -14.063   2.257  1.00  0.00     0.021 C 
BRANCH  16  19
HETATM   19  C   UNL     1      39.230 -13.642   2.054  1.00  0.00    -0.046 A 
HETATM   20  C   UNL     1      38.288 -14.049   1.093  1.00  0.00     0.027 A 
HETATM   21  C   UNL     1      37.294 -13.168   0.692  1.00  0.00     0.116 A 
HETATM   22  N   UNL     1      37.163 -11.917   1.172  1.00  0.00    -0.273 NA
HETATM   23  C   UNL     1      38.059 -11.536   2.102  1.00  0.00     0.116 A 
HETATM   24  C   UNL     1      39.091 -12.346   2.565  1.00  0.00     0.027 A 
ENDBRANCH  16  19
ENDBRANCH  15  16
ENDBRANCH   2  15
TORSDOF 5
ENDMDL
MODEL 3
REMARK VINA RESULT:      -7.4      1.472      2.633
REMARK  5 active torsions:
REMARK  status: ('A' for Active; 'I' for Inactive)
REMARK    1  A    between atoms: C_4  and  C_5 
REMARK       I    between atoms: C_5  and  N_6 
REMARK    2  A    between atoms: N_6  and  C_7 
REMARK    3  A    between atoms: C_7  and  C_8 
REMARK    4  A    between atoms: C_8  and  C_9 
REMARK    5  A    between atoms: C_18  and  O_19 
ROOT
HETATM    1  C   UNL     1      41.957 -17.499   1.679  1.00  0.00     0.254 C 
HETATM    2  N   UNL     1      42.358 -16.180   1.624  1.00  0.00    -0.356 N 
HETATM    3  O   UNL     1      40.925 -17.911   1.155  1.00  0.00    -0.268 OA
HETATM    4  H   UNL     1      43.337 -15.975   1.781  1.00  0.00     0.162 HD
ENDROOT
BRANCH   1   5
HETATM    5  C   UNL     1      42.857 -18.461   2.373  1.00  0.00     0.066 A 
HETATM    6  C   UNL     1      43.177 -19.699   1.796  1.00  0.00     0.026 A 
HETATM    7  C   UNL     1      44.020 -20.600   2.460  1.00  0.00    -0.060 A 
HETATM    8  C   UNL     1      44.400 -21.907   1.827  1.00  0.00     0.048 C 
HETATM    9  C   UNL     1      44.560 -20.243   3.703  1.00  0.00     0.016 A 
HETATM   10  C   UNL     1      44.261 -19.007   4.296  1.00  0.00    -0.027 A 
HETATM   11  C   UNL     1      43.427 -18.112   3.612  1.00  0.00     0.087 A 
HETATM   12  C   UNL     1      44.898 -18.640   5.607  1.00  0.00     0.051 C 
BRANCH  11  13
HETATM   13  O   UNL     1      43.201 -16.891   4.199  1.00  0.00    -0.359 OA
HETATM   14  H   UNL     1      42.920 -17.048   5.128  1.00  0.00     0.218 HD
ENDBRANCH  11  13
ENDBRANCH   1   5
BRANCH   2  15
HETATM   15  C   UNL     1      41.597 -15.203   0.860  1.00  0.00     0.136 C 
BRANCH  15  16
HETATM   16  C   UNL     1      40.654 -14.329   1.738  1.00  0.00    -0.004 C 
HETATM   17  C   UNL     1      40.498 -12.948   1.060  1.00  0.00     0.021 C 
HETATM   18  C   UNL     1      39.255 -14.991   1.736  1.00  0.00     0.021 C 
BRANCH  16  19
HETATM   19  C   UNL     1      41.237 -14.123   3.149  1.00  0.00    -0.046 A 
HETATM   20  C   UNL     1      40.558 -14.615   4.278  1.00  0.00     0.027 A 
HETATM   21  C   UNL     1      41.096 -14.418   5.542  1.00  0.00     0.116 A 
HETATM   22  N   UNL     1      42.255 -13.770   5.769  1.00  0.00    -0.273 NA
HETATM   23  C   UNL     1      42.908 -13.312   4.684  1.00  0.00     0.116 A 
HETATM   24  C   UNL     1      42.448 -13.459   3.381  1.00  0.00     0.027 A 
ENDBRANCH  16  19
ENDBRANCH  15  16
ENDBRANCH   2  15
TORSDOF 5
ENDMDL
MODEL 4
REMARK VINA RESULT:      -7.4      2.672      7.307
REMARK  5 active torsions:
REMARK  status: ('A' for Active; 'I' for Inactive)
REMARK    1  A    between atoms: C_4  and  C_5 
REMARK       I    between atoms: C_5  and  N_6 
REMARK    2  A    between atoms: N_6  and  C_7 
REMARK    3  A    between atoms: C_7  and  C_8 
REMARK    4  A    between atoms: C_8  and  C_9 
REMARK    5  A    between atoms: C_18  and  O_19 
ROOT
HETATM    1  C   UNL     1      40.701 -15.768   1.271  1.00  0.00     0.254 C 
HETATM    2  N   UNL     1      41.520 -16.841   0.984  1.00  0.00    -0.356 N 
HETATM    3  O   UNL     1      40.113 -15.638   2.342  1.00  0.00    -0.268 OA
HETATM    4  H   UNL     1      42.207 -16.729   0.248  1.00  0.00     0.162 HD
ENDROOT
BRANCH   1   5
HETATM    5  C   UNL     1      40.574 -14.706   0.234  1.00  0.00     0.066 A 
HETATM    6  C   UNL     1      41.689 -14.270  -0.497  1.00  0.00     0.026 A 
HETATM    7  C   UNL     1      41.559 -13.266  -1.465  1.00  0.00    -0.060 A 
HETATM    8  C   UNL     1      42.741 -12.827  -2.280  1.00  0.00     0.048 C 
HETATM    9  C   UNL     1      40.296 -12.713  -1.713  1.00  0.00     0.016 A 
HETATM   10  C   UNL     1      39.164 -13.138  -1.000  1.00  0.00    -0.027 A 
HETATM   11  C   UNL     1      39.310 -14.154  -0.045  1.00  0.00     0.087 A 
HETATM   12  C   UNL     1      37.819 -12.557  -1.329  1.00  0.00     0.051 C 
BRANCH  11  13
HETATM   13  O   UNL     1      38.171 -14.582   0.593  1.00  0.00    -0.359 OA
HETATM   14  H   UNL     1      38.198 -14.249   1.518  1.00  0.00     0.218 HD
ENDBRANCH  11  13
ENDBRANCH   1   5
BRANCH   2  15
HETATM   15  C   UNL     1      41.794 -17.857   1.989  1.00  0.00     0.136 C 
BRANCH  15  16
HETATM   16  C   UNL     1      43.287 -17.903   2.431  1.00  0.00    -0.004 C 
HETATM   17  C   UNL     1      44.154 -17.343   1.280  1.00  0.00     0.021 C 
HETATM   18  C   UNL     1      43.455 -16.938   3.630  1.00  0.00     0.021 C 
BRANCH  16  19
HETATM   19  C   UNL     1      43.736 -19.344   2.732  1.00  0.00    -0.046 A 
HETATM   20  C   UNL     1      43.512 -20.369   1.795  1.00  0.00     0.027 A 
HETATM   21  C   UNL     1      43.921 -21.663   2.083  1.00  0.00     0.116 A 
HETATM   22  N   UNL     1      44.533 -22.017   3.229  1.00  0.00    -0.273 NA
HETATM   23  C   UNL     1      44.758 -21.031   4.118  1.00  0.00     0.116 A 
HETATM   24  C   UNL     1      44.383 -19.706   3.919  1.00  0.00     0.027 A 
ENDBRANCH  16  19
ENDBRANCH  15  16
ENDBRANCH   2  15
TORSDOF 5
ENDMDL
MODEL 5
REMARK VINA RESULT:      -7.2      1.668      3.088
REMARK  5 active torsions:
REMARK  status: ('A' for Active; 'I' for Inactive)
REMARK    1  A    between atoms: C_4  and  C_5 
REMARK       I    between atoms: C_5  and  N_6 
REMARK    2  A    between atoms: N_6  and  C_7 
REMARK    3  A    between atoms: C_7  and  C_8 
REMARK    4  A    between atoms: C_8  and  C_9 
REMARK    5  A    between atoms: C_18  and  O_19 
ROOT
HETATM    1  C   UNL     1      43.454 -17.829   1.977  1.00  0.00     0.254 C 
HETATM    2  N   UNL     1      42.124 -17.465   1.954  1.00  0.00    -0.356 N 
HETATM    3  O   UNL     1      44.282 -17.406   1.173  1.00  0.00    -0.268 OA
HETATM    4  H   UNL     1      41.586 -17.581   2.805  1.00  0.00     0.162 HD
ENDROOT
BRANCH   1   5
HETATM    5  C   UNL     1      43.897 -18.745   3.065  1.00  0.00     0.066 A 
HETATM    6  C   UNL     1      44.108 -18.271   4.369  1.00  0.00     0.026 A 
HETATM    7  C   UNL     1      44.530 -19.140   5.384  1.00  0.00    -0.060 A 
HETATM    8  C   UNL     1      44.715 -18.647   6.790  1.00  0.00     0.048 C 
HETATM    9  C   UNL     1      44.720 -20.496   5.089  1.00  0.00     0.016 A 
HETATM   10  C   UNL     1      44.508 -20.995   3.795  1.00  0.00    -0.027 A 
HETATM   11  C   UNL     1      44.072 -20.114   2.794  1.00  0.00     0.087 A 
HETATM   12  C   UNL     1      44.675 -22.464   3.529  1.00  0.00     0.051 C 
BRANCH  11  13
HETATM   13  O   UNL     1      43.822 -20.649   1.554  1.00  0.00    -0.359 OA
HETATM   14  H   UNL     1      44.682 -20.923   1.162  1.00  0.00     0.218 HD
ENDBRANCH  11  13
ENDBRANCH   1   5
BRANCH   2  15
HETATM   15  C   UNL     1      41.638 -16.480   1.000  1.00  0.00     0.136 C 
BRANCH  15  16
HETATM   16  C   UNL     1      41.072 -15.195   1.672  1.00  0.00    -0.004 C 
HETATM   17  C   UNL     1      40.618 -15.554   3.106  1.00  0.00     0.021 C 
HETATM   18  C   UNL     1      42.233 -14.180   1.809  1.00  0.00     0.021 C 
BRANCH  16  19
HETATM   19  C   UNL     1      39.862 -14.645   0.895  1.00  0.00    -0.046 A 
HETATM   20  C   UNL     1      40.009 -14.206  -0.433  1.00  0.00     0.027 A 
HETATM   21  C   UNL     1      38.908 -13.711  -1.117  1.00  0.00     0.116 A 
HETATM   22  N   UNL     1      37.674 -13.619  -0.585  1.00  0.00    -0.273 NA
HETATM   23  C   UNL     1      37.535 -14.054   0.682  1.00  0.00     0.116 A 
HETATM   24  C   UNL     1      38.577 -14.563   1.447  1.00  0.00     0.027 A 
ENDBRANCH  16  19
ENDBRANCH  15  16
ENDBRANCH   2  15
TORSDOF 5
ENDMDL
MODEL 6
REMARK VINA RESULT:      -7.2      2.489      7.124
REMARK  5 active torsions:
REMARK  status: ('A' for Active; 'I' for Inactive)
REMARK    1  A    between atoms: C_4  and  C_5 
REMARK       I    between atoms: C_5  and  N_6 
REMARK    2  A    between atoms: N_6  and  C_7 
REMARK    3  A    between atoms: C_7  and  C_8 
REMARK    4  A    between atoms: C_8  and  C_9 
REMARK    5  A    between atoms: C_18  and  O_19 
ROOT
HETATM    1  C   UNL     1      40.490 -15.930   2.086  1.00  0.00     0.254 C 
HETATM    2  N   UNL     1      41.028 -17.112   1.619  1.00  0.00    -0.356 N 
HETATM    3  O   UNL     1      40.443 -15.637   3.278  1.00  0.00    -0.268 OA
HETATM    4  H   UNL     1      41.327 -17.147   0.651  1.00  0.00     0.162 HD
ENDROOT
BRANCH   1   5
HETATM    5  C   UNL     1      39.988 -14.958   1.074  1.00  0.00     0.066 A 
HETATM    6  C   UNL     1      38.764 -14.295   1.253  1.00  0.00     0.026 A 
HETATM    7  C   UNL     1      38.298 -13.387   0.293  1.00  0.00    -0.060 A 
HETATM    8  C   UNL     1      37.012 -12.642   0.501  1.00  0.00     0.048 C 
HETATM    9  C   UNL     1      39.078 -13.131  -0.842  1.00  0.00     0.016 A 
HETATM   10  C   UNL     1      40.308 -13.776  -1.039  1.00  0.00    -0.027 A 
HETATM   11  C   UNL     1      40.766 -14.671  -0.062  1.00  0.00     0.087 A 
HETATM   12  C   UNL     1      41.138 -13.439  -2.245  1.00  0.00     0.051 C 
BRANCH  11  13
HETATM   13  O   UNL     1      41.999 -15.242  -0.263  1.00  0.00    -0.359 OA
HETATM   14  H   UNL     1      42.683 -14.583  -0.005  1.00  0.00     0.218 HD
ENDBRANCH  11  13
ENDBRANCH   1   5
BRANCH   2  15
HETATM   15  C   UNL     1      41.650 -18.057   2.533  1.00  0.00     0.136 C 
BRANCH  15  16
HETATM   16  C   UNL     1      43.199 -18.133   2.385  1.00  0.00    -0.004 C 
HETATM   17  C   UNL     1      43.566 -17.799   0.920  1.00  0.00     0.021 C 
HETATM   18  C   UNL     1      43.814 -17.019   3.267  1.00  0.00     0.021 C 
BRANCH  16  19
HETATM   19  C   UNL     1      43.723 -19.542   2.717  1.00  0.00    -0.046 A 
HETATM   20  C   UNL     1      44.363 -19.793   3.944  1.00  0.00     0.027 A 
HETATM   21  C   UNL     1      44.832 -21.068   4.224  1.00  0.00     0.116 A 
HETATM   22  N   UNL     1      44.715 -22.112   3.381  1.00  0.00    -0.273 NA
HETATM   23  C   UNL     1      44.090 -21.870   2.213  1.00  0.00     0.116 A 
HETATM   24  C   UNL     1      43.589 -20.627   1.842  1.00  0.00     0.027 A 
ENDBRANCH  16  19
ENDBRANCH  15  16
ENDBRANCH   2  15
TORSDOF 5
ENDMDL
MODEL 7
REMARK VINA RESULT:      -7.0      2.784      7.219
REMARK  5 active torsions:
REMARK  status: ('A' for Active; 'I' for Inactive)
REMARK    1  A    between atoms: C_4  and  C_5 
REMARK       I    between atoms: C_5  and  N_6 
REMARK    2  A    between atoms: N_6  and  C_7 
REMARK    3  A    between atoms: C_7  and  C_8 
REMARK    4  A    between atoms: C_8  and  C_9 
REMARK    5  A    between atoms: C_18  and  O_19 
ROOT
HETATM    1  C   UNL     1      42.271 -14.754   2.998  1.00  0.00     0.254 C 
HETATM    2  N   UNL     1      42.049 -16.076   3.323  1.00  0.00    -0.356 N 
HETATM    3  O   UNL     1      43.393 -14.260   2.914  1.00  0.00    -0.268 OA
HETATM    4  H   UNL     1      41.160 -16.486   3.061  1.00  0.00     0.162 HD
ENDROOT
BRANCH   1   5
HETATM    5  C   UNL     1      41.080 -13.913   2.693  1.00  0.00     0.066 A 
HETATM    6  C   UNL     1      39.991 -14.432   1.976  1.00  0.00     0.026 A 
HETATM    7  C   UNL     1      38.878 -13.631   1.690  1.00  0.00    -0.060 A 
HETATM    8  C   UNL     1      37.692 -14.194   0.963  1.00  0.00     0.048 C 
HETATM    9  C   UNL     1      38.853 -12.306   2.145  1.00  0.00     0.016 A 
HETATM   10  C   UNL     1      39.927 -11.766   2.869  1.00  0.00    -0.027 A 
HETATM   11  C   UNL     1      41.026 -12.586   3.159  1.00  0.00     0.087 A 
HETATM   12  C   UNL     1      39.842 -10.357   3.382  1.00  0.00     0.051 C 
BRANCH  11  13
HETATM   13  O   UNL     1      42.033 -12.040   3.918  1.00  0.00    -0.359 OA
HETATM   14  H   UNL     1      42.790 -11.844   3.321  1.00  0.00     0.218 HD
ENDBRANCH  11  13
ENDBRANCH   1   5
BRANCH   2  15
HETATM   15  C   UNL     1      43.163 -16.992   3.513  1.00  0.00     0.136 C 
BRANCH  15  16
HETATM   16  C   UNL     1      43.340 -18.002   2.342  1.00  0.00    -0.004 C 
HETATM   17  C   UNL     1      41.970 -18.193   1.650  1.00  0.00     0.021 C 
HETATM   18  C   UNL     1      44.285 -17.357   1.298  1.00  0.00     0.021 C 
BRANCH  16  19
HETATM   19  C   UNL     1      43.829 -19.370   2.853  1.00  0.00    -0.046 A 
HETATM   20  C   UNL     1      44.328 -19.503   4.161  1.00  0.00     0.027 A 
HETATM   21  C   UNL     1      44.767 -20.743   4.604  1.00  0.00     0.116 A 
HETATM   22  N   UNL     1      44.748 -21.858   3.850  1.00  0.00    -0.273 NA
HETATM   23  C   UNL     1      44.256 -21.729   2.603  1.00  0.00     0.116 A 
HETATM   24  C   UNL     1      43.796 -20.530   2.070  1.00  0.00     0.027 A 
ENDBRANCH  16  19
ENDBRANCH  15  16
ENDBRANCH   2  15
TORSDOF 5
ENDMDL
MODEL 8
REMARK VINA RESULT:      -7.0      2.102      3.691
REMARK  5 active torsions:
REMARK  status: ('A' for Active; 'I' for Inactive)
REMARK    1  A    between atoms: C_4  and  C_5 
REMARK       I    between atoms: C_5  and  N_6 
REMARK    2  A    between atoms: N_6  and  C_7 
REMARK    3  A    between atoms: C_7  and  C_8 
REMARK    4  A    between atoms: C_8  and  C_9 
REMARK    5  A    between atoms: C_18  and  O_19 
ROOT
HETATM    1  C   UNL     1      43.481 -17.843   2.214  1.00  0.00     0.254 C 
HETATM    2  N   UNL     1      42.189 -17.559   1.825  1.00  0.00    -0.356 N 
HETATM    3  O   UNL     1      44.466 -17.566   1.533  1.00  0.00    -0.268 OA
HETATM    4  H   UNL     1      41.477 -17.511   2.544  1.00  0.00     0.162 HD
ENDROOT
BRANCH   1   5
HETATM    5  C   UNL     1      43.672 -18.476   3.549  1.00  0.00     0.066 A 
HETATM    6  C   UNL     1      43.247 -17.833   4.722  1.00  0.00     0.026 A 
HETATM    7  C   UNL     1      43.437 -18.435   5.973  1.00  0.00    -0.060 A 
HETATM    8  C   UNL     1      42.945 -17.772   7.227  1.00  0.00     0.048 C 
HETATM    9  C   UNL     1      44.040 -19.698   6.041  1.00  0.00     0.016 A 
HETATM   10  C   UNL     1      44.466 -20.363   4.882  1.00  0.00    -0.027 A 
HETATM   11  C   UNL     1      44.256 -19.753   3.637  1.00  0.00     0.087 A 
HETATM   12  C   UNL     1      45.063 -21.737   4.992  1.00  0.00     0.051 C 
BRANCH  11  13
HETATM   13  O   UNL     1      44.636 -20.458   2.521  1.00  0.00    -0.359 OA
HETATM   14  H   UNL     1      44.089 -20.148   1.765  1.00  0.00     0.218 HD
ENDBRANCH  11  13
ENDBRANCH   1   5
BRANCH   2  15
HETATM   15  C   UNL     1      41.926 -16.831   0.592  1.00  0.00     0.136 C 
BRANCH  15  16
HETATM   16  C   UNL     1      41.138 -15.506   0.812  1.00  0.00    -0.004 C 
HETATM   17  C   UNL     1      39.972 -15.789   1.788  1.00  0.00     0.021 C 
HETATM   18  C   UNL     1      42.082 -14.504   1.518  1.00  0.00     0.021 C 
BRANCH  16  19
HETATM   19  C   UNL     1      40.555 -14.978  -0.512  1.00  0.00    -0.046 A 
HETATM   20  C   UNL     1      39.543 -14.002  -0.504  1.00  0.00     0.027 A 
HETATM   21  C   UNL     1      39.027 -13.539  -1.707  1.00  0.00     0.116 A 
HETATM   22  N   UNL     1      39.439 -13.971  -2.914  1.00  0.00    -0.273 NA
HETATM   23  C   UNL     1      40.418 -14.896  -2.917  1.00  0.00     0.116 A 
HETATM   24  C   UNL     1      40.995 -15.420  -1.766  1.00  0.00     0.027 A 
ENDBRANCH  16  19
ENDBRANCH  15  16
ENDBRANCH   2  15
TORSDOF 5
ENDMDL
MODEL 9
REMARK VINA RESULT:      -7.0      2.537      7.215
REMARK  5 active torsions:
REMARK  status: ('A' for Active; 'I' for Inactive)
REMARK    1  A    between atoms: C_4  and  C_5 
REMARK       I    between atoms: C_5  and  N_6 
REMARK    2  A    between atoms: N_6  and  C_7 
REMARK    3  A    between atoms: C_7  and  C_8 
REMARK    4  A    between atoms: C_8  and  C_9 
REMARK    5  A    between atoms: C_18  and  O_19 
ROOT
HETATM    1  C   UNL     1      42.138 -15.579   1.030  1.00  0.00     0.254 C 
HETATM    2  N   UNL     1      42.518 -16.885   0.802  1.00  0.00    -0.356 N 
HETATM    3  O   UNL     1      42.679 -14.856   1.863  1.00  0.00    -0.268 OA
HETATM    4  H   UNL     1      42.268 -17.303  -0.087  1.00  0.00     0.162 HD
ENDROOT
BRANCH   1   5
HETATM    5  C   UNL     1      41.046 -15.023   0.182  1.00  0.00     0.066 A 
HETATM    6  C   UNL     1      41.182 -14.943  -1.213  1.00  0.00     0.026 A 
HETATM    7  C   UNL     1      40.152 -14.413  -2.001  1.00  0.00    -0.060 A 
HETATM    8  C   UNL     1      40.275 -14.365  -3.495  1.00  0.00     0.048 C 
HETATM    9  C   UNL     1      38.971 -13.982  -1.383  1.00  0.00     0.016 A 
HETATM   10  C   UNL     1      38.808 -14.059   0.009  1.00  0.00    -0.027 A 
HETATM   11  C   UNL     1      39.844 -14.605   0.781  1.00  0.00     0.087 A 
HETATM   12  C   UNL     1      37.508 -13.632   0.629  1.00  0.00     0.051 C 
BRANCH  11  13
HETATM   13  O   UNL     1      39.627 -14.716   2.132  1.00  0.00    -0.359 OA
HETATM   14  H   UNL     1      40.084 -13.966   2.576  1.00  0.00     0.218 HD
ENDBRANCH  11  13
ENDBRANCH   1   5
BRANCH   2  15
HETATM   15  C   UNL     1      43.655 -17.462   1.501  1.00  0.00     0.136 C 
BRANCH  15  16
HETATM   16  C   UNL     1      43.267 -18.179   2.828  1.00  0.00    -0.004 C 
HETATM   17  C   UNL     1      43.966 -17.449   3.999  1.00  0.00     0.021 C 
HETATM   18  C   UNL     1      41.743 -18.003   3.034  1.00  0.00     0.021 C 
BRANCH  16  19
HETATM   19  C   UNL     1      43.723 -19.650   2.821  1.00  0.00    -0.046 A 
HETATM   20  C   UNL     1      43.420 -20.484   1.730  1.00  0.00     0.027 A 
HETATM   21  C   UNL     1      43.835 -21.808   1.742  1.00  0.00     0.116 A 
HETATM   22  N   UNL     1      44.528 -22.366   2.754  1.00  0.00    -0.273 NA
HETATM   23  C   UNL     1      44.827 -21.560   3.791  1.00  0.00     0.116 A 
HETATM   24  C   UNL     1      44.453 -20.224   3.870  1.00  0.00     0.027 A 
ENDBRANCH  16  19
ENDBRANCH  15  16
ENDBRANCH   2  15
TORSDOF 5
ENDMDL
MODEL 10
REMARK VINA RESULT:      -6.7      2.312      3.530
REMARK  5 active torsions:
REMARK  status: ('A' for Active; 'I' for Inactive)
REMARK    1  A    between atoms: C_4  and  C_5 
REMARK       I    between atoms: C_5  and  N_6 
REMARK    2  A    between atoms: N_6  and  C_7 
REMARK    3  A    between atoms: C_7  and  C_8 
REMARK    4  A    between atoms: C_8  and  C_9 
REMARK    5  A    between atoms: C_18  and  O_19 
ROOT
HETATM    1  C   UNL     1      43.463 -17.879   3.618  1.00  0.00     0.254 C 
HETATM    2  N   UNL     1      43.602 -17.087   2.498  1.00  0.00    -0.356 N 
HETATM    3  O   UNL     1      43.026 -17.462   4.688  1.00  0.00    -0.268 OA
HETATM    4  H   UNL     1      43.651 -17.546   1.596  1.00  0.00     0.162 HD
ENDROOT
BRANCH   1   5
HETATM    5  C   UNL     1      43.825 -19.319   3.490  1.00  0.00     0.066 A 
HETATM    6  C   UNL     1      43.695 -19.992   2.266  1.00  0.00     0.026 A 
HETATM    7  C   UNL     1      44.033 -21.347   2.157  1.00  0.00    -0.060 A 
HETATM    8  C   UNL     1      43.937 -22.059   0.839  1.00  0.00     0.048 C 
HETATM    9  C   UNL     1      44.523 -22.022   3.282  1.00  0.00     0.016 A 
HETATM   10  C   UNL     1      44.669 -21.369   4.515  1.00  0.00    -0.027 A 
HETATM   11  C   UNL     1      44.340 -20.009   4.603  1.00  0.00     0.087 A 
HETATM   12  C   UNL     1      45.244 -22.114   5.687  1.00  0.00     0.051 C 
BRANCH  11  13
HETATM   13  O   UNL     1      44.548 -19.390   5.811  1.00  0.00    -0.359 OA
HETATM   14  H   UNL     1      44.477 -18.419   5.671  1.00  0.00     0.218 HD
ENDBRANCH  11  13
ENDBRANCH   1   5
BRANCH   2  15
HETATM   15  C   UNL     1      43.155 -15.702   2.506  1.00  0.00     0.136 C 
BRANCH  15  16
HETATM   16  C   UNL     1      41.796 -15.486   1.777  1.00  0.00    -0.004 C 
HETATM   17  C   UNL     1      41.546 -16.694   0.845  1.00  0.00     0.021 C 
HETATM   18  C   UNL     1      40.676 -15.505   2.847  1.00  0.00     0.021 C 
BRANCH  16  19
HETATM   19  C   UNL     1      41.816 -14.203   0.927  1.00  0.00    -0.046 A 
HETATM   20  C   UNL     1      42.022 -12.951   1.534  1.00  0.00     0.027 A 
HETATM   21  C   UNL     1      42.034 -11.804   0.753  1.00  0.00     0.116 A 
HETATM   22  N   UNL     1      41.857 -11.805  -0.582  1.00  0.00    -0.273 NA
HETATM   23  C   UNL     1      41.674 -13.008  -1.161  1.00  0.00     0.116 A 
HETATM   24  C   UNL     1      41.644 -14.209  -0.463  1.00  0.00     0.027 A 
ENDBRANCH  16  19
ENDBRANCH  15  16
ENDBRANCH   2  15
TORSDOF 5
ENDMDL
