MODEL 1
REMARK VINA RESULT:      -8.7      0.000      0.000
REMARK  8 active torsions:
REMARK  status: ('A' for Active; 'I' for Inactive)
REMARK    1  A    between atoms: C_2  and  C_3 
REMARK    2  A    between atoms: C_3  and  O_4 
REMARK    3  A    between atoms: O_4  and  C_5 
REMARK    4  A    between atoms: C_7  and  C_8 
REMARK       I    between atoms: C_8  and  N_9 
REMARK    5  A    between atoms: N_9  and  C_10 
REMARK    6  A    between atoms: N_11  and  C_12 
REMARK    7  A    between atoms: C_14  and  C_15 
REMARK    8  A    between atoms: C_24  and  O_25 
ROOT
HETATM    1  C   UNL     1      41.439 -14.685   4.816  1.00  0.00     0.035 A 
HETATM    2  C   UNL     1      41.757 -15.922   4.248  1.00  0.00     0.046 A 
HETATM    3  C   UNL     1      42.893 -16.648   4.658  1.00  0.00     0.036 A 
HETATM    4  C   UNL     1      43.715 -16.072   5.651  1.00  0.00     0.084 A 
HETATM    5  C   UNL     1      43.443 -14.808   6.194  1.00  0.00    -0.026 A 
HETATM    6  C   UNL     1      44.317 -14.217   7.264  1.00  0.00     0.051 C 
HETATM    7  C   UNL     1      42.298 -14.125   5.766  1.00  0.00     0.039 A 
ENDROOT
BRANCH   1   8
HETATM    8  N   UNL     1      40.320 -13.913   4.432  1.00  0.00    -0.333 N 
HETATM    9  C   UNL     1      40.158 -13.037   3.416  1.00  0.00     0.179 C 
HETATM   10  S   UNL     1      39.172 -11.703   3.651  1.00  0.00    -0.040 SA
HETATM   11  H   UNL     1      39.589 -13.860   5.134  1.00  0.00     0.168 HD
BRANCH   9  12
HETATM   12  N   UNL     1      40.694 -13.214   2.176  1.00  0.00    -0.299 N 
HETATM   13  C   UNL     1      40.427 -14.193   1.224  1.00  0.00     0.257 C 
HETATM   14  O   UNL     1      39.849 -15.258   1.385  1.00  0.00    -0.267 OA
HETATM   15  H   UNL     1      41.090 -12.357   1.813  1.00  0.00     0.171 HD
BRANCH  13  16
HETATM   16  C   UNL     1      40.963 -13.888  -0.120  1.00  0.00     0.035 A 
HETATM   17  C   UNL     1      40.654 -14.705  -1.214  1.00  0.00     0.053 A 
HETATM   18  C   UNL     1      41.232 -14.418  -2.450  1.00  0.00     0.069 A 
HETATM   19  C   UNL     1      42.113 -13.344  -2.592  1.00  0.00     0.037 A 
HETATM   20  C   UNL     1      42.407 -12.529  -1.499  1.00  0.00     0.004 A 
HETATM   21  C   UNL     1      41.840 -12.805  -0.257  1.00  0.00     0.017 A 
BRANCH  18  22
HETATM   22  O   UNL     1      41.067 -15.231  -3.536  1.00  0.00    -0.351 OA
BRANCH  22  23
HETATM   23  C   UNL     1      40.078 -16.244  -3.322  1.00  0.00     0.175 C 
BRANCH  23  24
HETATM   24  C   UNL     1      38.954 -15.995  -4.323  1.00  0.00     0.022 C 
HETATM   25  C   UNL     1      37.754 -15.320  -3.684  1.00  0.00     0.007 C 
ENDBRANCH  23  24
ENDBRANCH  22  23
ENDBRANCH  18  22
ENDBRANCH  13  16
ENDBRANCH   9  12
ENDBRANCH   1   8
BRANCH   3  26
HETATM   26  C   UNL     1      43.236 -17.972   4.088  1.00  0.00     0.112 A 
HETATM   27  S   UNL     1      42.956 -18.377   2.438  1.00  0.00    -0.067 SA
HETATM   28  C   UNL     1      43.644 -19.934   2.682  1.00  0.00     0.035 A 
HETATM   29  C   UNL     1      44.041 -20.048   4.013  1.00  0.00     0.075 A 
HETATM   30  C   UNL     1      43.821 -20.981   1.763  1.00  0.00     0.021 A 
HETATM   31  N   UNL     1      43.813 -18.927   4.796  1.00  0.00    -0.239 NA
HETATM   32  C   UNL     1      44.630 -21.252   4.447  1.00  0.00     0.033 A 
HETATM   33  C   UNL     1      44.809 -22.303   3.541  1.00  0.00     0.002 A 
HETATM   34  C   UNL     1      44.411 -22.165   2.216  1.00  0.00     0.002 A 
ENDBRANCH   3  26
BRANCH   4  35
HETATM   35  O   UNL     1      44.831 -16.715   6.136  1.00  0.00    -0.359 OA
HETATM   36  H   UNL     1      44.839 -16.611   7.112  1.00  0.00     0.218 HD
ENDBRANCH   4  35
TORSDOF 8
ENDMDL
MODEL 2
REMARK VINA RESULT:      -8.6      4.143      7.342
REMARK  8 active torsions:
REMARK  status: ('A' for Active; 'I' for Inactive)
REMARK    1  A    between atoms: C_2  and  C_3 
REMARK    2  A    between atoms: C_3  and  O_4 
REMARK    3  A    between atoms: O_4  and  C_5 
REMARK    4  A    between atoms: C_7  and  C_8 
REMARK       I    between atoms: C_8  and  N_9 
REMARK    5  A    between atoms: N_9  and  C_10 
REMARK    6  A    between atoms: N_11  and  C_12 
REMARK    7  A    between atoms: C_14  and  C_15 
REMARK    8  A    between atoms: C_24  and  O_25 
ROOT
HETATM    1  C   UNL     1      42.546 -13.838   4.215  1.00  0.00     0.035 A 
HETATM    2  C   UNL     1      42.689 -15.127   3.694  1.00  0.00     0.046 A 
HETATM    3  C   UNL     1      43.346 -16.143   4.416  1.00  0.00     0.036 A 
HETATM    4  C   UNL     1      43.876 -15.809   5.682  1.00  0.00     0.084 A 
HETATM    5  C   UNL     1      43.790 -14.509   6.199  1.00  0.00    -0.026 A 
HETATM    6  C   UNL     1      44.342 -14.175   7.556  1.00  0.00     0.051 C 
HETATM    7  C   UNL     1      43.120 -13.532   5.454  1.00  0.00     0.039 A 
ENDROOT
BRANCH   1   8
HETATM    8  N   UNL     1      41.908 -12.783   3.529  1.00  0.00    -0.333 N 
HETATM    9  C   UNL     1      40.929 -11.939   3.921  1.00  0.00     0.179 C 
HETATM   10  S   UNL     1      39.811 -11.417   2.787  1.00  0.00    -0.040 SA
HETATM   11  H   UNL     1      42.071 -12.777   2.527  1.00  0.00     0.168 HD
BRANCH   9  12
HETATM   12  N   UNL     1      40.837 -11.422   5.178  1.00  0.00    -0.299 N 
HETATM   13  C   UNL     1      39.966 -11.750   6.213  1.00  0.00     0.257 C 
HETATM   14  O   UNL     1      38.923 -12.386   6.142  1.00  0.00    -0.267 OA
HETATM   15  H   UNL     1      41.701 -10.982   5.467  1.00  0.00     0.171 HD
BRANCH  13  16
HETATM   16  C   UNL     1      40.363 -11.208   7.530  1.00  0.00     0.035 A 
HETATM   17  C   UNL     1      41.685 -10.820   7.773  1.00  0.00     0.053 A 
HETATM   18  C   UNL     1      42.031 -10.376   9.048  1.00  0.00     0.069 A 
HETATM   19  C   UNL     1      41.079 -10.329  10.068  1.00  0.00     0.037 A 
HETATM   20  C   UNL     1      39.760 -10.708   9.815  1.00  0.00     0.004 A 
HETATM   21  C   UNL     1      39.401 -11.158   8.546  1.00  0.00     0.017 A 
BRANCH  18  22
HETATM   22  O   UNL     1      43.320 -10.085   9.392  1.00  0.00    -0.351 OA
BRANCH  22  23
HETATM   23  C   UNL     1      43.621 -10.431  10.749  1.00  0.00     0.175 C 
BRANCH  23  24
HETATM   24  C   UNL     1      44.769 -11.437  10.713  1.00  0.00     0.022 C 
HETATM   25  C   UNL     1      45.735 -11.167   9.574  1.00  0.00     0.007 C 
ENDBRANCH  23  24
ENDBRANCH  22  23
ENDBRANCH  18  22
ENDBRANCH  13  16
ENDBRANCH   9  12
ENDBRANCH   1   8
BRANCH   3  26
HETATM   26  C   UNL     1      43.488 -17.523   3.893  1.00  0.00     0.112 A 
HETATM   27  S   UNL     1      42.765 -18.039   2.418  1.00  0.00    -0.067 SA
HETATM   28  C   UNL     1      43.452 -19.605   2.606  1.00  0.00     0.035 A 
HETATM   29  C   UNL     1      44.187 -19.635   3.789  1.00  0.00     0.075 A 
HETATM   30  C   UNL     1      43.348 -20.727   1.768  1.00  0.00     0.021 A 
HETATM   31  N   UNL     1      44.208 -18.448   4.504  1.00  0.00    -0.239 NA
HETATM   32  C   UNL     1      44.839 -20.831   4.155  1.00  0.00     0.033 A 
HETATM   33  C   UNL     1      44.740 -21.955   3.329  1.00  0.00     0.002 A 
HETATM   34  C   UNL     1      44.005 -21.900   2.149  1.00  0.00     0.002 A 
ENDBRANCH   3  26
BRANCH   4  35
HETATM   35  O   UNL     1      44.511 -16.739   6.473  1.00  0.00    -0.359 OA
HETATM   36  H   UNL     1      43.923 -17.521   6.551  1.00  0.00     0.218 HD
ENDBRANCH   4  35
TORSDOF 8
ENDMDL
MODEL 3
REMARK VINA RESULT:      -8.5      4.151      8.653
REMARK  8 active torsions:
REMARK  status: ('A' for Active; 'I' for Inactive)
REMARK    1  A    between atoms: C_2  and  C_3 
REMARK    2  A    between atoms: C_3  and  O_4 
REMARK    3  A    between atoms: O_4  and  C_5 
REMARK    4  A    between atoms: C_7  and  C_8 
REMARK       I    between atoms: C_8  and  N_9 
REMARK    5  A    between atoms: N_9  and  C_10 
REMARK    6  A    between atoms: N_11  and  C_12 
REMARK    7  A    between atoms: C_14  and  C_15 
REMARK    8  A    between atoms: C_24  and  O_25 
ROOT
HETATM    1  C   UNL     1      40.167 -11.849   4.719  1.00  0.00     0.035 A 
HETATM    2  C   UNL     1      40.569 -11.845   6.057  1.00  0.00     0.046 A 
HETATM    3  C   UNL     1      41.173 -10.712   6.639  1.00  0.00     0.036 A 
HETATM    4  C   UNL     1      41.379  -9.583   5.815  1.00  0.00     0.084 A 
HETATM    5  C   UNL     1      41.030  -9.586   4.457  1.00  0.00    -0.026 A 
HETATM    6  C   UNL     1      41.237  -8.371   3.599  1.00  0.00     0.051 C 
HETATM    7  C   UNL     1      40.424 -10.729   3.922  1.00  0.00     0.039 A 
ENDROOT
BRANCH   1   8
HETATM    8  N   UNL     1      39.569 -12.960   4.085  1.00  0.00    -0.333 N 
HETATM    9  C   UNL     1      40.117 -14.079   3.562  1.00  0.00     0.179 C 
HETATM   10  S   UNL     1      39.412 -14.764   2.206  1.00  0.00    -0.040 SA
HETATM   11  H   UNL     1      38.604 -12.814   3.808  1.00  0.00     0.168 HD
BRANCH   9  12
HETATM   12  N   UNL     1      41.176 -14.731   4.119  1.00  0.00    -0.299 N 
HETATM   13  C   UNL     1      41.255 -15.434   5.318  1.00  0.00     0.257 C 
HETATM   14  O   UNL     1      40.474 -15.404   6.258  1.00  0.00    -0.267 OA
HETATM   15  H   UNL     1      41.869 -14.981   3.427  1.00  0.00     0.171 HD
BRANCH  13  16
HETATM   16  C   UNL     1      42.466 -16.273   5.445  1.00  0.00     0.035 A 
HETATM   17  C   UNL     1      42.691 -17.340   4.568  1.00  0.00     0.053 A 
HETATM   18  C   UNL     1      43.812 -18.145   4.764  1.00  0.00     0.069 A 
HETATM   19  C   UNL     1      44.689 -17.899   5.822  1.00  0.00     0.037 A 
HETATM   20  C   UNL     1      44.463 -16.827   6.685  1.00  0.00     0.004 A 
HETATM   21  C   UNL     1      43.345 -16.016   6.504  1.00  0.00     0.017 A 
BRANCH  18  22
HETATM   22  O   UNL     1      44.040 -19.268   4.020  1.00  0.00    -0.351 OA
BRANCH  22  23
HETATM   23  C   UNL     1      43.998 -19.015   2.611  1.00  0.00     0.175 C 
BRANCH  23  24
HETATM   24  C   UNL     1      43.488 -20.288   1.941  1.00  0.00     0.022 C 
HETATM   25  C   UNL     1      44.338 -21.498   2.281  1.00  0.00     0.007 C 
ENDBRANCH  23  24
ENDBRANCH  22  23
ENDBRANCH  18  22
ENDBRANCH  13  16
ENDBRANCH   9  12
ENDBRANCH   1   8
BRANCH   3  26
HETATM   26  C   UNL     1      41.586 -10.677   8.062  1.00  0.00     0.112 A 
HETATM   27  S   UNL     1      40.465 -10.812   9.362  1.00  0.00    -0.067 SA
HETATM   28  C   UNL     1      41.747 -10.720  10.504  1.00  0.00     0.035 A 
HETATM   29  C   UNL     1      42.953 -10.587   9.819  1.00  0.00     0.075 A 
HETATM   30  C   UNL     1      41.691 -10.763  11.907  1.00  0.00     0.021 A 
HETATM   31  N   UNL     1      42.849 -10.573   8.437  1.00  0.00    -0.239 NA
HETATM   32  C   UNL     1      44.148 -10.486  10.559  1.00  0.00     0.033 A 
HETATM   33  C   UNL     1      44.105 -10.524  11.956  1.00  0.00     0.002 A 
HETATM   34  C   UNL     1      42.890 -10.664  12.619  1.00  0.00     0.002 A 
ENDBRANCH   3  26
BRANCH   4  35
HETATM   35  O   UNL     1      41.936  -8.421   6.298  1.00  0.00    -0.359 OA
HETATM   36  H   UNL     1      42.265  -7.904   5.532  1.00  0.00     0.218 HD
ENDBRANCH   4  35
TORSDOF 8
ENDMDL
MODEL 4
REMARK VINA RESULT:      -8.4      4.856      8.511
REMARK  8 active torsions:
REMARK  status: ('A' for Active; 'I' for Inactive)
REMARK    1  A    between atoms: C_2  and  C_3 
REMARK    2  A    between atoms: C_3  and  O_4 
REMARK    3  A    between atoms: O_4  and  C_5 
REMARK    4  A    between atoms: C_7  and  C_8 
REMARK       I    between atoms: C_8  and  N_9 
REMARK    5  A    between atoms: N_9  and  C_10 
REMARK    6  A    between atoms: N_11  and  C_12 
REMARK    7  A    between atoms: C_14  and  C_15 
REMARK    8  A    between atoms: C_24  and  O_25 
ROOT
HETATM    1  C   UNL     1      44.548 -14.333   6.724  1.00  0.00     0.035 A 
HETATM    2  C   UNL     1      44.719 -15.596   6.150  1.00  0.00     0.046 A 
HETATM    3  C   UNL     1      43.689 -16.213   5.411  1.00  0.00     0.036 A 
HETATM    4  C   UNL     1      42.466 -15.518   5.287  1.00  0.00     0.084 A 
HETATM    5  C   UNL     1      42.257 -14.275   5.900  1.00  0.00    -0.026 A 
HETATM    6  C   UNL     1      40.956 -13.540   5.742  1.00  0.00     0.051 C 
HETATM    7  C   UNL     1      43.309 -13.693   6.617  1.00  0.00     0.039 A 
ENDROOT
BRANCH   1   8
HETATM    8  N   UNL     1      45.542 -13.678   7.483  1.00  0.00    -0.333 N 
HETATM    9  C   UNL     1      45.473 -12.580   8.267  1.00  0.00     0.179 C 
HETATM   10  S   UNL     1      46.797 -11.556   8.340  1.00  0.00    -0.040 SA
HETATM   11  H   UNL     1      46.491 -13.956   7.257  1.00  0.00     0.168 HD
BRANCH   9  12
HETATM   12  N   UNL     1      44.409 -12.291   9.068  1.00  0.00    -0.299 N 
HETATM   13  C   UNL     1      44.319 -12.281  10.456  1.00  0.00     0.257 C 
HETATM   14  O   UNL     1      45.092 -12.780  11.262  1.00  0.00    -0.267 OA
HETATM   15  H   UNL     1      43.721 -11.726   8.588  1.00  0.00     0.171 HD
BRANCH  13  16
HETATM   16  C   UNL     1      43.105 -11.615  10.977  1.00  0.00     0.035 A 
HETATM   17  C   UNL     1      42.234 -10.943  10.112  1.00  0.00     0.053 A 
HETATM   18  C   UNL     1      41.136 -10.275  10.652  1.00  0.00     0.069 A 
HETATM   19  C   UNL     1      40.916 -10.264  12.030  1.00  0.00     0.037 A 
HETATM   20  C   UNL     1      41.784 -10.945  12.884  1.00  0.00     0.004 A 
HETATM   21  C   UNL     1      42.887 -11.616  12.359  1.00  0.00     0.017 A 
BRANCH  18  22
HETATM   22  O   UNL     1      40.304  -9.507   9.887  1.00  0.00    -0.351 OA
BRANCH  22  23
HETATM   23  C   UNL     1      39.032 -10.125   9.663  1.00  0.00     0.175 C 
BRANCH  23  24
HETATM   24  C   UNL     1      39.185 -11.042   8.452  1.00  0.00     0.022 C 
HETATM   25  C   UNL     1      39.713 -10.304   7.235  1.00  0.00     0.007 C 
ENDBRANCH  23  24
ENDBRANCH  22  23
ENDBRANCH  18  22
ENDBRANCH  13  16
ENDBRANCH   9  12
ENDBRANCH   1   8
BRANCH   3  26
HETATM   26  C   UNL     1      43.857 -17.540   4.773  1.00  0.00     0.112 A 
HETATM   27  S   UNL     1      44.658 -18.853   5.549  1.00  0.00    -0.067 SA
HETATM   28  C   UNL     1      44.347 -19.868   4.197  1.00  0.00     0.035 A 
HETATM   29  C   UNL     1      43.654 -19.137   3.234  1.00  0.00     0.075 A 
HETATM   30  C   UNL     1      44.691 -21.215   4.000  1.00  0.00     0.021 A 
HETATM   31  N   UNL     1      43.374 -17.824   3.576  1.00  0.00    -0.239 NA
HETATM   32  C   UNL     1      43.296 -19.770   2.026  1.00  0.00     0.033 A 
HETATM   33  C   UNL     1      43.636 -21.111   1.818  1.00  0.00     0.002 A 
HETATM   34  C   UNL     1      44.323 -21.823   2.796  1.00  0.00     0.002 A 
ENDBRANCH   3  26
BRANCH   4  35
HETATM   35  O   UNL     1      41.411 -16.026   4.563  1.00  0.00    -0.359 OA
HETATM   36  H   UNL     1      40.599 -15.930   5.107  1.00  0.00     0.218 HD
ENDBRANCH   4  35
TORSDOF 8
ENDMDL
MODEL 5
REMARK VINA RESULT:      -8.4      5.041      9.559
REMARK  8 active torsions:
REMARK  status: ('A' for Active; 'I' for Inactive)
REMARK    1  A    between atoms: C_2  and  C_3 
REMARK    2  A    between atoms: C_3  and  O_4 
REMARK    3  A    between atoms: O_4  and  C_5 
REMARK    4  A    between atoms: C_7  and  C_8 
REMARK       I    between atoms: C_8  and  N_9 
REMARK    5  A    between atoms: N_9  and  C_10 
REMARK    6  A    between atoms: N_11  and  C_12 
REMARK    7  A    between atoms: C_14  and  C_15 
REMARK    8  A    between atoms: C_24  and  O_25 
ROOT
HETATM    1  C   UNL     1      44.437 -14.493   6.694  1.00  0.00     0.035 A 
HETATM    2  C   UNL     1      44.630 -15.759   6.132  1.00  0.00     0.046 A 
HETATM    3  C   UNL     1      43.634 -16.374   5.347  1.00  0.00     0.036 A 
HETATM    4  C   UNL     1      42.421 -15.675   5.163  1.00  0.00     0.084 A 
HETATM    5  C   UNL     1      42.188 -14.428   5.761  1.00  0.00    -0.026 A 
HETATM    6  C   UNL     1      40.900 -13.689   5.538  1.00  0.00     0.051 C 
HETATM    7  C   UNL     1      43.208 -13.848   6.525  1.00  0.00     0.039 A 
ENDROOT
BRANCH   1   8
HETATM    8  N   UNL     1      45.397 -13.839   7.497  1.00  0.00    -0.333 N 
HETATM    9  C   UNL     1      45.369 -12.629   8.097  1.00  0.00     0.179 C 
HETATM   10  S   UNL     1      46.796 -11.761   8.228  1.00  0.00    -0.040 SA
HETATM   11  H   UNL     1      46.322 -14.254   7.463  1.00  0.00     0.168 HD
BRANCH   9  12
HETATM   12  N   UNL     1      44.254 -12.099   8.672  1.00  0.00    -0.299 N 
HETATM   13  C   UNL     1      43.898 -12.023  10.016  1.00  0.00     0.257 C 
HETATM   14  O   UNL     1      44.375 -12.644  10.954  1.00  0.00    -0.267 OA
HETATM   15  H   UNL     1      43.807 -11.420   8.070  1.00  0.00     0.171 HD
BRANCH  13  16
HETATM   16  C   UNL     1      42.773 -11.103  10.290  1.00  0.00     0.035 A 
HETATM   17  C   UNL     1      42.581 -10.572  11.571  1.00  0.00     0.053 A 
HETATM   18  C   UNL     1      41.471  -9.761  11.801  1.00  0.00     0.069 A 
HETATM   19  C   UNL     1      40.560  -9.493  10.778  1.00  0.00     0.037 A 
HETATM   20  C   UNL     1      40.764 -10.018   9.502  1.00  0.00     0.004 A 
HETATM   21  C   UNL     1      41.867 -10.833   9.257  1.00  0.00     0.017 A 
BRANCH  18  22
HETATM   22  O   UNL     1      41.156  -9.296  13.047  1.00  0.00    -0.351 OA
BRANCH  22  23
HETATM   23  C   UNL     1      41.378 -10.270  14.072  1.00  0.00     0.175 C 
BRANCH  23  24
HETATM   24  C   UNL     1      42.380  -9.670  15.054  1.00  0.00     0.022 C 
HETATM   25  C   UNL     1      41.728  -9.258  16.362  1.00  0.00     0.007 C 
ENDBRANCH  23  24
ENDBRANCH  22  23
ENDBRANCH  18  22
ENDBRANCH  13  16
ENDBRANCH   9  12
ENDBRANCH   1   8
BRANCH   3  26
HETATM   26  C   UNL     1      43.826 -17.704   4.723  1.00  0.00     0.112 A 
HETATM   27  S   UNL     1      44.620 -19.005   5.525  1.00  0.00    -0.067 SA
HETATM   28  C   UNL     1      44.347 -20.032   4.174  1.00  0.00     0.035 A 
HETATM   29  C   UNL     1      43.670 -19.314   3.191  1.00  0.00     0.075 A 
HETATM   30  C   UNL     1      44.707 -21.378   3.994  1.00  0.00     0.021 A 
HETATM   31  N   UNL     1      43.372 -18.000   3.518  1.00  0.00    -0.239 NA
HETATM   32  C   UNL     1      43.343 -19.957   1.980  1.00  0.00     0.033 A 
HETATM   33  C   UNL     1      43.698 -21.297   1.789  1.00  0.00     0.002 A 
HETATM   34  C   UNL     1      44.369 -21.997   2.786  1.00  0.00     0.002 A 
ENDBRANCH   3  26
BRANCH   4  35
HETATM   35  O   UNL     1      41.400 -16.181   4.391  1.00  0.00    -0.359 OA
HETATM   36  H   UNL     1      41.634 -16.036   3.449  1.00  0.00     0.218 HD
ENDBRANCH   4  35
TORSDOF 8
ENDMDL
MODEL 6
REMARK VINA RESULT:      -8.3      2.253      3.286
REMARK  8 active torsions:
REMARK  status: ('A' for Active; 'I' for Inactive)
REMARK    1  A    between atoms: C_2  and  C_3 
REMARK    2  A    between atoms: C_3  and  O_4 
REMARK    3  A    between atoms: O_4  and  C_5 
REMARK    4  A    between atoms: C_7  and  C_8 
REMARK       I    between atoms: C_8  and  N_9 
REMARK    5  A    between atoms: N_9  and  C_10 
REMARK    6  A    between atoms: N_11  and  C_12 
REMARK    7  A    between atoms: C_14  and  C_15 
REMARK    8  A    between atoms: C_24  and  O_25 
ROOT
HETATM    1  C   UNL     1      41.458 -13.336   2.368  1.00  0.00     0.035 A 
HETATM    2  C   UNL     1      42.045 -14.599   2.251  1.00  0.00     0.046 A 
HETATM    3  C   UNL     1      41.882 -15.580   3.250  1.00  0.00     0.036 A 
HETATM    4  C   UNL     1      41.120 -15.236   4.388  1.00  0.00     0.084 A 
HETATM    5  C   UNL     1      40.568 -13.957   4.549  1.00  0.00    -0.026 A 
HETATM    6  C   UNL     1      39.743 -13.613   5.756  1.00  0.00     0.051 C 
HETATM    7  C   UNL     1      40.745 -13.016   3.528  1.00  0.00     0.039 A 
ENDROOT
BRANCH   1   8
HETATM    8  N   UNL     1      41.600 -12.315   1.403  1.00  0.00    -0.333 N 
HETATM    9  C   UNL     1      41.762 -12.383   0.064  1.00  0.00     0.179 C 
HETATM   10  S   UNL     1      42.713 -11.230  -0.693  1.00  0.00    -0.040 SA
HETATM   11  H   UNL     1      41.802 -11.400   1.790  1.00  0.00     0.168 HD
BRANCH   9  12
HETATM   12  N   UNL     1      41.134 -13.298  -0.727  1.00  0.00    -0.299 N 
HETATM   13  C   UNL     1      39.775 -13.488  -0.958  1.00  0.00     0.257 C 
HETATM   14  O   UNL     1      38.835 -13.053  -0.308  1.00  0.00    -0.267 OA
HETATM   15  H   UNL     1      41.748 -13.656  -1.447  1.00  0.00     0.171 HD
BRANCH  13  16
HETATM   16  C   UNL     1      39.477 -14.364  -2.112  1.00  0.00     0.035 A 
HETATM   17  C   UNL     1      38.297 -14.200  -2.847  1.00  0.00     0.053 A 
HETATM   18  C   UNL     1      38.025 -15.088  -3.886  1.00  0.00     0.069 A 
HETATM   19  C   UNL     1      38.906 -16.130  -4.181  1.00  0.00     0.037 A 
HETATM   20  C   UNL     1      40.085 -16.280  -3.451  1.00  0.00     0.004 A 
HETATM   21  C   UNL     1      40.369 -15.402  -2.407  1.00  0.00     0.017 A 
BRANCH  18  22
HETATM   22  O   UNL     1      36.846 -15.061  -4.576  1.00  0.00    -0.351 OA
BRANCH  22  23
HETATM   23  C   UNL     1      36.209 -13.779  -4.530  1.00  0.00     0.175 C 
BRANCH  23  24
HETATM   24  C   UNL     1      35.346 -13.660  -5.783  1.00  0.00     0.022 C 
HETATM   25  C   UNL     1      34.628 -12.325  -5.863  1.00  0.00     0.007 C 
ENDBRANCH  23  24
ENDBRANCH  22  23
ENDBRANCH  18  22
ENDBRANCH  13  16
ENDBRANCH   9  12
ENDBRANCH   1   8
BRANCH   3  26
HETATM   26  C   UNL     1      42.475 -16.933   3.136  1.00  0.00     0.112 A 
HETATM   27  S   UNL     1      42.277 -17.924   1.742  1.00  0.00    -0.067 SA
HETATM   28  C   UNL     1      43.255 -19.149   2.447  1.00  0.00     0.035 A 
HETATM   29  C   UNL     1      43.669 -18.725   3.709  1.00  0.00     0.075 A 
HETATM   30  C   UNL     1      43.631 -20.397   1.924  1.00  0.00     0.021 A 
HETATM   31  N   UNL     1      43.228 -17.466   4.083  1.00  0.00    -0.239 NA
HETATM   32  C   UNL     1      44.482 -19.579   4.481  1.00  0.00     0.033 A 
HETATM   33  C   UNL     1      44.860 -20.826   3.972  1.00  0.00     0.002 A 
HETATM   34  C   UNL     1      44.441 -21.226   2.707  1.00  0.00     0.002 A 
ENDBRANCH   3  26
BRANCH   4  35
HETATM   35  O   UNL     1      40.883 -16.134   5.404  1.00  0.00    -0.359 OA
HETATM   36  H   UNL     1      40.488 -16.940   5.007  1.00  0.00     0.218 HD
ENDBRANCH   4  35
TORSDOF 8
ENDMDL
MODEL 7
REMARK VINA RESULT:      -8.2      2.417      8.441
REMARK  8 active torsions:
REMARK  status: ('A' for Active; 'I' for Inactive)
REMARK    1  A    between atoms: C_2  and  C_3 
REMARK    2  A    between atoms: C_3  and  O_4 
REMARK    3  A    between atoms: O_4  and  C_5 
REMARK    4  A    between atoms: C_7  and  C_8 
REMARK       I    between atoms: C_8  and  N_9 
REMARK    5  A    between atoms: N_9  and  C_10 
REMARK    6  A    between atoms: N_11  and  C_12 
REMARK    7  A    between atoms: C_14  and  C_15 
REMARK    8  A    between atoms: C_24  and  O_25 
ROOT
HETATM    1  C   UNL     1      41.580 -13.759   2.137  1.00  0.00     0.035 A 
HETATM    2  C   UNL     1      40.664 -13.383   1.150  1.00  0.00     0.046 A 
HETATM    3  C   UNL     1      40.406 -14.206   0.036  1.00  0.00     0.036 A 
HETATM    4  C   UNL     1      41.122 -15.419  -0.063  1.00  0.00     0.084 A 
HETATM    5  C   UNL     1      42.083 -15.789   0.888  1.00  0.00    -0.026 A 
HETATM    6  C   UNL     1      42.822 -17.093   0.779  1.00  0.00     0.051 C 
HETATM    7  C   UNL     1      42.302 -14.948   1.985  1.00  0.00     0.039 A 
ENDROOT
BRANCH   1   8
HETATM    8  N   UNL     1      41.884 -12.967   3.265  1.00  0.00    -0.333 N 
HETATM    9  C   UNL     1      42.121 -13.314   4.549  1.00  0.00     0.179 C 
HETATM   10  S   UNL     1      41.619 -12.281   5.769  1.00  0.00    -0.040 SA
HETATM   11  H   UNL     1      41.711 -11.976   3.138  1.00  0.00     0.168 HD
BRANCH   9  12
HETATM   12  N   UNL     1      42.816 -14.428   4.914  1.00  0.00    -0.299 N 
HETATM   13  C   UNL     1      42.377 -15.574   5.570  1.00  0.00     0.257 C 
HETATM   14  O   UNL     1      41.338 -15.728   6.197  1.00  0.00    -0.267 OA
HETATM   15  H   UNL     1      43.656 -14.543   4.363  1.00  0.00     0.171 HD
BRANCH  13  16
HETATM   16  C   UNL     1      43.331 -16.702   5.516  1.00  0.00     0.035 A 
HETATM   17  C   UNL     1      43.301 -17.612   4.453  1.00  0.00     0.053 A 
HETATM   18  C   UNL     1      44.175 -18.697   4.474  1.00  0.00     0.069 A 
HETATM   19  C   UNL     1      45.055 -18.882   5.541  1.00  0.00     0.037 A 
HETATM   20  C   UNL     1      45.086 -17.966   6.592  1.00  0.00     0.004 A 
HETATM   21  C   UNL     1      44.216 -16.877   6.587  1.00  0.00     0.017 A 
BRANCH  18  22
HETATM   22  O   UNL     1      44.131 -19.685   3.530  1.00  0.00    -0.351 OA
BRANCH  22  23
HETATM   23  C   UNL     1      44.755 -20.897   3.970  1.00  0.00     0.175 C 
BRANCH  23  24
HETATM   24  C   UNL     1      44.521 -21.943   2.884  1.00  0.00     0.022 C 
HETATM   25  C   UNL     1      43.682 -21.406   1.738  1.00  0.00     0.007 C 
ENDBRANCH  23  24
ENDBRANCH  22  23
ENDBRANCH  18  22
ENDBRANCH  13  16
ENDBRANCH   9  12
ENDBRANCH   1   8
BRANCH   3  26
HETATM   26  C   UNL     1      39.421 -13.838  -1.009  1.00  0.00     0.112 A 
HETATM   27  S   UNL     1      38.961 -12.209  -1.325  1.00  0.00    -0.067 SA
HETATM   28  C   UNL     1      37.925 -12.727  -2.596  1.00  0.00     0.035 A 
HETATM   29  C   UNL     1      37.993 -14.115  -2.696  1.00  0.00     0.075 A 
HETATM   30  C   UNL     1      37.109 -11.960  -3.444  1.00  0.00     0.021 A 
HETATM   31  N   UNL     1      38.850 -14.731  -1.799  1.00  0.00    -0.239 NA
HETATM   32  C   UNL     1      37.214 -14.766  -3.674  1.00  0.00     0.033 A 
HETATM   33  C   UNL     1      36.396 -14.013  -4.523  1.00  0.00     0.002 A 
HETATM   34  C   UNL     1      36.348 -12.628  -4.410  1.00  0.00     0.002 A 
ENDBRANCH   3  26
BRANCH   4  35
HETATM   35  O   UNL     1      40.920 -16.301  -1.100  1.00  0.00    -0.359 OA
HETATM   36  H   UNL     1      41.788 -16.693  -1.336  1.00  0.00     0.218 HD
ENDBRANCH   4  35
TORSDOF 8
ENDMDL
MODEL 8
REMARK VINA RESULT:      -8.1      1.173      2.519
REMARK  8 active torsions:
REMARK  status: ('A' for Active; 'I' for Inactive)
REMARK    1  A    between atoms: C_2  and  C_3 
REMARK    2  A    between atoms: C_3  and  O_4 
REMARK    3  A    between atoms: O_4  and  C_5 
REMARK    4  A    between atoms: C_7  and  C_8 
REMARK       I    between atoms: C_8  and  N_9 
REMARK    5  A    between atoms: N_9  and  C_10 
REMARK    6  A    between atoms: N_11  and  C_12 
REMARK    7  A    between atoms: C_14  and  C_15 
REMARK    8  A    between atoms: C_24  and  O_25 
ROOT
HETATM    1  C   UNL     1      41.759 -14.195   4.676  1.00  0.00     0.035 A 
HETATM    2  C   UNL     1      42.005 -15.454   4.121  1.00  0.00     0.046 A 
HETATM    3  C   UNL     1      43.026 -16.289   4.618  1.00  0.00     0.036 A 
HETATM    4  C   UNL     1      43.811 -15.800   5.686  1.00  0.00     0.084 A 
HETATM    5  C   UNL     1      43.615 -14.519   6.220  1.00  0.00    -0.026 A 
HETATM    6  C   UNL     1      44.445 -14.021   7.369  1.00  0.00     0.051 C 
HETATM    7  C   UNL     1      42.583 -13.726   5.704  1.00  0.00     0.039 A 
ENDROOT
BRANCH   1   8
HETATM    8  N   UNL     1      40.758 -13.316   4.208  1.00  0.00    -0.333 N 
HETATM    9  C   UNL     1      40.669 -12.612   3.059  1.00  0.00     0.179 C 
HETATM   10  S   UNL     1      39.935 -11.106   3.091  1.00  0.00    -0.040 SA
HETATM   11  H   UNL     1      40.099 -13.017   4.919  1.00  0.00     0.168 HD
BRANCH   9  12
HETATM   12  N   UNL     1      41.076 -13.088   1.849  1.00  0.00    -0.299 N 
HETATM   13  C   UNL     1      40.556 -14.125   1.081  1.00  0.00     0.257 C 
HETATM   14  O   UNL     1      39.787 -15.008   1.435  1.00  0.00    -0.267 OA
HETATM   15  H   UNL     1      41.612 -12.400   1.336  1.00  0.00     0.171 HD
BRANCH  13  16
HETATM   16  C   UNL     1      41.053 -14.153  -0.311  1.00  0.00     0.035 A 
HETATM   17  C   UNL     1      41.815 -13.094  -0.817  1.00  0.00     0.053 A 
HETATM   18  C   UNL     1      42.209 -13.130  -2.154  1.00  0.00     0.069 A 
HETATM   19  C   UNL     1      41.839 -14.195  -2.977  1.00  0.00     0.037 A 
HETATM   20  C   UNL     1      41.088 -15.251  -2.462  1.00  0.00     0.004 A 
HETATM   21  C   UNL     1      40.685 -15.228  -1.128  1.00  0.00     0.017 A 
BRANCH  18  22
HETATM   22  O   UNL     1      42.859 -12.085  -2.749  1.00  0.00    -0.351 OA
BRANCH  22  23
HETATM   23  C   UNL     1      42.079 -10.884  -2.761  1.00  0.00     0.175 C 
BRANCH  23  24
HETATM   24  C   UNL     1      43.036  -9.724  -2.502  1.00  0.00     0.022 C 
HETATM   25  C   UNL     1      43.768  -9.867  -1.179  1.00  0.00     0.007 C 
ENDBRANCH  23  24
ENDBRANCH  22  23
ENDBRANCH  18  22
ENDBRANCH  13  16
ENDBRANCH   9  12
ENDBRANCH   1   8
BRANCH   3  26
HETATM   26  C   UNL     1      43.289 -17.637   4.062  1.00  0.00     0.112 A 
HETATM   27  S   UNL     1      42.808 -18.100   2.474  1.00  0.00    -0.067 SA
HETATM   28  C   UNL     1      43.510 -19.654   2.693  1.00  0.00     0.035 A 
HETATM   29  C   UNL     1      44.065 -19.723   3.970  1.00  0.00     0.075 A 
HETATM   30  C   UNL     1      43.567 -20.737   1.800  1.00  0.00     0.021 A 
HETATM   31  N   UNL     1      43.941 -18.572   4.731  1.00  0.00    -0.239 NA
HETATM   32  C   UNL     1      44.694 -20.918   4.375  1.00  0.00     0.033 A 
HETATM   33  C   UNL     1      44.754 -22.003   3.496  1.00  0.00     0.002 A 
HETATM   34  C   UNL     1      44.200 -21.911   2.223  1.00  0.00     0.002 A 
ENDBRANCH   3  26
BRANCH   4  35
HETATM   35  O   UNL     1      44.813 -16.551   6.256  1.00  0.00    -0.359 OA
HETATM   36  H   UNL     1      44.704 -17.478   5.953  1.00  0.00     0.218 HD
ENDBRANCH   4  35
TORSDOF 8
ENDMDL
MODEL 9
REMARK VINA RESULT:      -7.9      4.580      7.053
REMARK  8 active torsions:
REMARK  status: ('A' for Active; 'I' for Inactive)
REMARK    1  A    between atoms: C_2  and  C_3 
REMARK    2  A    between atoms: C_3  and  O_4 
REMARK    3  A    between atoms: O_4  and  C_5 
REMARK    4  A    between atoms: C_7  and  C_8 
REMARK       I    between atoms: C_8  and  N_9 
REMARK    5  A    between atoms: N_9  and  C_10 
REMARK    6  A    between atoms: N_11  and  C_12 
REMARK    7  A    between atoms: C_14  and  C_15 
REMARK    8  A    between atoms: C_24  and  O_25 
ROOT
HETATM    1  C   UNL     1      44.108 -14.354   6.966  1.00  0.00     0.035 A 
HETATM    2  C   UNL     1      44.346 -15.706   6.701  1.00  0.00     0.046 A 
HETATM    3  C   UNL     1      43.713 -16.367   5.629  1.00  0.00     0.036 A 
HETATM    4  C   UNL     1      42.812 -15.620   4.839  1.00  0.00     0.084 A 
HETATM    5  C   UNL     1      42.519 -14.278   5.120  1.00  0.00    -0.026 A 
HETATM    6  C   UNL     1      41.572 -13.493   4.259  1.00  0.00     0.051 C 
HETATM    7  C   UNL     1      43.176 -13.657   6.189  1.00  0.00     0.039 A 
ENDROOT
BRANCH   1   8
HETATM    8  N   UNL     1      44.705 -13.649   8.033  1.00  0.00    -0.333 N 
HETATM    9  C   UNL     1      44.484 -12.401   8.499  1.00  0.00     0.179 C 
HETATM   10  S   UNL     1      45.776 -11.529   9.114  1.00  0.00    -0.040 SA
HETATM   11  H   UNL     1      45.560 -14.068   8.383  1.00  0.00     0.168 HD
BRANCH   9  12
HETATM   12  N   UNL     1      43.249 -11.829   8.569  1.00  0.00    -0.299 N 
HETATM   13  C   UNL     1      42.786 -10.812   9.399  1.00  0.00     0.257 C 
HETATM   14  O   UNL     1      43.301 -10.387  10.423  1.00  0.00    -0.267 OA
HETATM   15  H   UNL     1      42.729 -11.955   7.711  1.00  0.00     0.171 HD
BRANCH  13  16
HETATM   16  C   UNL     1      41.491 -10.235   8.979  1.00  0.00     0.035 A 
HETATM   17  C   UNL     1      40.819 -10.731   7.855  1.00  0.00     0.053 A 
HETATM   18  C   UNL     1      39.633 -10.116   7.457  1.00  0.00     0.069 A 
HETATM   19  C   UNL     1      39.131  -9.018   8.157  1.00  0.00     0.037 A 
HETATM   20  C   UNL     1      39.801  -8.537   9.282  1.00  0.00     0.004 A 
HETATM   21  C   UNL     1      40.989  -9.139   9.690  1.00  0.00     0.017 A 
BRANCH  18  22
HETATM   22  O   UNL     1      38.979 -10.471   6.311  1.00  0.00    -0.351 OA
BRANCH  22  23
HETATM   23  C   UNL     1      39.289  -9.609   5.210  1.00  0.00     0.175 C 
BRANCH  23  24
HETATM   24  C   UNL     1      38.365 -10.001   4.059  1.00  0.00     0.022 C 
HETATM   25  C   UNL     1      38.568 -11.440   3.623  1.00  0.00     0.007 C 
ENDBRANCH  23  24
ENDBRANCH  22  23
ENDBRANCH  18  22
ENDBRANCH  13  16
ENDBRANCH   9  12
ENDBRANCH   1   8
BRANCH   3  26
HETATM   26  C   UNL     1      43.969 -17.793   5.315  1.00  0.00     0.112 A 
HETATM   27  S   UNL     1      44.195 -18.989   6.533  1.00  0.00    -0.067 SA
HETATM   28  C   UNL     1      44.363 -20.209   5.333  1.00  0.00     0.035 A 
HETATM   29  C   UNL     1      44.241 -19.623   4.075  1.00  0.00     0.075 A 
HETATM   30  C   UNL     1      44.588 -21.586   5.492  1.00  0.00     0.021 A 
HETATM   31  N   UNL     1      44.009 -18.257   4.078  1.00  0.00    -0.239 NA
HETATM   32  C   UNL     1      44.353 -20.438   2.930  1.00  0.00     0.033 A 
HETATM   33  C   UNL     1      44.580 -21.811   3.076  1.00  0.00     0.002 A 
HETATM   34  C   UNL     1      44.692 -22.376   4.342  1.00  0.00     0.002 A 
ENDBRANCH   3  26
BRANCH   4  35
HETATM   35  O   UNL     1      42.166 -16.170   3.755  1.00  0.00    -0.359 OA
HETATM   36  H   UNL     1      42.481 -17.095   3.654  1.00  0.00     0.218 HD
ENDBRANCH   4  35
TORSDOF 8
ENDMDL
MODEL 10
REMARK VINA RESULT:      -7.9      3.654      9.496
REMARK  8 active torsions:
REMARK  status: ('A' for Active; 'I' for Inactive)
REMARK    1  A    between atoms: C_2  and  C_3 
REMARK    2  A    between atoms: C_3  and  O_4 
REMARK    3  A    between atoms: O_4  and  C_5 
REMARK    4  A    between atoms: C_7  and  C_8 
REMARK       I    between atoms: C_8  and  N_9 
REMARK    5  A    between atoms: N_9  and  C_10 
REMARK    6  A    between atoms: N_11  and  C_12 
REMARK    7  A    between atoms: C_14  and  C_15 
REMARK    8  A    between atoms: C_24  and  O_25 
ROOT
HETATM    1  C   UNL     1      41.996 -15.314   5.145  1.00  0.00     0.035 A 
HETATM    2  C   UNL     1      42.194 -15.009   3.795  1.00  0.00     0.046 A 
HETATM    3  C   UNL     1      41.510 -13.945   3.174  1.00  0.00     0.036 A 
HETATM    4  C   UNL     1      40.597 -13.207   3.958  1.00  0.00     0.084 A 
HETATM    5  C   UNL     1      40.344 -13.530   5.299  1.00  0.00    -0.026 A 
HETATM    6  C   UNL     1      39.384 -12.722   6.125  1.00  0.00     0.051 C 
HETATM    7  C   UNL     1      41.052 -14.588   5.880  1.00  0.00     0.039 A 
ENDROOT
BRANCH   1   8
HETATM    8  N   UNL     1      42.646 -16.375   5.811  1.00  0.00    -0.333 N 
HETATM    9  C   UNL     1      43.875 -16.447   6.368  1.00  0.00     0.179 C 
HETATM   10  S   UNL     1      44.704 -17.901   6.307  1.00  0.00    -0.040 SA
HETATM   11  H   UNL     1      42.203 -17.280   5.688  1.00  0.00     0.168 HD
BRANCH   9  12
HETATM   12  N   UNL     1      44.456 -15.419   7.047  1.00  0.00    -0.299 N 
HETATM   13  C   UNL     1      44.785 -14.139   6.611  1.00  0.00     0.257 C 
HETATM   14  O   UNL     1      44.868 -13.737   5.459  1.00  0.00    -0.267 OA
HETATM   15  H   UNL     1      44.339 -15.515   8.047  1.00  0.00     0.171 HD
BRANCH  13  16
HETATM   16  C   UNL     1      45.110 -13.195   7.702  1.00  0.00     0.035 A 
HETATM   17  C   UNL     1      44.195 -12.956   8.734  1.00  0.00     0.053 A 
HETATM   18  C   UNL     1      44.515 -12.010   9.707  1.00  0.00     0.069 A 
HETATM   19  C   UNL     1      45.718 -11.306   9.648  1.00  0.00     0.037 A 
HETATM   20  C   UNL     1      46.629 -11.558   8.621  1.00  0.00     0.004 A 
HETATM   21  C   UNL     1      46.322 -12.497   7.639  1.00  0.00     0.017 A 
BRANCH  18  22
HETATM   22  O   UNL     1      43.630 -11.643  10.682  1.00  0.00    -0.351 OA
BRANCH  22  23
HETATM   23  C   UNL     1      43.546 -10.222  10.843  1.00  0.00     0.175 C 
BRANCH  23  24
HETATM   24  C   UNL     1      43.612  -9.935  12.341  1.00  0.00     0.022 C 
HETATM   25  C   UNL     1      42.735 -10.876  13.146  1.00  0.00     0.007 C 
ENDBRANCH  23  24
ENDBRANCH  22  23
ENDBRANCH  18  22
ENDBRANCH  13  16
ENDBRANCH   9  12
ENDBRANCH   1   8
BRANCH   3  26
HETATM   26  C   UNL     1      41.723 -13.589   1.751  1.00  0.00     0.112 A 
HETATM   27  S   UNL     1      41.330 -14.653   0.455  1.00  0.00    -0.067 SA
HETATM   28  C   UNL     1      41.833 -13.474  -0.691  1.00  0.00     0.035 A 
HETATM   29  C   UNL     1      42.274 -12.342  -0.010  1.00  0.00     0.075 A 
HETATM   30  C   UNL     1      41.837 -13.545  -2.094  1.00  0.00     0.021 A 
HETATM   31  N   UNL     1      42.198 -12.416   1.372  1.00  0.00    -0.239 NA
HETATM   32  C   UNL     1      42.744 -11.240  -0.753  1.00  0.00     0.033 A 
HETATM   33  C   UNL     1      42.756 -11.300  -2.151  1.00  0.00     0.002 A 
HETATM   34  C   UNL     1      42.305 -12.439  -2.811  1.00  0.00     0.002 A 
ENDBRANCH   3  26
BRANCH   4  35
HETATM   35  O   UNL     1      39.901 -12.134   3.449  1.00  0.00    -0.359 OA
HETATM   36  H   UNL     1      38.950 -12.377   3.423  1.00  0.00     0.218 HD
ENDBRANCH   4  35
TORSDOF 8
ENDMDL
