MODEL 1
REMARK VINA RESULT:      -7.3      0.000      0.000
REMARK  6 active torsions:
REMARK  status: ('A' for Active; 'I' for Inactive)
REMARK    1  A    between atoms: C_2  and  C_3 
REMARK    2  A    between atoms: C_7  and  O_8 
REMARK    3  A    between atoms: O_8  and  C_9 
REMARK    4  A    between atoms: C_9  and  C_10 
REMARK       I    between atoms: C_10  and  N_11 
REMARK    5  A    between atoms: N_11  and  N_12 
REMARK    6  A    between atoms: C_13  and  C_14 
ROOT
HETATM    1  C   UNL     1      39.150 -14.958   1.644  1.00  0.00     0.261 C 
HETATM    2  N   UNL     1      39.405 -16.262   1.996  1.00  0.00    -0.246 N 
HETATM    3  O   UNL     1      37.998 -14.610   1.369  1.00  0.00    -0.269 OA
HETATM    4  H   UNL     1      38.601 -16.879   2.056  1.00  0.00     0.192 HD
ENDROOT
BRANCH   2   5
HETATM    5  N   UNL     1      40.654 -16.708   2.301  1.00  0.00    -0.184 NA
HETATM    6  C   UNL     1      40.846 -17.005   3.546  1.00  0.00     0.152 C 
BRANCH   6   7
HETATM    7  C   UNL     1      42.148 -17.458   3.982  1.00  0.00     0.011 A 
HETATM    8  C   UNL     1      42.655 -17.484   5.322  1.00  0.00     0.004 A 
HETATM    9  C   UNL     1      43.957 -17.986   5.266  1.00  0.00     0.043 A 
HETATM   10  C   UNL     1      42.129 -17.130   6.583  1.00  0.00     0.014 A 
HETATM   11  C   UNL     1      44.758 -18.148   6.403  1.00  0.00     0.030 A 
HETATM   12  N   UNL     1      44.232 -18.252   3.944  1.00  0.00    -0.364 N 
HETATM   13  C   UNL     1      44.210 -17.791   7.638  1.00  0.00     0.002 A 
HETATM   14  C   UNL     1      42.915 -17.290   7.730  1.00  0.00     0.001 A 
HETATM   15  H   UNL     1      45.111 -18.619   3.604  1.00  0.00     0.165 HD
HETATM   16  C   UNL     1      43.152 -17.944   3.165  1.00  0.00     0.102 A 
ENDBRANCH   6   7
ENDBRANCH   2   5
BRANCH   1  17
HETATM   17  C   UNL     1      40.332 -13.999   1.568  1.00  0.00     0.280 C 
BRANCH  17  18
HETATM   18  O   UNL     1      40.446 -13.261   2.777  1.00  0.00    -0.341 OA
BRANCH  18  19
HETATM   19  C   UNL     1      41.532 -13.527   3.570  1.00  0.00     0.086 A 
HETATM   20  C   UNL     1      41.338 -13.489   4.958  1.00  0.00     0.044 A 
HETATM   21  C   UNL     1      42.404 -13.713   5.837  1.00  0.00     0.029 A 
HETATM   22 BR   UNL     1      39.626 -13.147   5.711  1.00  0.00    -0.048 Br
HETATM   23  C   UNL     1      43.686 -13.979   5.344  1.00  0.00    -0.057 A 
HETATM   24  C   UNL     1      43.882 -14.010   3.959  1.00  0.00     0.010 A 
HETATM   25  C   UNL     1      42.816 -13.787   3.079  1.00  0.00     0.039 A 
BRANCH  23  26
HETATM   26  C   UNL     1      44.844 -14.187   6.285  1.00  0.00     0.034 C 
HETATM   27  C   UNL     1      44.567 -13.601   7.661  1.00  0.00     0.010 C 
ENDBRANCH  23  26
ENDBRANCH  18  19
ENDBRANCH  17  18
ENDBRANCH   1  17
TORSDOF 6
ENDMDL
MODEL 2
REMARK VINA RESULT:      -7.3      2.443      3.339
REMARK  6 active torsions:
REMARK  status: ('A' for Active; 'I' for Inactive)
REMARK    1  A    between atoms: C_2  and  C_3 
REMARK    2  A    between atoms: C_7  and  O_8 
REMARK    3  A    between atoms: O_8  and  C_9 
REMARK    4  A    between atoms: C_9  and  C_10 
REMARK       I    between atoms: C_10  and  N_11 
REMARK    5  A    between atoms: N_11  and  N_12 
REMARK    6  A    between atoms: C_13  and  C_14 
ROOT
HETATM    1  C   UNL     1      40.986 -16.042   0.960  1.00  0.00     0.261 C 
HETATM    2  N   UNL     1      42.120 -16.816   0.894  1.00  0.00    -0.246 N 
HETATM    3  O   UNL     1      40.761 -15.205   0.081  1.00  0.00    -0.269 OA
HETATM    4  H   UNL     1      42.708 -16.685   0.076  1.00  0.00     0.192 HD
ENDROOT
BRANCH   2   5
HETATM    5  N   UNL     1      42.428 -17.748   1.836  1.00  0.00    -0.184 NA
HETATM    6  C   UNL     1      43.555 -17.565   2.446  1.00  0.00     0.152 C 
BRANCH   6   7
HETATM    7  C   UNL     1      43.992 -18.517   3.444  1.00  0.00     0.011 A 
HETATM    8  C   UNL     1      44.184 -19.926   3.275  1.00  0.00     0.004 A 
HETATM    9  C   UNL     1      44.596 -20.442   4.504  1.00  0.00     0.043 A 
HETATM   10  C   UNL     1      44.048 -20.817   2.187  1.00  0.00     0.014 A 
HETATM   11  C   UNL     1      44.877 -21.799   4.703  1.00  0.00     0.030 A 
HETATM   12  N   UNL     1      44.651 -19.389   5.388  1.00  0.00    -0.364 N 
HETATM   13  C   UNL     1      44.736 -22.658   3.609  1.00  0.00     0.002 A 
HETATM   14  C   UNL     1      44.328 -22.177   2.369  1.00  0.00     0.001 A 
HETATM   15  H   UNL     1      44.914 -19.469   6.361  1.00  0.00     0.165 HD
HETATM   16  C   UNL     1      44.295 -18.227   4.761  1.00  0.00     0.102 A 
ENDBRANCH   6   7
ENDBRANCH   2   5
BRANCH   1  17
HETATM   17  C   UNL     1      40.068 -16.229   2.163  1.00  0.00     0.280 C 
BRANCH  17  18
HETATM   18  O   UNL     1      40.119 -15.084   3.002  1.00  0.00    -0.341 OA
BRANCH  18  19
HETATM   19  C   UNL     1      41.022 -15.105   4.033  1.00  0.00     0.086 A 
HETATM   20  C   UNL     1      42.097 -14.207   3.962  1.00  0.00     0.044 A 
HETATM   21  C   UNL     1      43.082 -14.189   4.956  1.00  0.00     0.029 A 
HETATM   22 BR   UNL     1      42.260 -12.966   2.531  1.00  0.00    -0.048 Br
HETATM   23  C   UNL     1      43.012 -15.071   6.040  1.00  0.00    -0.057 A 
HETATM   24  C   UNL     1      41.945 -15.972   6.107  1.00  0.00     0.010 A 
HETATM   25  C   UNL     1      40.958 -15.990   5.114  1.00  0.00     0.039 A 
BRANCH  23  26
HETATM   26  C   UNL     1      44.089 -15.080   7.094  1.00  0.00     0.034 C 
HETATM   27  C   UNL     1      45.110 -13.974   6.871  1.00  0.00     0.010 C 
ENDBRANCH  23  26
ENDBRANCH  18  19
ENDBRANCH  17  18
ENDBRANCH   1  17
TORSDOF 6
ENDMDL
MODEL 3
REMARK VINA RESULT:      -6.9      5.590      7.696
REMARK  6 active torsions:
REMARK  status: ('A' for Active; 'I' for Inactive)
REMARK    1  A    between atoms: C_2  and  C_3 
REMARK    2  A    between atoms: C_7  and  O_8 
REMARK    3  A    between atoms: O_8  and  C_9 
REMARK    4  A    between atoms: C_9  and  C_10 
REMARK       I    between atoms: C_10  and  N_11 
REMARK    5  A    between atoms: N_11  and  N_12 
REMARK    6  A    between atoms: C_13  and  C_14 
ROOT
HETATM    1  C   UNL     1      45.288 -11.687   9.219  1.00  0.00     0.261 C 
HETATM    2  N   UNL     1      45.454 -12.660   8.262  1.00  0.00    -0.246 N 
HETATM    3  O   UNL     1      46.010 -10.686   9.210  1.00  0.00    -0.269 OA
HETATM    4  H   UNL     1      46.153 -12.476   7.550  1.00  0.00     0.192 HD
ENDROOT
BRANCH   2   5
HETATM    5  N   UNL     1      44.696 -13.789   8.224  1.00  0.00    -0.184 NA
HETATM    6  C   UNL     1      44.663 -14.394   7.080  1.00  0.00     0.152 C 
BRANCH   6   7
HETATM    7  C   UNL     1      43.860 -15.587   6.924  1.00  0.00     0.011 A 
HETATM    8  C   UNL     1      43.240 -16.066   5.725  1.00  0.00     0.004 A 
HETATM    9  C   UNL     1      42.558 -17.241   6.048  1.00  0.00     0.043 A 
HETATM   10  C   UNL     1      43.194 -15.612   4.388  1.00  0.00     0.014 A 
HETATM   11  C   UNL     1      41.833 -17.982   5.106  1.00  0.00     0.030 A 
HETATM   12  N   UNL     1      42.753 -17.467   7.391  1.00  0.00    -0.364 N 
HETATM   13  C   UNL     1      41.807 -17.510   3.791  1.00  0.00     0.002 A 
HETATM   14  C   UNL     1      42.477 -16.343   3.434  1.00  0.00     0.001 A 
HETATM   15  H   UNL     1      42.366 -18.247   7.904  1.00  0.00     0.165 HD
HETATM   16  C   UNL     1      43.538 -16.483   7.927  1.00  0.00     0.102 A 
ENDBRANCH   6   7
ENDBRANCH   2   5
BRANCH   1  17
HETATM   17  C   UNL     1      44.228 -11.920  10.291  1.00  0.00     0.280 C 
BRANCH  17  18
HETATM   18  O   UNL     1      43.290 -10.852  10.294  1.00  0.00    -0.341 OA
BRANCH  18  19
HETATM   19  C   UNL     1      42.835 -10.426  11.515  1.00  0.00     0.086 A 
HETATM   20  C   UNL     1      41.446 -10.348  11.690  1.00  0.00     0.044 A 
HETATM   21  C   UNL     1      40.900  -9.888  12.894  1.00  0.00     0.029 A 
HETATM   22 BR   UNL     1      40.242 -10.871  10.315  1.00  0.00    -0.048 Br
HETATM   23  C   UNL     1      41.735  -9.498  13.948  1.00  0.00    -0.057 A 
HETATM   24  C   UNL     1      43.121  -9.569  13.771  1.00  0.00     0.010 A 
HETATM   25  C   UNL     1      43.667 -10.029  12.567  1.00  0.00     0.039 A 
BRANCH  23  26
HETATM   26  C   UNL     1      41.153  -8.970  15.234  1.00  0.00     0.034 C 
HETATM   27  C   UNL     1      42.171  -8.986  16.364  1.00  0.00     0.010 C 
ENDBRANCH  23  26
ENDBRANCH  18  19
ENDBRANCH  17  18
ENDBRANCH   1  17
TORSDOF 6
ENDMDL
MODEL 4
REMARK VINA RESULT:      -6.8      3.892      6.760
REMARK  6 active torsions:
REMARK  status: ('A' for Active; 'I' for Inactive)
REMARK    1  A    between atoms: C_2  and  C_3 
REMARK    2  A    between atoms: C_7  and  O_8 
REMARK    3  A    between atoms: O_8  and  C_9 
REMARK    4  A    between atoms: C_9  and  C_10 
REMARK       I    between atoms: C_10  and  N_11 
REMARK    5  A    between atoms: N_11  and  N_12 
REMARK    6  A    between atoms: C_13  and  C_14 
ROOT
HETATM    1  C   UNL     1      43.989 -18.894   8.327  1.00  0.00     0.261 C 
HETATM    2  N   UNL     1      43.388 -17.658   8.363  1.00  0.00    -0.246 N 
HETATM    3  O   UNL     1      44.811 -19.202   9.194  1.00  0.00    -0.269 OA
HETATM    4  H   UNL     1      43.626 -17.063   9.150  1.00  0.00     0.192 HD
ENDROOT
BRANCH   2   5
HETATM    5  N   UNL     1      42.482 -17.257   7.431  1.00  0.00    -0.184 NA
HETATM    6  C   UNL     1      42.665 -16.065   6.959  1.00  0.00     0.152 C 
BRANCH   6   7
HETATM    7  C   UNL     1      41.738 -15.529   5.986  1.00  0.00     0.011 A 
HETATM    8  C   UNL     1      42.055 -14.800   4.795  1.00  0.00     0.004 A 
HETATM    9  C   UNL     1      40.849 -14.472   4.173  1.00  0.00     0.043 A 
HETATM   10  C   UNL     1      43.258 -14.387   4.181  1.00  0.00     0.014 A 
HETATM   11  C   UNL     1      40.784 -13.753   2.973  1.00  0.00     0.030 A 
HETATM   12  N   UNL     1      39.838 -14.980   4.956  1.00  0.00    -0.364 N 
HETATM   13  C   UNL     1      41.990 -13.359   2.387  1.00  0.00     0.002 A 
HETATM   14  C   UNL     1      43.211 -13.670   2.980  1.00  0.00     0.001 A 
HETATM   15  H   UNL     1      38.852 -14.885   4.752  1.00  0.00     0.165 HD
HETATM   16  C   UNL     1      40.360 -15.621   6.045  1.00  0.00     0.102 A 
ENDBRANCH   6   7
ENDBRANCH   2   5
BRANCH   1  17
HETATM   17  C   UNL     1      43.635 -19.822   7.171  1.00  0.00     0.280 C 
BRANCH  17  18
HETATM   18  O   UNL     1      44.684 -19.834   6.211  1.00  0.00    -0.341 OA
BRANCH  18  19
HETATM   19  C   UNL     1      44.386 -19.369   4.957  1.00  0.00     0.086 A 
HETATM   20  C   UNL     1      44.399 -20.300   3.909  1.00  0.00     0.044 A 
HETATM   21  C   UNL     1      44.141 -19.901   2.592  1.00  0.00     0.029 A 
HETATM   22 BR   UNL     1      44.751 -22.143   4.222  1.00  0.00    -0.048 Br
HETATM   23  C   UNL     1      43.865 -18.561   2.299  1.00  0.00    -0.057 A 
HETATM   24  C   UNL     1      43.859 -17.630   3.343  1.00  0.00     0.010 A 
HETATM   25  C   UNL     1      44.116 -18.030   4.660  1.00  0.00     0.039 A 
BRANCH  23  26
HETATM   26  C   UNL     1      43.621 -18.120   0.879  1.00  0.00     0.034 C 
HETATM   27  C   UNL     1      42.693 -16.916   0.812  1.00  0.00     0.010 C 
ENDBRANCH  23  26
ENDBRANCH  18  19
ENDBRANCH  17  18
ENDBRANCH   1  17
TORSDOF 6
ENDMDL
MODEL 5
REMARK VINA RESULT:      -6.8      2.676      5.077
REMARK  6 active torsions:
REMARK  status: ('A' for Active; 'I' for Inactive)
REMARK    1  A    between atoms: C_2  and  C_3 
REMARK    2  A    between atoms: C_7  and  O_8 
REMARK    3  A    between atoms: O_8  and  C_9 
REMARK    4  A    between atoms: C_9  and  C_10 
REMARK       I    between atoms: C_10  and  N_11 
REMARK    5  A    between atoms: N_11  and  N_12 
REMARK    6  A    between atoms: C_13  and  C_14 
ROOT
HETATM    1  C   UNL     1      40.104 -14.703   5.203  1.00  0.00     0.261 C 
HETATM    2  N   UNL     1      40.235 -15.756   6.077  1.00  0.00    -0.246 N 
HETATM    3  O   UNL     1      39.450 -13.709   5.531  1.00  0.00    -0.269 OA
HETATM    4  H   UNL     1      39.810 -15.638   6.991  1.00  0.00     0.192 HD
ENDROOT
BRANCH   2   5
HETATM    5  N   UNL     1      40.935 -16.881   5.769  1.00  0.00    -0.184 NA
HETATM    6  C   UNL     1      42.114 -16.959   6.297  1.00  0.00     0.152 C 
BRANCH   6   7
HETATM    7  C   UNL     1      42.954 -18.101   6.008  1.00  0.00     0.011 A 
HETATM    8  C   UNL     1      43.319 -18.607   4.718  1.00  0.00     0.004 A 
HETATM    9  C   UNL     1      44.128 -19.725   4.922  1.00  0.00     0.043 A 
HETATM   10  C   UNL     1      43.038 -18.217   3.390  1.00  0.00     0.014 A 
HETATM   11  C   UNL     1      44.669 -20.474   3.870  1.00  0.00     0.030 A 
HETATM   12  N   UNL     1      44.250 -19.895   6.283  1.00  0.00    -0.364 N 
HETATM   13  C   UNL     1      44.376 -20.065   2.566  1.00  0.00     0.002 A 
HETATM   14  C   UNL     1      43.574 -18.953   2.327  1.00  0.00     0.001 A 
HETATM   15  H   UNL     1      44.777 -20.637   6.723  1.00  0.00     0.165 HD
HETATM   16  C   UNL     1      43.554 -18.923   6.944  1.00  0.00     0.102 A 
ENDBRANCH   6   7
ENDBRANCH   2   5
BRANCH   1  17
HETATM   17  C   UNL     1      40.751 -14.837   3.828  1.00  0.00     0.280 C 
BRANCH  17  18
HETATM   18  O   UNL     1      39.794 -15.281   2.876  1.00  0.00    -0.341 OA
BRANCH  18  19
HETATM   19  C   UNL     1      40.177 -15.282   1.560  1.00  0.00     0.086 A 
HETATM   20  C   UNL     1      39.594 -14.322   0.721  1.00  0.00     0.044 A 
HETATM   21  C   UNL     1      39.905 -14.278  -0.642  1.00  0.00     0.029 A 
HETATM   22 BR   UNL     1      38.370 -13.030   1.392  1.00  0.00    -0.048 Br
HETATM   23  C   UNL     1      40.807 -15.195  -1.194  1.00  0.00    -0.057 A 
HETATM   24  C   UNL     1      41.384 -16.158  -0.359  1.00  0.00     0.010 A 
HETATM   25  C   UNL     1      41.073 -16.202   1.005  1.00  0.00     0.039 A 
BRANCH  23  26
HETATM   26  C   UNL     1      41.118 -15.175  -2.668  1.00  0.00     0.034 C 
HETATM   27  C   UNL     1      40.000 -15.795  -3.492  1.00  0.00     0.010 C 
ENDBRANCH  23  26
ENDBRANCH  18  19
ENDBRANCH  17  18
ENDBRANCH   1  17
TORSDOF 6
ENDMDL
MODEL 6
REMARK VINA RESULT:      -6.8      3.508      7.101
REMARK  6 active torsions:
REMARK  status: ('A' for Active; 'I' for Inactive)
REMARK    1  A    between atoms: C_2  and  C_3 
REMARK    2  A    between atoms: C_7  and  O_8 
REMARK    3  A    between atoms: O_8  and  C_9 
REMARK    4  A    between atoms: C_9  and  C_10 
REMARK       I    between atoms: C_10  and  N_11 
REMARK    5  A    between atoms: N_11  and  N_12 
REMARK    6  A    between atoms: C_13  and  C_14 
ROOT
HETATM    1  C   UNL     1      42.715 -13.767   4.813  1.00  0.00     0.261 C 
HETATM    2  N   UNL     1      42.920 -13.056   3.654  1.00  0.00    -0.246 N 
HETATM    3  O   UNL     1      42.842 -13.209   5.907  1.00  0.00    -0.269 OA
HETATM    4  H   UNL     1      43.127 -12.068   3.762  1.00  0.00     0.192 HD
ENDROOT
BRANCH   2   5
HETATM    5  N   UNL     1      42.804 -13.616   2.420  1.00  0.00    -0.184 NA
HETATM    6  C   UNL     1      41.699 -13.359   1.798  1.00  0.00     0.152 C 
BRANCH   6   7
HETATM    7  C   UNL     1      41.462 -13.933   0.491  1.00  0.00     0.011 A 
HETATM    8  C   UNL     1      41.767 -13.351  -0.781  1.00  0.00     0.004 A 
HETATM    9  C   UNL     1      41.353 -14.253  -1.763  1.00  0.00     0.043 A 
HETATM   10  C   UNL     1      42.362 -12.139  -1.195  1.00  0.00     0.014 A 
HETATM   11  C   UNL     1      41.500 -14.004  -3.133  1.00  0.00     0.030 A 
HETATM   12  N   UNL     1      40.814 -15.340  -1.114  1.00  0.00    -0.364 N 
HETATM   13  C   UNL     1      42.093 -12.797  -3.514  1.00  0.00     0.002 A 
HETATM   14  C   UNL     1      42.519 -11.877  -2.561  1.00  0.00     0.001 A 
HETATM   15  H   UNL     1      40.424 -16.149  -1.577  1.00  0.00     0.165 HD
HETATM   16  C   UNL     1      40.879 -15.161   0.240  1.00  0.00     0.102 A 
ENDBRANCH   6   7
ENDBRANCH   2   5
BRANCH   1  17
HETATM   17  C   UNL     1      42.379 -15.248   4.686  1.00  0.00     0.280 C 
BRANCH  17  18
HETATM   18  O   UNL     1      43.571 -16.019   4.622  1.00  0.00    -0.341 OA
BRANCH  18  19
HETATM   19  C   UNL     1      43.521 -17.188   3.908  1.00  0.00     0.086 A 
HETATM   20  C   UNL     1      44.102 -18.322   4.492  1.00  0.00     0.044 A 
HETATM   21  C   UNL     1      44.124 -19.546   3.813  1.00  0.00     0.029 A 
HETATM   22 BR   UNL     1      44.872 -18.260   6.229  1.00  0.00    -0.048 Br
HETATM   23  C   UNL     1      43.564 -19.659   2.535  1.00  0.00    -0.057 A 
HETATM   24  C   UNL     1      42.990 -18.526   1.949  1.00  0.00     0.010 A 
HETATM   25  C   UNL     1      42.968 -17.301   2.628  1.00  0.00     0.039 A 
BRANCH  23  26
HETATM   26  C   UNL     1      43.616 -20.965   1.785  1.00  0.00     0.034 C 
HETATM   27  C   UNL     1      44.396 -22.025   2.549  1.00  0.00     0.010 C 
ENDBRANCH  23  26
ENDBRANCH  18  19
ENDBRANCH  17  18
ENDBRANCH   1  17
TORSDOF 6
ENDMDL
MODEL 7
REMARK VINA RESULT:      -6.7      3.755      7.260
REMARK  6 active torsions:
REMARK  status: ('A' for Active; 'I' for Inactive)
REMARK    1  A    between atoms: C_2  and  C_3 
REMARK    2  A    between atoms: C_7  and  O_8 
REMARK    3  A    between atoms: O_8  and  C_9 
REMARK    4  A    between atoms: C_9  and  C_10 
REMARK       I    between atoms: C_10  and  N_11 
REMARK    5  A    between atoms: N_11  and  N_12 
REMARK    6  A    between atoms: C_13  and  C_14 
ROOT
HETATM    1  C   UNL     1      42.719 -14.114   4.275  1.00  0.00     0.261 C 
HETATM    2  N   UNL     1      42.678 -12.977   3.505  1.00  0.00    -0.246 N 
HETATM    3  O   UNL     1      42.547 -14.037   5.494  1.00  0.00    -0.269 OA
HETATM    4  H   UNL     1      42.458 -12.112   3.989  1.00  0.00     0.192 HD
ENDROOT
BRANCH   2   5
HETATM    5  N   UNL     1      42.870 -12.996   2.158  1.00  0.00    -0.184 NA
HETATM    6  C   UNL     1      41.896 -12.513   1.455  1.00  0.00     0.152 C 
BRANCH   6   7
HETATM    7  C   UNL     1      41.985 -12.516   0.011  1.00  0.00     0.011 A 
HETATM    8  C   UNL     1      41.645 -13.587  -0.879  1.00  0.00     0.004 A 
HETATM    9  C   UNL     1      41.903 -13.148  -2.178  1.00  0.00     0.043 A 
HETATM   10  C   UNL     1      41.138 -14.893  -0.702  1.00  0.00     0.014 A 
HETATM   11  C   UNL     1      41.683 -13.946  -3.308  1.00  0.00     0.030 A 
HETATM   12  N   UNL     1      42.383 -11.861  -2.084  1.00  0.00    -0.364 N 
HETATM   13  C   UNL     1      41.179 -15.233  -3.103  1.00  0.00     0.002 A 
HETATM   14  C   UNL     1      40.909 -15.702  -1.821  1.00  0.00     0.001 A 
HETATM   15  H   UNL     1      42.662 -11.294  -2.873  1.00  0.00     0.165 HD
HETATM   16  C   UNL     1      42.432 -11.470  -0.775  1.00  0.00     0.102 A 
ENDBRANCH   6   7
ENDBRANCH   2   5
BRANCH   1  17
HETATM   17  C   UNL     1      43.025 -15.435   3.575  1.00  0.00     0.280 C 
BRANCH  17  18
HETATM   18  O   UNL     1      43.442 -16.408   4.523  1.00  0.00    -0.341 OA
BRANCH  18  19
HETATM   19  C   UNL     1      43.663 -17.677   4.057  1.00  0.00     0.086 A 
HETATM   20  C   UNL     1      44.381 -18.550   4.888  1.00  0.00     0.044 A 
HETATM   21  C   UNL     1      44.680 -19.852   4.472  1.00  0.00     0.029 A 
HETATM   22 BR   UNL     1      44.967 -18.016   6.616  1.00  0.00    -0.048 Br
HETATM   23  C   UNL     1      44.267 -20.307   3.215  1.00  0.00    -0.057 A 
HETATM   24  C   UNL     1      43.558 -19.435   2.382  1.00  0.00     0.010 A 
HETATM   25  C   UNL     1      43.258 -18.133   2.799  1.00  0.00     0.039 A 
BRANCH  23  26
HETATM   26  C   UNL     1      44.617 -21.697   2.747  1.00  0.00     0.034 C 
HETATM   27  C   UNL     1      44.013 -22.004   1.386  1.00  0.00     0.010 C 
ENDBRANCH  23  26
ENDBRANCH  18  19
ENDBRANCH  17  18
ENDBRANCH   1  17
TORSDOF 6
ENDMDL
MODEL 8
REMARK VINA RESULT:      -6.5      3.265      7.025
REMARK  6 active torsions:
REMARK  status: ('A' for Active; 'I' for Inactive)
REMARK    1  A    between atoms: C_2  and  C_3 
REMARK    2  A    between atoms: C_7  and  O_8 
REMARK    3  A    between atoms: O_8  and  C_9 
REMARK    4  A    between atoms: C_9  and  C_10 
REMARK       I    between atoms: C_10  and  N_11 
REMARK    5  A    between atoms: N_11  and  N_12 
REMARK    6  A    between atoms: C_13  and  C_14 
ROOT
HETATM    1  C   UNL     1      41.087 -15.364   5.007  1.00  0.00     0.261 C 
HETATM    2  N   UNL     1      40.253 -15.381   3.915  1.00  0.00    -0.246 N 
HETATM    3  O   UNL     1      40.610 -15.356   6.145  1.00  0.00    -0.269 OA
HETATM    4  H   UNL     1      39.258 -15.434   4.109  1.00  0.00     0.192 HD
ENDROOT
BRANCH   2   5
HETATM    5  N   UNL     1      40.718 -15.382   2.637  1.00  0.00    -0.184 NA
HETATM    6  C   UNL     1      39.920 -14.865   1.758  1.00  0.00     0.152 C 
BRANCH   6   7
HETATM    7  C   UNL     1      40.305 -14.845   0.364  1.00  0.00     0.011 A 
HETATM    8  C   UNL     1      39.618 -14.206  -0.718  1.00  0.00     0.004 A 
HETATM    9  C   UNL     1      40.344 -14.461  -1.883  1.00  0.00     0.043 A 
HETATM   10  C   UNL     1      38.443 -13.429  -0.819  1.00  0.00     0.014 A 
HETATM   11  C   UNL     1      39.955 -13.983  -3.140  1.00  0.00     0.030 A 
HETATM   12  N   UNL     1      41.429 -15.227  -1.525  1.00  0.00    -0.364 N 
HETATM   13  C   UNL     1      38.789 -13.216  -3.210  1.00  0.00     0.002 A 
HETATM   14  C   UNL     1      38.042 -12.941  -2.069  1.00  0.00     0.001 A 
HETATM   15  H   UNL     1      42.128 -15.569  -2.170  1.00  0.00     0.165 HD
HETATM   16  C   UNL     1      41.419 -15.460  -0.177  1.00  0.00     0.102 A 
ENDBRANCH   6   7
ENDBRANCH   2   5
BRANCH   1  17
HETATM   17  C   UNL     1      42.590 -15.309   4.752  1.00  0.00     0.280 C 
BRANCH  17  18
HETATM   18  O   UNL     1      43.249 -16.340   5.474  1.00  0.00    -0.341 OA
BRANCH  18  19
HETATM   19  C   UNL     1      43.551 -17.487   4.788  1.00  0.00     0.086 A 
HETATM   20  C   UNL     1      44.035 -18.572   5.533  1.00  0.00     0.044 A 
HETATM   21  C   UNL     1      44.400 -19.768   4.904  1.00  0.00     0.029 A 
HETATM   22 BR   UNL     1      44.205 -18.479   7.424  1.00  0.00    -0.048 Br
HETATM   23  C   UNL     1      44.288 -19.901   3.515  1.00  0.00    -0.057 A 
HETATM   24  C   UNL     1      43.812 -18.817   2.770  1.00  0.00     0.010 A 
HETATM   25  C   UNL     1      43.447 -17.621   3.399  1.00  0.00     0.039 A 
BRANCH  23  26
HETATM   26  C   UNL     1      44.713 -21.174   2.828  1.00  0.00     0.034 C 
HETATM   27  C   UNL     1      43.752 -21.565   1.716  1.00  0.00     0.010 C 
ENDBRANCH  23  26
ENDBRANCH  18  19
ENDBRANCH  17  18
ENDBRANCH   1  17
TORSDOF 6
ENDMDL
MODEL 9
REMARK VINA RESULT:      -6.4      2.670      5.006
REMARK  6 active torsions:
REMARK  status: ('A' for Active; 'I' for Inactive)
REMARK    1  A    between atoms: C_2  and  C_3 
REMARK    2  A    between atoms: C_7  and  O_8 
REMARK    3  A    between atoms: O_8  and  C_9 
REMARK    4  A    between atoms: C_9  and  C_10 
REMARK       I    between atoms: C_10  and  N_11 
REMARK    5  A    between atoms: N_11  and  N_12 
REMARK    6  A    between atoms: C_13  and  C_14 
ROOT
HETATM    1  C   UNL     1      44.251 -14.045   7.226  1.00  0.00     0.261 C 
HETATM    2  N   UNL     1      44.104 -15.335   7.678  1.00  0.00    -0.246 N 
HETATM    3  O   UNL     1      44.553 -13.147   8.017  1.00  0.00    -0.269 OA
HETATM    4  H   UNL     1      44.301 -15.493   8.661  1.00  0.00     0.192 HD
ENDROOT
BRANCH   2   5
HETATM    5  N   UNL     1      43.764 -16.365   6.858  1.00  0.00    -0.184 NA
HETATM    6  C   UNL     1      44.739 -17.147   6.520  1.00  0.00     0.152 C 
BRANCH   6   7
HETATM    7  C   UNL     1      44.491 -18.256   5.624  1.00  0.00     0.011 A 
HETATM    8  C   UNL     1      44.103 -18.189   4.246  1.00  0.00     0.004 A 
HETATM    9  C   UNL     1      43.964 -19.500   3.788  1.00  0.00     0.043 A 
HETATM   10  C   UNL     1      43.858 -17.134   3.340  1.00  0.00     0.014 A 
HETATM   11  C   UNL     1      43.592 -19.811   2.474  1.00  0.00     0.030 A 
HETATM   12  N   UNL     1      44.254 -20.332   4.845  1.00  0.00    -0.364 N 
HETATM   13  C   UNL     1      43.358 -18.747   1.599  1.00  0.00     0.002 A 
HETATM   14  C   UNL     1      43.488 -17.428   2.022  1.00  0.00     0.001 A 
HETATM   15  H   UNL     1      44.226 -21.342   4.805  1.00  0.00     0.165 HD
HETATM   16  C   UNL     1      44.576 -19.596   5.951  1.00  0.00     0.102 A 
ENDBRANCH   6   7
ENDBRANCH   2   5
BRANCH   1  17
HETATM   17  C   UNL     1      43.985 -13.777   5.748  1.00  0.00     0.280 C 
BRANCH  17  18
HETATM   18  O   UNL     1      42.593 -13.603   5.523  1.00  0.00    -0.341 OA
BRANCH  18  19
HETATM   19  C   UNL     1      42.121 -13.905   4.272  1.00  0.00     0.086 A 
HETATM   20  C   UNL     1      41.119 -14.881   4.183  1.00  0.00     0.044 A 
HETATM   21  C   UNL     1      40.608 -15.273   2.941  1.00  0.00     0.029 A 
HETATM   22 BR   UNL     1      40.398 -15.707   5.737  1.00  0.00    -0.048 Br
HETATM   23  C   UNL     1      41.091 -14.695   1.761  1.00  0.00    -0.057 A 
HETATM   24  C   UNL     1      42.096 -13.725   1.848  1.00  0.00     0.010 A 
HETATM   25  C   UNL     1      42.606 -13.333   3.092  1.00  0.00     0.039 A 
BRANCH  23  26
HETATM   26  C   UNL     1      40.570 -15.138   0.419  1.00  0.00     0.034 C 
HETATM   27  C   UNL     1      41.465 -14.669  -0.719  1.00  0.00     0.010 C 
ENDBRANCH  23  26
ENDBRANCH  18  19
ENDBRANCH  17  18
ENDBRANCH   1  17
TORSDOF 6
ENDMDL
MODEL 10
REMARK VINA RESULT:      -6.4      5.637      7.501
REMARK  6 active torsions:
REMARK  status: ('A' for Active; 'I' for Inactive)
REMARK    1  A    between atoms: C_2  and  C_3 
REMARK    2  A    between atoms: C_7  and  O_8 
REMARK    3  A    between atoms: O_8  and  C_9 
REMARK    4  A    between atoms: C_9  and  C_10 
REMARK       I    between atoms: C_10  and  N_11 
REMARK    5  A    between atoms: N_11  and  N_12 
REMARK    6  A    between atoms: C_13  and  C_14 
ROOT
HETATM    1  C   UNL     1      45.101 -11.671   9.232  1.00  0.00     0.261 C 
HETATM    2  N   UNL     1      45.370 -12.667   8.324  1.00  0.00    -0.246 N 
HETATM    3  O   UNL     1      45.787 -10.645   9.240  1.00  0.00    -0.269 OA
HETATM    4  H   UNL     1      46.113 -12.481   7.658  1.00  0.00     0.192 HD
ENDROOT
BRANCH   2   5
HETATM    5  N   UNL     1      44.657 -13.824   8.271  1.00  0.00    -0.184 NA
HETATM    6  C   UNL     1      44.603 -14.388   7.107  1.00  0.00     0.152 C 
BRANCH   6   7
HETATM    7  C   UNL     1      43.843 -15.606   6.936  1.00  0.00     0.011 A 
HETATM    8  C   UNL     1      43.271 -16.110   5.723  1.00  0.00     0.004 A 
HETATM    9  C   UNL     1      42.618 -17.304   6.033  1.00  0.00     0.043 A 
HETATM   10  C   UNL     1      43.248 -15.664   4.383  1.00  0.00     0.014 A 
HETATM   11  C   UNL     1      41.943 -18.072   5.077  1.00  0.00     0.030 A 
HETATM   12  N   UNL     1      42.783 -17.517   7.383  1.00  0.00    -0.364 N 
HETATM   13  C   UNL     1      41.938 -17.607   3.758  1.00  0.00     0.002 A 
HETATM   14  C   UNL     1      42.580 -16.422   3.414  1.00  0.00     0.001 A 
HETATM   15  H   UNL     1      42.407 -18.308   7.889  1.00  0.00     0.165 HD
HETATM   16  C   UNL     1      43.521 -16.507   7.934  1.00  0.00     0.102 A 
ENDBRANCH   6   7
ENDBRANCH   2   5
BRANCH   1  17
HETATM   17  C   UNL     1      43.975 -11.908  10.233  1.00  0.00     0.280 C 
BRANCH  17  18
HETATM   18  O   UNL     1      43.685 -10.709  10.938  1.00  0.00    -0.341 OA
BRANCH  18  19
HETATM   19  C   UNL     1      42.363 -10.372  11.077  1.00  0.00     0.086 A 
HETATM   20  C   UNL     1      41.975  -9.785  12.290  1.00  0.00     0.044 A 
HETATM   21  C   UNL     1      40.638  -9.444  12.525  1.00  0.00     0.029 A 
HETATM   22 BR   UNL     1      43.238  -9.413  13.661  1.00  0.00    -0.048 Br
HETATM   23  C   UNL     1      39.663  -9.683  11.550  1.00  0.00    -0.057 A 
HETATM   24  C   UNL     1      40.049 -10.275  10.342  1.00  0.00     0.010 A 
HETATM   25  C   UNL     1      41.386 -10.616  10.107  1.00  0.00     0.039 A 
BRANCH  23  26
HETATM   26  C   UNL     1      38.217  -9.349  11.811  1.00  0.00     0.034 C 
HETATM   27  C   UNL     1      38.027  -7.878  12.146  1.00  0.00     0.010 C 
ENDBRANCH  23  26
ENDBRANCH  18  19
ENDBRANCH  17  18
ENDBRANCH   1  17
TORSDOF 6
ENDMDL
