MODEL 1
REMARK VINA RESULT:      -9.1      0.000      0.000
REMARK  5 active torsions:
REMARK  status: ('A' for Active; 'I' for Inactive)
REMARK    1  A    between atoms: C_4  and  C_5 
REMARK    2  A    between atoms: C_5  and  C_6 
REMARK    3  A    between atoms: C_10  and  C_11 
REMARK       I    between atoms: C_11  and  N_12 
REMARK    4  A    between atoms: N_12  and  N_13 
REMARK    5  A    between atoms: N_13  and  C_14 
ROOT
HETATM    1  C   UNL     1      42.897 -16.898   6.054  1.00  0.00     0.033 A 
HETATM    2  C   UNL     1      42.883 -17.028   7.431  1.00  0.00     0.104 A 
HETATM    3  N   UNL     1      43.596 -15.991   7.972  1.00  0.00    -0.360 N 
HETATM    4  H   UNL     1      43.748 -15.823   8.959  1.00  0.00     0.165 HD
HETATM    5  C   UNL     1      44.090 -15.176   6.977  1.00  0.00     0.102 A 
HETATM    6  C   UNL     1      43.691 -15.743   5.777  1.00  0.00     0.052 A 
ENDROOT
BRANCH   5   7
HETATM    7  C   UNL     1      44.850 -13.985   7.284  1.00  0.00     0.282 C 
HETATM    8  N   UNL     1      44.438 -13.281   8.398  1.00  0.00    -0.280 N 
HETATM    9  H   UNL     1      43.485 -13.368   8.750  1.00  0.00     0.184 HD
HETATM   10  O   UNL     1      45.806 -13.617   6.598  1.00  0.00    -0.265 OA
BRANCH   8  11
HETATM   11  N   UNL     1      45.034 -12.012   8.621  1.00  0.00    -0.186 NA
HETATM   12  H   UNL     1      45.140 -11.512   7.732  1.00  0.00     0.154 HD
BRANCH  11  13
HETATM   13  C   UNL     1      44.281 -11.235   9.536  1.00  0.00     0.122 A 
HETATM   14  N   UNL     1      43.130 -10.651   9.130  1.00  0.00    -0.223 NA
HETATM   15  C   UNL     1      42.431  -9.966  10.057  1.00  0.00     0.128 A 
HETATM   16 CL   UNL     1      40.993  -9.239   9.468  1.00  0.00    -0.062 Cl
HETATM   17  C   UNL     1      42.797  -9.834  11.385  1.00  0.00     0.044 A 
HETATM   18  C   UNL     1      43.971 -10.453  11.793  1.00  0.00     0.007 A 
HETATM   19  C   UNL     1      44.719 -11.166  10.860  1.00  0.00     0.046 A 
ENDBRANCH  11  13
ENDBRANCH   8  11
ENDBRANCH   5   7
BRANCH   1  20
HETATM   20  C   UNL     1      42.278 -17.774   5.059  1.00  0.00     0.193 C 
HETATM   21  O   UNL     1      41.064 -17.771   4.868  1.00  0.00    -0.287 OA
BRANCH  20  22
HETATM   22  C   UNL     1      43.119 -18.704   4.259  1.00  0.00     0.015 A 
HETATM   23  C   UNL     1      42.852 -18.837   2.890  1.00  0.00     0.015 A 
HETATM   24  C   UNL     1      43.596 -19.727   2.114  1.00  0.00     0.001 A 
HETATM   25  C   UNL     1      44.599 -20.496   2.704  1.00  0.00     0.000 A 
HETATM   26  C   UNL     1      44.855 -20.384   4.070  1.00  0.00     0.001 A 
HETATM   27  C   UNL     1      44.113 -19.495   4.850  1.00  0.00     0.015 A 
ENDBRANCH  20  22
ENDBRANCH   1  20
TORSDOF 5
ENDMDL
MODEL 2
REMARK VINA RESULT:      -8.6      6.658      9.353
REMARK  5 active torsions:
REMARK  status: ('A' for Active; 'I' for Inactive)
REMARK    1  A    between atoms: C_4  and  C_5 
REMARK    2  A    between atoms: C_5  and  C_6 
REMARK    3  A    between atoms: C_10  and  C_11 
REMARK       I    between atoms: C_11  and  N_12 
REMARK    4  A    between atoms: N_12  and  N_13 
REMARK    5  A    between atoms: N_13  and  C_14 
ROOT
HETATM    1  C   UNL     1      42.793 -17.377   3.080  1.00  0.00     0.033 A 
HETATM    2  C   UNL     1      41.485 -17.034   3.374  1.00  0.00     0.104 A 
HETATM    3  N   UNL     1      41.026 -16.195   2.394  1.00  0.00    -0.360 N 
HETATM    4  H   UNL     1      40.098 -15.791   2.343  1.00  0.00     0.165 HD
HETATM    5  C   UNL     1      42.008 -15.968   1.456  1.00  0.00     0.102 A 
HETATM    6  C   UNL     1      43.123 -16.670   1.883  1.00  0.00     0.052 A 
ENDROOT
BRANCH   5   7
HETATM    7  C   UNL     1      41.766 -15.142   0.295  1.00  0.00     0.282 C 
HETATM    8  N   UNL     1      41.638 -15.816  -0.905  1.00  0.00    -0.280 N 
HETATM    9  H   UNL     1      42.039 -16.744  -1.029  1.00  0.00     0.184 HD
HETATM   10  O   UNL     1      41.679 -13.914   0.364  1.00  0.00    -0.265 OA
BRANCH   8  11
HETATM   11  N   UNL     1      41.590 -15.031  -2.087  1.00  0.00    -0.186 NA
HETATM   12  H   UNL     1      42.294 -15.359  -2.756  1.00  0.00     0.154 HD
BRANCH  11  13
HETATM   13  C   UNL     1      40.301 -15.055  -2.677  1.00  0.00     0.122 A 
HETATM   14  N   UNL     1      39.464 -14.007  -2.498  1.00  0.00    -0.223 NA
HETATM   15  C   UNL     1      38.271 -14.063  -3.123  1.00  0.00     0.128 A 
HETATM   16 CL   UNL     1      37.256 -12.710  -2.838  1.00  0.00    -0.062 Cl
HETATM   17  C   UNL     1      37.853 -15.101  -3.937  1.00  0.00     0.044 A 
HETATM   18  C   UNL     1      38.729 -16.162  -4.127  1.00  0.00     0.007 A 
HETATM   19  C   UNL     1      39.969 -16.137  -3.493  1.00  0.00     0.046 A 
ENDBRANCH  11  13
ENDBRANCH   8  11
ENDBRANCH   5   7
BRANCH   1  20
HETATM   20  C   UNL     1      43.693 -18.241   3.843  1.00  0.00     0.193 C 
HETATM   21  O   UNL     1      44.291 -17.828   4.834  1.00  0.00    -0.287 OA
BRANCH  20  22
HETATM   22  C   UNL     1      43.912 -19.650   3.420  1.00  0.00     0.015 A 
HETATM   23  C   UNL     1      44.584 -20.514   4.294  1.00  0.00     0.015 A 
HETATM   24  C   UNL     1      44.841 -21.834   3.916  1.00  0.00     0.001 A 
HETATM   25  C   UNL     1      44.439 -22.290   2.660  1.00  0.00     0.000 A 
HETATM   26  C   UNL     1      43.789 -21.428   1.778  1.00  0.00     0.001 A 
HETATM   27  C   UNL     1      43.531 -20.108   2.151  1.00  0.00     0.015 A 
ENDBRANCH  20  22
ENDBRANCH   1  20
TORSDOF 5
ENDMDL
MODEL 3
REMARK VINA RESULT:      -8.3      6.897      8.654
REMARK  5 active torsions:
REMARK  status: ('A' for Active; 'I' for Inactive)
REMARK    1  A    between atoms: C_4  and  C_5 
REMARK    2  A    between atoms: C_5  and  C_6 
REMARK    3  A    between atoms: C_10  and  C_11 
REMARK       I    between atoms: C_11  and  N_12 
REMARK    4  A    between atoms: N_12  and  N_13 
REMARK    5  A    between atoms: N_13  and  C_14 
ROOT
HETATM    1  C   UNL     1      43.551 -17.833   2.753  1.00  0.00     0.033 A 
HETATM    2  C   UNL     1      44.157 -17.488   1.558  1.00  0.00     0.104 A 
HETATM    3  N   UNL     1      43.237 -16.843   0.775  1.00  0.00    -0.360 N 
HETATM    4  H   UNL     1      43.401 -16.469  -0.152  1.00  0.00     0.165 HD
HETATM    5  C   UNL     1      42.026 -16.759   1.426  1.00  0.00     0.102 A 
HETATM    6  C   UNL     1      42.194 -17.397   2.644  1.00  0.00     0.052 A 
ENDROOT
BRANCH   5   7
HETATM    7  C   UNL     1      40.892 -16.090   0.828  1.00  0.00     0.282 C 
HETATM    8  N   UNL     1      40.989 -15.842  -0.528  1.00  0.00    -0.280 N 
HETATM    9  H   UNL     1      41.897 -15.790  -0.987  1.00  0.00     0.184 HD
HETATM   10  O   UNL     1      39.901 -15.759   1.481  1.00  0.00    -0.265 OA
BRANCH   8  11
HETATM   11  N   UNL     1      39.986 -15.022  -1.110  1.00  0.00    -0.186 NA
HETATM   12  H   UNL     1      39.347 -14.679  -0.385  1.00  0.00     0.154 HD
BRANCH  11  13
HETATM   13  C   UNL     1      40.552 -13.935  -1.823  1.00  0.00     0.122 A 
HETATM   14  N   UNL     1      41.520 -13.188  -1.246  1.00  0.00    -0.223 NA
HETATM   15  C   UNL     1      42.055 -12.198  -1.990  1.00  0.00     0.128 A 
HETATM   16 CL   UNL     1      43.265 -11.283  -1.189  1.00  0.00    -0.062 Cl
HETATM   17  C   UNL     1      41.696 -11.908  -3.294  1.00  0.00     0.044 A 
HETATM   18  C   UNL     1      40.713 -12.694  -3.880  1.00  0.00     0.007 A 
HETATM   19  C   UNL     1      40.137 -13.722  -3.139  1.00  0.00     0.046 A 
ENDBRANCH  11  13
ENDBRANCH   8  11
ENDBRANCH   5   7
BRANCH   1  20
HETATM   20  C   UNL     1      44.136 -18.542   3.891  1.00  0.00     0.193 C 
HETATM   21  O   UNL     1      44.451 -17.951   4.921  1.00  0.00    -0.287 OA
BRANCH  20  22
HETATM   22  C   UNL     1      44.375 -20.008   3.813  1.00  0.00     0.015 A 
HETATM   23  C   UNL     1      44.158 -20.657   2.591  1.00  0.00     0.015 A 
HETATM   24  C   UNL     1      44.337 -22.038   2.488  1.00  0.00     0.001 A 
HETATM   25  C   UNL     1      44.719 -22.776   3.609  1.00  0.00     0.000 A 
HETATM   26  C   UNL     1      44.915 -22.139   4.834  1.00  0.00     0.001 A 
HETATM   27  C   UNL     1      44.737 -20.758   4.940  1.00  0.00     0.015 A 
ENDBRANCH  20  22
ENDBRANCH   1  20
TORSDOF 5
ENDMDL
MODEL 4
REMARK VINA RESULT:      -8.3      6.011      8.295
REMARK  5 active torsions:
REMARK  status: ('A' for Active; 'I' for Inactive)
REMARK    1  A    between atoms: C_4  and  C_5 
REMARK    2  A    between atoms: C_5  and  C_6 
REMARK    3  A    between atoms: C_10  and  C_11 
REMARK       I    between atoms: C_11  and  N_12 
REMARK    4  A    between atoms: N_12  and  N_13 
REMARK    5  A    between atoms: N_13  and  C_14 
ROOT
HETATM    1  C   UNL     1      42.464 -17.701   3.946  1.00  0.00     0.033 A 
HETATM    2  C   UNL     1      41.462 -17.335   4.828  1.00  0.00     0.104 A 
HETATM    3  N   UNL     1      40.504 -16.645   4.134  1.00  0.00    -0.360 N 
HETATM    4  H   UNL     1      39.649 -16.261   4.519  1.00  0.00     0.165 HD
HETATM    5  C   UNL     1      40.855 -16.537   2.806  1.00  0.00     0.102 A 
HETATM    6  C   UNL     1      42.086 -17.161   2.678  1.00  0.00     0.052 A 
ENDROOT
BRANCH   5   7
HETATM    7  C   UNL     1      39.993 -15.882   1.848  1.00  0.00     0.282 C 
HETATM    8  N   UNL     1      40.537 -15.677   0.594  1.00  0.00    -0.280 N 
HETATM    9  H   UNL     1      41.547 -15.643   0.461  1.00  0.00     0.184 HD
HETATM   10  O   UNL     1      38.846 -15.527   2.126  1.00  0.00    -0.265 OA
BRANCH   8  11
HETATM   11  N   UNL     1      39.795 -14.871  -0.310  1.00  0.00    -0.186 NA
HETATM   12  H   UNL     1      39.225 -14.194   0.208  1.00  0.00     0.154 HD
BRANCH  11  13
HETATM   13  C   UNL     1      40.644 -14.202  -1.227  1.00  0.00     0.122 A 
HETATM   14  N   UNL     1      41.421 -13.181  -0.798  1.00  0.00    -0.223 NA
HETATM   15  C   UNL     1      42.243 -12.615  -1.704  1.00  0.00     0.128 A 
HETATM   16 CL   UNL     1      43.185 -11.318  -1.094  1.00  0.00    -0.062 Cl
HETATM   17  C   UNL     1      42.357 -13.012  -3.024  1.00  0.00     0.044 A 
HETATM   18  C   UNL     1      41.567 -14.073  -3.447  1.00  0.00     0.007 A 
HETATM   19  C   UNL     1      40.703 -14.678  -2.538  1.00  0.00     0.046 A 
ENDBRANCH  11  13
ENDBRANCH   8  11
ENDBRANCH   5   7
BRANCH   1  20
HETATM   20  C   UNL     1      43.693 -18.441   4.233  1.00  0.00     0.193 C 
HETATM   21  O   UNL     1      44.559 -17.981   4.973  1.00  0.00    -0.287 OA
BRANCH  20  22
HETATM   22  C   UNL     1      43.922 -19.774   3.614  1.00  0.00     0.015 A 
HETATM   23  C   UNL     1      44.549 -20.766   4.379  1.00  0.00     0.015 A 
HETATM   24  C   UNL     1      44.813 -22.019   3.821  1.00  0.00     0.001 A 
HETATM   25  C   UNL     1      44.464 -22.279   2.496  1.00  0.00     0.000 A 
HETATM   26  C   UNL     1      43.860 -21.288   1.723  1.00  0.00     0.001 A 
HETATM   27  C   UNL     1      43.594 -20.034   2.277  1.00  0.00     0.015 A 
ENDBRANCH  20  22
ENDBRANCH   1  20
TORSDOF 5
ENDMDL
MODEL 5
REMARK VINA RESULT:      -8.2      5.647      7.034
REMARK  5 active torsions:
REMARK  status: ('A' for Active; 'I' for Inactive)
REMARK    1  A    between atoms: C_4  and  C_5 
REMARK    2  A    between atoms: C_5  and  C_6 
REMARK    3  A    between atoms: C_10  and  C_11 
REMARK       I    between atoms: C_11  and  N_12 
REMARK    4  A    between atoms: N_12  and  N_13 
REMARK    5  A    between atoms: N_13  and  C_14 
ROOT
HETATM    1  C   UNL     1      43.063 -17.590   4.565  1.00  0.00     0.033 A 
HETATM    2  C   UNL     1      41.735 -17.644   4.952  1.00  0.00     0.104 A 
HETATM    3  N   UNL     1      41.115 -16.496   4.538  1.00  0.00    -0.360 N 
HETATM    4  H   UNL     1      40.138 -16.263   4.675  1.00  0.00     0.165 HD
HETATM    5  C   UNL     1      42.009 -15.674   3.888  1.00  0.00     0.102 A 
HETATM    6  C   UNL     1      43.231 -16.324   3.923  1.00  0.00     0.052 A 
ENDROOT
BRANCH   5   7
HETATM    7  C   UNL     1      41.596 -14.410   3.319  1.00  0.00     0.282 C 
HETATM    8  N   UNL     1      42.495 -13.820   2.452  1.00  0.00    -0.280 N 
HETATM    9  H   UNL     1      43.488 -14.048   2.493  1.00  0.00     0.184 HD
HETATM   10  O   UNL     1      40.512 -13.887   3.588  1.00  0.00    -0.265 OA
BRANCH   8  11
HETATM   11  N   UNL     1      42.211 -12.496   2.025  1.00  0.00    -0.186 NA
HETATM   12  H   UNL     1      42.871 -11.838   2.452  1.00  0.00     0.154 HD
BRANCH  11  13
HETATM   13  C   UNL     1      42.250 -12.385   0.612  1.00  0.00     0.122 A 
HETATM   14  N   UNL     1      42.795 -11.286   0.042  1.00  0.00    -0.223 NA
HETATM   15  C   UNL     1      42.849 -11.258  -1.305  1.00  0.00     0.128 A 
HETATM   16 CL   UNL     1      43.536  -9.828  -1.958  1.00  0.00    -0.062 Cl
HETATM   17  C   UNL     1      42.405 -12.272  -2.135  1.00  0.00     0.044 A 
HETATM   18  C   UNL     1      41.864 -13.402  -1.537  1.00  0.00     0.007 A 
HETATM   19  C   UNL     1      41.790 -13.462  -0.147  1.00  0.00     0.046 A 
ENDBRANCH  11  13
ENDBRANCH   8  11
ENDBRANCH   5   7
BRANCH   1  20
HETATM   20  C   UNL     1      44.112 -18.582   4.796  1.00  0.00     0.193 C 
HETATM   21  O   UNL     1      44.949 -18.435   5.683  1.00  0.00    -0.287 OA
BRANCH  20  22
HETATM   22  C   UNL     1      44.191 -19.796   3.941  1.00  0.00     0.015 A 
HETATM   23  C   UNL     1      43.690 -19.728   2.635  1.00  0.00     0.015 A 
HETATM   24  C   UNL     1      43.714 -20.857   1.814  1.00  0.00     0.001 A 
HETATM   25  C   UNL     1      44.225 -22.061   2.300  1.00  0.00     0.000 A 
HETATM   26  C   UNL     1      44.705 -22.141   3.607  1.00  0.00     0.001 A 
HETATM   27  C   UNL     1      44.683 -21.014   4.430  1.00  0.00     0.015 A 
ENDBRANCH  20  22
ENDBRANCH   1  20
TORSDOF 5
ENDMDL
MODEL 6
REMARK VINA RESULT:      -8.1      6.235      8.048
REMARK  5 active torsions:
REMARK  status: ('A' for Active; 'I' for Inactive)
REMARK    1  A    between atoms: C_4  and  C_5 
REMARK    2  A    between atoms: C_5  and  C_6 
REMARK    3  A    between atoms: C_10  and  C_11 
REMARK       I    between atoms: C_11  and  N_12 
REMARK    4  A    between atoms: N_12  and  N_13 
REMARK    5  A    between atoms: N_13  and  C_14 
ROOT
HETATM    1  C   UNL     1      43.133 -17.344   4.024  1.00  0.00     0.033 A 
HETATM    2  C   UNL     1      41.764 -17.272   4.211  1.00  0.00     0.104 A 
HETATM    3  N   UNL     1      41.301 -16.139   3.598  1.00  0.00    -0.360 N 
HETATM    4  H   UNL     1      40.335 -15.832   3.563  1.00  0.00     0.165 HD
HETATM    5  C   UNL     1      42.339 -15.451   3.011  1.00  0.00     0.102 A 
HETATM    6  C   UNL     1      43.490 -16.169   3.293  1.00  0.00     0.052 A 
ENDROOT
BRANCH   5   7
HETATM    7  C   UNL     1      42.112 -14.233   2.265  1.00  0.00     0.282 C 
HETATM    8  N   UNL     1      40.948 -14.194   1.522  1.00  0.00    -0.280 N 
HETATM    9  H   UNL     1      40.486 -15.052   1.226  1.00  0.00     0.184 HD
HETATM   10  O   UNL     1      42.903 -13.289   2.286  1.00  0.00    -0.265 OA
BRANCH   8  11
HETATM   11  N   UNL     1      40.785 -13.099   0.631  1.00  0.00    -0.186 NA
HETATM   12  H   UNL     1      41.330 -12.295   0.957  1.00  0.00     0.154 HD
BRANCH  11  13
HETATM   13  C   UNL     1      41.159 -13.444  -0.692  1.00  0.00     0.122 A 
HETATM   14  N   UNL     1      40.523 -14.458  -1.324  1.00  0.00    -0.223 NA
HETATM   15  C   UNL     1      40.887 -14.709  -2.598  1.00  0.00     0.128 A 
HETATM   16 CL   UNL     1      40.053 -16.017  -3.330  1.00  0.00    -0.062 Cl
HETATM   17  C   UNL     1      41.844 -13.999  -3.300  1.00  0.00     0.044 A 
HETATM   18  C   UNL     1      42.476 -12.949  -2.646  1.00  0.00     0.007 A 
HETATM   19  C   UNL     1      42.126 -12.665  -1.329  1.00  0.00     0.046 A 
ENDBRANCH  11  13
ENDBRANCH   8  11
ENDBRANCH   5   7
BRANCH   1  20
HETATM   20  C   UNL     1      44.057 -18.370   4.506  1.00  0.00     0.193 C 
HETATM   21  O   UNL     1      44.762 -18.183   5.495  1.00  0.00    -0.287 OA
BRANCH  20  22
HETATM   22  C   UNL     1      44.171 -19.668   3.789  1.00  0.00     0.015 A 
HETATM   23  C   UNL     1      43.673 -19.756   2.483  1.00  0.00     0.015 A 
HETATM   24  C   UNL     1      43.729 -20.968   1.791  1.00  0.00     0.001 A 
HETATM   25  C   UNL     1      44.269 -22.097   2.407  1.00  0.00     0.000 A 
HETATM   26  C   UNL     1      44.746 -22.021   3.715  1.00  0.00     0.001 A 
HETATM   27  C   UNL     1      44.692 -20.812   4.410  1.00  0.00     0.015 A 
ENDBRANCH  20  22
ENDBRANCH   1  20
TORSDOF 5
ENDMDL
MODEL 7
REMARK VINA RESULT:      -8.1      7.058      9.015
REMARK  5 active torsions:
REMARK  status: ('A' for Active; 'I' for Inactive)
REMARK    1  A    between atoms: C_4  and  C_5 
REMARK    2  A    between atoms: C_5  and  C_6 
REMARK    3  A    between atoms: C_10  and  C_11 
REMARK       I    between atoms: C_11  and  N_12 
REMARK    4  A    between atoms: N_12  and  N_13 
REMARK    5  A    between atoms: N_13  and  C_14 
ROOT
HETATM    1  C   UNL     1      41.251 -16.386   2.023  1.00  0.00     0.033 A 
HETATM    2  C   UNL     1      39.988 -15.859   1.821  1.00  0.00     0.104 A 
HETATM    3  N   UNL     1      39.915 -15.388   0.537  1.00  0.00    -0.360 N 
HETATM    4  H   UNL     1      39.106 -14.956   0.105  1.00  0.00     0.165 HD
HETATM    5  C   UNL     1      41.111 -15.586  -0.117  1.00  0.00     0.102 A 
HETATM    6  C   UNL     1      41.963 -16.176   0.802  1.00  0.00     0.052 A 
ENDROOT
BRANCH   5   7
HETATM    7  C   UNL     1      41.285 -15.209  -1.502  1.00  0.00     0.282 C 
HETATM    8  N   UNL     1      42.207 -14.207  -1.739  1.00  0.00    -0.280 N 
HETATM    9  H   UNL     1      42.462 -13.546  -1.007  1.00  0.00     0.184 HD
HETATM   10  O   UNL     1      40.654 -15.743  -2.416  1.00  0.00    -0.265 OA
BRANCH   8  11
HETATM   11  N   UNL     1      42.267 -13.681  -3.057  1.00  0.00    -0.186 NA
HETATM   12  H   UNL     1      41.426 -13.943  -3.580  1.00  0.00     0.154 HD
BRANCH  11  13
HETATM   13  C   UNL     1      42.422 -12.271  -3.048  1.00  0.00     0.122 A 
HETATM   14  N   UNL     1      42.831 -11.651  -1.917  1.00  0.00    -0.223 NA
HETATM   15  C   UNL     1      43.008 -10.316  -1.982  1.00  0.00     0.128 A 
HETATM   16 CL   UNL     1      43.510  -9.594  -0.509  1.00  0.00    -0.062 Cl
HETATM   17  C   UNL     1      42.818  -9.548  -3.116  1.00  0.00     0.044 A 
HETATM   18  C   UNL     1      42.416 -10.199  -4.275  1.00  0.00     0.007 A 
HETATM   19  C   UNL     1      42.220 -11.578  -4.242  1.00  0.00     0.046 A 
ENDBRANCH  11  13
ENDBRANCH   8  11
ENDBRANCH   5   7
BRANCH   1  20
HETATM   20  C   UNL     1      41.793 -16.991   3.240  1.00  0.00     0.193 C 
HETATM   21  O   UNL     1      41.553 -16.522   4.350  1.00  0.00    -0.287 OA
BRANCH  20  22
HETATM   22  C   UNL     1      42.664 -18.193   3.150  1.00  0.00     0.015 A 
HETATM   23  C   UNL     1      43.565 -18.444   4.193  1.00  0.00     0.015 A 
HETATM   24  C   UNL     1      44.425 -19.542   4.128  1.00  0.00     0.001 A 
HETATM   25  C   UNL     1      44.397 -20.384   3.016  1.00  0.00     0.000 A 
HETATM   26  C   UNL     1      43.517 -20.127   1.965  1.00  0.00     0.001 A 
HETATM   27  C   UNL     1      42.656 -19.029   2.026  1.00  0.00     0.015 A 
ENDBRANCH  20  22
ENDBRANCH   1  20
TORSDOF 5
ENDMDL
MODEL 8
REMARK VINA RESULT:      -8.1      3.216      3.696
REMARK  5 active torsions:
REMARK  status: ('A' for Active; 'I' for Inactive)
REMARK    1  A    between atoms: C_4  and  C_5 
REMARK    2  A    between atoms: C_5  and  C_6 
REMARK    3  A    between atoms: C_10  and  C_11 
REMARK       I    between atoms: C_11  and  N_12 
REMARK    4  A    between atoms: N_12  and  N_13 
REMARK    5  A    between atoms: N_13  and  C_14 
ROOT
HETATM    1  C   UNL     1      42.687 -17.644   5.059  1.00  0.00     0.033 A 
HETATM    2  C   UNL     1      41.440 -18.169   5.347  1.00  0.00     0.104 A 
HETATM    3  N   UNL     1      40.538 -17.141   5.407  1.00  0.00    -0.360 N 
HETATM    4  H   UNL     1      39.546 -17.228   5.592  1.00  0.00     0.165 HD
HETATM    5  C   UNL     1      41.165 -15.937   5.170  1.00  0.00     0.102 A 
HETATM    6  C   UNL     1      42.506 -16.228   4.983  1.00  0.00     0.052 A 
ENDROOT
BRANCH   5   7
HETATM    7  C   UNL     1      40.426 -14.694   5.141  1.00  0.00     0.282 C 
HETATM    8  N   UNL     1      40.048 -14.192   6.372  1.00  0.00    -0.280 N 
HETATM    9  H   UNL     1      39.963 -14.803   7.183  1.00  0.00     0.184 HD
HETATM   10  O   UNL     1      40.148 -14.116   4.089  1.00  0.00    -0.265 OA
BRANCH   8  11
HETATM   11  N   UNL     1      39.163 -13.082   6.374  1.00  0.00    -0.186 NA
HETATM   12  H   UNL     1      38.269 -13.345   6.800  1.00  0.00     0.154 HD
BRANCH  11  13
HETATM   13  C   UNL     1      39.724 -11.971   7.053  1.00  0.00     0.122 A 
HETATM   14  N   UNL     1      39.073 -11.436   8.112  1.00  0.00    -0.223 NA
HETATM   15  C   UNL     1      39.677 -10.412   8.748  1.00  0.00     0.128 A 
HETATM   16 CL   UNL     1      38.788  -9.773  10.069  1.00  0.00    -0.062 Cl
HETATM   17  C   UNL     1      40.910  -9.887   8.406  1.00  0.00     0.044 A 
HETATM   18  C   UNL     1      41.576 -10.458   7.330  1.00  0.00     0.007 A 
HETATM   19  C   UNL     1      40.979 -11.514   6.647  1.00  0.00     0.046 A 
ENDBRANCH  11  13
ENDBRANCH   8  11
ENDBRANCH   5   7
BRANCH   1  20
HETATM   20  C   UNL     1      43.955 -18.357   4.908  1.00  0.00     0.193 C 
HETATM   21  O   UNL     1      44.954 -18.029   5.545  1.00  0.00    -0.287 OA
BRANCH  20  22
HETATM   22  C   UNL     1      44.061 -19.498   3.961  1.00  0.00     0.015 A 
HETATM   23  C   UNL     1      43.506 -19.359   2.682  1.00  0.00     0.015 A 
HETATM   24  C   UNL     1      43.554 -20.421   1.777  1.00  0.00     0.001 A 
HETATM   25  C   UNL     1      44.143 -21.629   2.152  1.00  0.00     0.000 A 
HETATM   26  C   UNL     1      44.678 -21.781   3.431  1.00  0.00     0.001 A 
HETATM   27  C   UNL     1      44.632 -20.721   4.338  1.00  0.00     0.015 A 
ENDBRANCH  20  22
ENDBRANCH   1  20
TORSDOF 5
ENDMDL
MODEL 9
REMARK VINA RESULT:      -8.0      2.137      2.428
REMARK  5 active torsions:
REMARK  status: ('A' for Active; 'I' for Inactive)
REMARK    1  A    between atoms: C_4  and  C_5 
REMARK    2  A    between atoms: C_5  and  C_6 
REMARK    3  A    between atoms: C_10  and  C_11 
REMARK       I    between atoms: C_11  and  N_12 
REMARK    4  A    between atoms: N_12  and  N_13 
REMARK    5  A    between atoms: N_13  and  C_14 
ROOT
HETATM    1  C   UNL     1      41.748 -16.356   4.430  1.00  0.00     0.033 A 
HETATM    2  C   UNL     1      41.013 -16.472   5.596  1.00  0.00     0.104 A 
HETATM    3  N   UNL     1      41.023 -15.262   6.237  1.00  0.00    -0.360 N 
HETATM    4  H   UNL     1      40.559 -15.047   7.112  1.00  0.00     0.165 HD
HETATM    5  C   UNL     1      41.758 -14.344   5.520  1.00  0.00     0.102 A 
HETATM    6  C   UNL     1      42.242 -15.015   4.410  1.00  0.00     0.052 A 
ENDROOT
BRANCH   5   7
HETATM    7  C   UNL     1      41.894 -12.974   5.964  1.00  0.00     0.282 C 
HETATM    8  N   UNL     1      42.679 -12.783   7.085  1.00  0.00    -0.280 N 
HETATM    9  H   UNL     1      42.838 -13.539   7.749  1.00  0.00     0.184 HD
HETATM   10  O   UNL     1      41.347 -12.035   5.384  1.00  0.00    -0.265 OA
BRANCH   8  11
HETATM   11  N   UNL     1      42.682 -11.484   7.660  1.00  0.00    -0.186 NA
HETATM   12  H   UNL     1      41.731 -11.219   7.936  1.00  0.00     0.154 HD
BRANCH  11  13
HETATM   13  C   UNL     1      43.558 -11.409   8.772  1.00  0.00     0.122 A 
HETATM   14  N   UNL     1      43.217 -10.655   9.842  1.00  0.00    -0.223 NA
HETATM   15  C   UNL     1      44.066 -10.660  10.890  1.00  0.00     0.128 A 
HETATM   16 CL   UNL     1      43.578  -9.670  12.203  1.00  0.00    -0.062 Cl
HETATM   17  C   UNL     1      45.241 -11.388  10.951  1.00  0.00     0.044 A 
HETATM   18  C   UNL     1      45.570 -12.172   9.853  1.00  0.00     0.007 A 
HETATM   19  C   UNL     1      44.717 -12.186   8.753  1.00  0.00     0.046 A 
ENDBRANCH  11  13
ENDBRANCH   8  11
ENDBRANCH   5   7
BRANCH   1  20
HETATM   20  C   UNL     1      42.023 -17.388   3.430  1.00  0.00     0.193 C 
HETATM   21  O   UNL     1      41.390 -17.445   2.378  1.00  0.00    -0.287 OA
BRANCH  20  22
HETATM   22  C   UNL     1      43.079 -18.405   3.678  1.00  0.00     0.015 A 
HETATM   23  C   UNL     1      43.430 -19.273   2.636  1.00  0.00     0.015 A 
HETATM   24  C   UNL     1      44.391 -20.265   2.843  1.00  0.00     0.001 A 
HETATM   25  C   UNL     1      44.994 -20.401   4.094  1.00  0.00     0.000 A 
HETATM   26  C   UNL     1      44.633 -19.554   5.141  1.00  0.00     0.001 A 
HETATM   27  C   UNL     1      43.672 -18.561   4.938  1.00  0.00     0.015 A 
ENDBRANCH  20  22
ENDBRANCH   1  20
TORSDOF 5
ENDMDL
MODEL 10
REMARK VINA RESULT:      -8.0      4.118      4.734
REMARK  5 active torsions:
REMARK  status: ('A' for Active; 'I' for Inactive)
REMARK    1  A    between atoms: C_4  and  C_5 
REMARK    2  A    between atoms: C_5  and  C_6 
REMARK    3  A    between atoms: C_10  and  C_11 
REMARK       I    between atoms: C_11  and  N_12 
REMARK    4  A    between atoms: N_12  and  N_13 
REMARK    5  A    between atoms: N_13  and  C_14 
ROOT
HETATM    1  C   UNL     1      42.634 -17.344   2.922  1.00  0.00     0.033 A 
HETATM    2  C   UNL     1      41.267 -17.279   2.722  1.00  0.00     0.104 A 
HETATM    3  N   UNL     1      40.727 -16.456   3.675  1.00  0.00    -0.360 N 
HETATM    4  H   UNL     1      39.748 -16.215   3.769  1.00  0.00     0.165 HD
HETATM    5  C   UNL     1      41.712 -15.978   4.511  1.00  0.00     0.102 A 
HETATM    6  C   UNL     1      42.899 -16.545   4.077  1.00  0.00     0.052 A 
ENDROOT
BRANCH   5   7
HETATM    7  C   UNL     1      41.410 -15.057   5.584  1.00  0.00     0.282 C 
HETATM    8  N   UNL     1      40.073 -14.758   5.759  1.00  0.00    -0.280 N 
HETATM    9  H   UNL     1      39.407 -14.868   4.995  1.00  0.00     0.184 HD
HETATM   10  O   UNL     1      42.286 -14.566   6.299  1.00  0.00    -0.265 OA
BRANCH   8  11
HETATM   11  N   UNL     1      39.755 -13.717   6.672  1.00  0.00    -0.186 NA
HETATM   12  H   UNL     1      40.533 -13.570   7.323  1.00  0.00     0.154 HD
BRANCH  11  13
HETATM   13  C   UNL     1      39.441 -12.511   5.997  1.00  0.00     0.122 A 
HETATM   14  N   UNL     1      39.452 -11.342   6.678  1.00  0.00    -0.223 NA
HETATM   15  C   UNL     1      39.194 -10.221   5.974  1.00  0.00     0.128 A 
HETATM   16 CL   UNL     1      39.207  -8.780   6.903  1.00  0.00    -0.062 Cl
HETATM   17  C   UNL     1      38.937 -10.184   4.615  1.00  0.00     0.044 A 
HETATM   18  C   UNL     1      38.948 -11.388   3.925  1.00  0.00     0.007 A 
HETATM   19  C   UNL     1      39.207 -12.565   4.622  1.00  0.00     0.046 A 
ENDBRANCH  11  13
ENDBRANCH   8  11
ENDBRANCH   5   7
BRANCH   1  20
HETATM   20  C   UNL     1      43.623 -18.105   2.159  1.00  0.00     0.193 C 
HETATM   21  O   UNL     1      44.177 -17.626   1.172  1.00  0.00    -0.287 OA
BRANCH  20  22
HETATM   22  C   UNL     1      43.969 -19.494   2.563  1.00  0.00     0.015 A 
HETATM   23  C   UNL     1      43.667 -20.541   1.683  1.00  0.00     0.015 A 
HETATM   24  C   UNL     1      43.944 -21.861   2.043  1.00  0.00     0.001 A 
HETATM   25  C   UNL     1      44.511 -22.140   3.287  1.00  0.00     0.000 A 
HETATM   26  C   UNL     1      44.794 -21.104   4.176  1.00  0.00     0.001 A 
HETATM   27  C   UNL     1      44.518 -19.782   3.820  1.00  0.00     0.015 A 
ENDBRANCH  20  22
ENDBRANCH   1  20
TORSDOF 5
ENDMDL
