MODEL 1
REMARK VINA RESULT:      -8.4      0.000      0.000
REMARK  5 active torsions:
REMARK  status: ('A' for Active; 'I' for Inactive)
REMARK    1  A    between atoms: C_4  and  N_5 
REMARK    2  A    between atoms: C_9  and  C_10 
REMARK    3  A    between atoms: C_13  and  O_14 
REMARK    4  A    between atoms: C_17  and  C_18 
REMARK       I    between atoms: C_18  and  N_19 
REMARK    5  A    between atoms: N_19  and  C_20 
ROOT
HETATM    1  N   UNL     1      41.746 -14.006   3.740  1.00  0.00    -0.292 N 
HETATM    2  C   UNL     1      43.117 -14.210   4.014  1.00  0.00     0.179 C 
HETATM    3  S   UNL     1      43.973 -13.809   5.406  1.00  0.00    -0.040 SA
HETATM    4  N   UNL     1      43.855 -14.804   3.027  1.00  0.00    -0.354 N 
HETATM    5  C   UNL     1      43.305 -15.644   1.987  1.00  0.00     0.158 C 
HETATM    6  C   UNL     1      41.899 -15.229   1.688  1.00  0.00     0.060 C 
HETATM    7  C   UNL     1      41.161 -14.472   2.535  1.00  0.00     0.030 C 
HETATM    8  C   UNL     1      39.720 -14.089   2.252  1.00  0.00     0.070 C 
HETATM    9  H   UNL     1      44.813 -14.995   3.294  1.00  0.00     0.163 HD
ENDROOT
BRANCH   6  10
HETATM   10  C   UNL     1      41.392 -15.748   0.380  1.00  0.00     0.257 C 
HETATM   11  N   UNL     1      41.500 -14.846  -0.656  1.00  0.00    -0.306 N 
HETATM   12  H   UNL     1      41.926 -13.947  -0.491  1.00  0.00     0.170 HD
HETATM   13  O   UNL     1      40.970 -16.895   0.312  1.00  0.00    -0.267 OA
BRANCH  11  14
HETATM   14  C   UNL     1      40.871 -15.016  -1.878  1.00  0.00     0.160 A 
HETATM   15  N   UNL     1      41.428 -15.526  -2.980  1.00  0.00    -0.110 NA
HETATM   16  O   UNL     1      40.429 -15.599  -3.927  1.00  0.00    -0.216 OA
HETATM   17  C   UNL     1      39.270 -15.139  -3.394  1.00  0.00     0.078 A 
HETATM   18  C   UNL     1      38.083 -15.209  -4.263  1.00  0.00     0.079 C 
HETATM   19  C   UNL     1      39.504 -14.721  -2.108  1.00  0.00     0.087 A 
ENDBRANCH  11  14
ENDBRANCH   6  10
BRANCH   5  20
HETATM   20  C   UNL     1      43.514 -17.105   2.358  1.00  0.00    -0.031 A 
HETATM   21  C   UNL     1      43.300 -17.580   3.663  1.00  0.00     0.012 A 
HETATM   22  C   UNL     1      43.515 -18.924   3.979  1.00  0.00     0.037 A 
HETATM   23  C   UNL     1      43.956 -19.800   2.993  1.00  0.00     0.065 A 
HETATM   24  C   UNL     1      44.188 -19.353   1.700  1.00  0.00     0.037 A 
HETATM   25  C   UNL     1      43.969 -18.011   1.382  1.00  0.00     0.012 A 
BRANCH  23  26
HETATM   26  O   UNL     1      44.175 -21.119   3.258  1.00  0.00    -0.361 OA
HETATM   27  H   UNL     1      44.188 -21.601   2.417  1.00  0.00     0.217 HD
ENDBRANCH  23  26
ENDBRANCH   5  20
BRANCH   1  28
HETATM   28  C   UNL     1      40.990 -13.187   4.653  1.00  0.00     0.048 A 
HETATM   29  C   UNL     1      41.014 -11.792   4.460  1.00  0.00     0.037 A 
HETATM   30  C   UNL     1      40.317 -10.929   5.313  1.00  0.00    -0.060 A 
HETATM   31  C   UNL     1      40.391  -9.445   5.109  1.00  0.00     0.048 C 
HETATM   32  C   UNL     1      39.539 -11.476   6.333  1.00  0.00     0.007 A 
HETATM   33  C   UNL     1      39.505 -12.857   6.534  1.00  0.00     0.009 A 
HETATM   34  C   UNL     1      40.247 -13.729   5.718  1.00  0.00    -0.035 A 
HETATM   35  C   UNL     1      40.213 -15.194   6.053  1.00  0.00     0.050 C 
ENDBRANCH   1  28
TORSDOF 5
ENDMDL
MODEL 2
REMARK VINA RESULT:      -8.4      2.853      7.476
REMARK  5 active torsions:
REMARK  status: ('A' for Active; 'I' for Inactive)
REMARK    1  A    between atoms: C_4  and  N_5 
REMARK    2  A    between atoms: C_9  and  C_10 
REMARK    3  A    between atoms: C_13  and  O_14 
REMARK    4  A    between atoms: C_17  and  C_18 
REMARK       I    between atoms: C_18  and  N_19 
REMARK    5  A    between atoms: N_19  and  C_20 
ROOT
HETATM    1  N   UNL     1      40.763 -13.810   1.369  1.00  0.00    -0.292 N 
HETATM    2  C   UNL     1      41.269 -12.536   1.710  1.00  0.00     0.179 C 
HETATM    3  S   UNL     1      41.033 -11.072   0.915  1.00  0.00    -0.040 SA
HETATM    4  N   UNL     1      42.058 -12.471   2.826  1.00  0.00    -0.354 N 
HETATM    5  C   UNL     1      42.025 -13.429   3.908  1.00  0.00     0.158 C 
HETATM    6  C   UNL     1      41.617 -14.771   3.387  1.00  0.00     0.060 C 
HETATM    7  C   UNL     1      41.000 -14.939   2.192  1.00  0.00     0.030 C 
HETATM    8  C   UNL     1      40.546 -16.295   1.685  1.00  0.00     0.070 C 
HETATM    9  H   UNL     1      42.338 -11.530   3.073  1.00  0.00     0.163 HD
ENDROOT
BRANCH   6  10
HETATM   10  C   UNL     1      41.941 -15.894   4.321  1.00  0.00     0.257 C 
HETATM   11  N   UNL     1      43.272 -16.250   4.321  1.00  0.00    -0.306 N 
HETATM   12  H   UNL     1      43.925 -15.738   3.750  1.00  0.00     0.170 HD
HETATM   13  O   UNL     1      41.054 -16.373   5.014  1.00  0.00    -0.267 OA
BRANCH  11  14
HETATM   14  C   UNL     1      43.746 -17.413   4.908  1.00  0.00     0.160 A 
HETATM   15  N   UNL     1      43.957 -17.599   6.213  1.00  0.00    -0.110 NA
HETATM   16  O   UNL     1      44.335 -18.916   6.366  1.00  0.00    -0.216 OA
HETATM   17  C   UNL     1      44.344 -19.524   5.154  1.00  0.00     0.078 A 
HETATM   18  C   UNL     1      44.668 -20.961   5.150  1.00  0.00     0.079 C 
HETATM   19  C   UNL     1      44.014 -18.604   4.189  1.00  0.00     0.087 A 
ENDBRANCH  11  14
ENDBRANCH   6  10
BRANCH   5  20
HETATM   20  C   UNL     1      41.193 -12.867   5.051  1.00  0.00    -0.031 A 
HETATM   21  C   UNL     1      39.823 -13.147   5.183  1.00  0.00     0.012 A 
HETATM   22  C   UNL     1      39.079 -12.605   6.235  1.00  0.00     0.037 A 
HETATM   23  C   UNL     1      39.701 -11.769   7.156  1.00  0.00     0.065 A 
HETATM   24  C   UNL     1      41.050 -11.466   7.040  1.00  0.00     0.037 A 
HETATM   25  C   UNL     1      41.795 -12.011   5.992  1.00  0.00     0.012 A 
BRANCH  23  26
HETATM   26  O   UNL     1      39.014 -11.222   8.198  1.00  0.00    -0.361 OA
HETATM   27  H   UNL     1      38.117 -11.593   8.201  1.00  0.00     0.217 HD
ENDBRANCH  23  26
ENDBRANCH   5  20
BRANCH   1  28
HETATM   28  C   UNL     1      40.122 -13.959   0.086  1.00  0.00     0.048 A 
HETATM   29  C   UNL     1      40.936 -14.236  -1.029  1.00  0.00     0.037 A 
HETATM   30  C   UNL     1      40.389 -14.380  -2.309  1.00  0.00    -0.060 A 
HETATM   31  C   UNL     1      41.283 -14.636  -3.486  1.00  0.00     0.048 C 
HETATM   32  C   UNL     1      39.004 -14.308  -2.461  1.00  0.00     0.007 A 
HETATM   33  C   UNL     1      38.186 -14.037  -1.362  1.00  0.00     0.009 A 
HETATM   34  C   UNL     1      38.730 -13.832  -0.083  1.00  0.00    -0.035 A 
HETATM   35  C   UNL     1      37.783 -13.468   1.027  1.00  0.00     0.050 C 
ENDBRANCH   1  28
TORSDOF 5
ENDMDL
MODEL 3
REMARK VINA RESULT:      -8.3      2.907      6.417
REMARK  5 active torsions:
REMARK  status: ('A' for Active; 'I' for Inactive)
REMARK    1  A    between atoms: C_4  and  N_5 
REMARK    2  A    between atoms: C_9  and  C_10 
REMARK    3  A    between atoms: C_13  and  O_14 
REMARK    4  A    between atoms: C_17  and  C_18 
REMARK       I    between atoms: C_18  and  N_19 
REMARK    5  A    between atoms: N_19  and  C_20 
ROOT
HETATM    1  N   UNL     1      42.360 -16.950   3.696  1.00  0.00    -0.292 N 
HETATM    2  C   UNL     1      41.187 -16.941   4.485  1.00  0.00     0.179 C 
HETATM    3  S   UNL     1      40.751 -17.999   5.718  1.00  0.00    -0.040 SA
HETATM    4  N   UNL     1      40.279 -15.953   4.216  1.00  0.00    -0.354 N 
HETATM    5  C   UNL     1      40.602 -14.696   3.581  1.00  0.00     0.158 C 
HETATM    6  C   UNL     1      41.769 -14.876   2.661  1.00  0.00     0.060 C 
HETATM    7  C   UNL     1      42.609 -15.936   2.738  1.00  0.00     0.030 C 
HETATM    8  C   UNL     1      43.817 -16.095   1.834  1.00  0.00     0.070 C 
HETATM    9  H   UNL     1      39.490 -15.942   4.851  1.00  0.00     0.163 HD
ENDROOT
BRANCH   6  10
HETATM   10  C   UNL     1      41.920 -13.764   1.670  1.00  0.00     0.257 C 
HETATM   11  N   UNL     1      40.990 -13.794   0.655  1.00  0.00    -0.306 N 
HETATM   12  H   UNL     1      40.273 -14.504   0.656  1.00  0.00     0.170 HD
HETATM   13  O   UNL     1      42.794 -12.925   1.840  1.00  0.00    -0.267 OA
BRANCH  11  14
HETATM   14  C   UNL     1      41.095 -13.027  -0.493  1.00  0.00     0.160 A 
HETATM   15  N   UNL     1      40.474 -11.865  -0.716  1.00  0.00    -0.110 NA
HETATM   16  O   UNL     1      40.931 -11.403  -1.932  1.00  0.00    -0.216 OA
HETATM   17  C   UNL     1      41.832 -12.282  -2.437  1.00  0.00     0.078 A 
HETATM   18  C   UNL     1      42.467 -11.901  -3.710  1.00  0.00     0.079 C 
HETATM   19  C   UNL     1      41.945 -13.349  -1.580  1.00  0.00     0.087 A 
ENDBRANCH  11  14
ENDBRANCH   6  10
BRANCH   5  20
HETATM   20  C   UNL     1      40.740 -13.616   4.644  1.00  0.00    -0.031 A 
HETATM   21  C   UNL     1      41.961 -13.360   5.290  1.00  0.00     0.012 A 
HETATM   22  C   UNL     1      42.056 -12.372   6.275  1.00  0.00     0.037 A 
HETATM   23  C   UNL     1      40.927 -11.642   6.626  1.00  0.00     0.065 A 
HETATM   24  C   UNL     1      39.706 -11.885   6.013  1.00  0.00     0.037 A 
HETATM   25  C   UNL     1      39.611 -12.869   5.026  1.00  0.00     0.012 A 
BRANCH  23  26
HETATM   26  O   UNL     1      40.976 -10.668   7.578  1.00  0.00    -0.361 OA
HETATM   27  H   UNL     1      40.887 -11.087   8.449  1.00  0.00     0.217 HD
ENDBRANCH  23  26
ENDBRANCH   5  20
BRANCH   1  28
HETATM   28  C   UNL     1      43.227 -18.098   3.792  1.00  0.00     0.048 A 
HETATM   29  C   UNL     1      43.100 -19.103   2.814  1.00  0.00     0.037 A 
HETATM   30  C   UNL     1      43.896 -20.253   2.848  1.00  0.00    -0.060 A 
HETATM   31  C   UNL     1      43.713 -21.327   1.817  1.00  0.00     0.048 C 
HETATM   32  C   UNL     1      44.873 -20.366   3.837  1.00  0.00     0.007 A 
HETATM   33  C   UNL     1      45.011 -19.375   4.811  1.00  0.00     0.009 A 
HETATM   34  C   UNL     1      44.178 -18.243   4.820  1.00  0.00    -0.035 A 
HETATM   35  C   UNL     1      44.344 -17.265   5.950  1.00  0.00     0.050 C 
ENDBRANCH   1  28
TORSDOF 5
ENDMDL
MODEL 4
REMARK VINA RESULT:      -8.1      2.800      7.013
REMARK  5 active torsions:
REMARK  status: ('A' for Active; 'I' for Inactive)
REMARK    1  A    between atoms: C_4  and  N_5 
REMARK    2  A    between atoms: C_9  and  C_10 
REMARK    3  A    between atoms: C_13  and  O_14 
REMARK    4  A    between atoms: C_17  and  C_18 
REMARK       I    between atoms: C_18  and  N_19 
REMARK    5  A    between atoms: N_19  and  C_20 
ROOT
HETATM    1  N   UNL     1      41.146 -12.940   0.044  1.00  0.00    -0.292 N 
HETATM    2  C   UNL     1      41.704 -11.833   0.723  1.00  0.00     0.179 C 
HETATM    3  S   UNL     1      41.604 -10.204   0.319  1.00  0.00    -0.040 SA
HETATM    4  N   UNL     1      42.423 -12.111   1.854  1.00  0.00    -0.354 N 
HETATM    5  C   UNL     1      42.266 -13.305   2.652  1.00  0.00     0.158 C 
HETATM    6  C   UNL     1      41.813 -14.439   1.786  1.00  0.00     0.060 C 
HETATM    7  C   UNL     1      41.264 -14.255   0.561  1.00  0.00     0.030 C 
HETATM    8  C   UNL     1      40.765 -15.402  -0.297  1.00  0.00     0.070 C 
HETATM    9  H   UNL     1      42.742 -11.285   2.346  1.00  0.00     0.163 HD
ENDROOT
BRANCH   6  10
HETATM   10  C   UNL     1      42.012 -15.782   2.415  1.00  0.00     0.257 C 
HETATM   11  N   UNL     1      43.309 -16.241   2.348  1.00  0.00    -0.306 N 
HETATM   12  H   UNL     1      44.022 -15.662   1.933  1.00  0.00     0.170 HD
HETATM   13  O   UNL     1      41.064 -16.338   2.953  1.00  0.00    -0.267 OA
BRANCH  11  14
HETATM   14  C   UNL     1      43.666 -17.549   2.633  1.00  0.00     0.160 A 
HETATM   15  N   UNL     1      44.033 -18.016   3.830  1.00  0.00    -0.110 NA
HETATM   16  O   UNL     1      44.207 -19.375   3.684  1.00  0.00    -0.216 OA
HETATM   17  C   UNL     1      43.939 -19.728   2.403  1.00  0.00     0.078 A 
HETATM   18  C   UNL     1      44.019 -21.166   2.095  1.00  0.00     0.079 C 
HETATM   19  C   UNL     1      43.627 -18.601   1.684  1.00  0.00     0.087 A 
ENDBRANCH  11  14
ENDBRANCH   6  10
BRANCH   5  20
HETATM   20  C   UNL     1      41.398 -12.991   3.862  1.00  0.00    -0.031 A 
HETATM   21  C   UNL     1      39.995 -12.978   3.788  1.00  0.00     0.012 A 
HETATM   22  C   UNL     1      39.223 -12.671   4.912  1.00  0.00     0.037 A 
HETATM   23  C   UNL     1      39.850 -12.364   6.114  1.00  0.00     0.065 A 
HETATM   24  C   UNL     1      41.235 -12.357   6.209  1.00  0.00     0.037 A 
HETATM   25  C   UNL     1      42.008 -12.668   5.088  1.00  0.00     0.012 A 
BRANCH  23  26
HETATM   26  O   UNL     1      39.135 -12.062   7.234  1.00  0.00    -0.361 OA
HETATM   27  H   UNL     1      39.582 -12.459   7.998  1.00  0.00     0.217 HD
ENDBRANCH  23  26
ENDBRANCH   5  20
BRANCH   1  28
HETATM   28  C   UNL     1      40.579 -12.714  -1.261  1.00  0.00     0.048 A 
HETATM   29  C   UNL     1      39.185 -12.539  -1.352  1.00  0.00     0.037 A 
HETATM   30  C   UNL     1      38.558 -12.329  -2.586  1.00  0.00    -0.060 A 
HETATM   31  C   UNL     1      37.067 -12.185  -2.659  1.00  0.00     0.048 C 
HETATM   32  C   UNL     1      39.347 -12.231  -3.732  1.00  0.00     0.007 A 
HETATM   33  C   UNL     1      40.731 -12.400  -3.655  1.00  0.00     0.009 A 
HETATM   34  C   UNL     1      41.364 -12.669  -2.429  1.00  0.00    -0.035 A 
HETATM   35  C   UNL     1      42.847 -12.914  -2.450  1.00  0.00     0.050 C 
ENDBRANCH   1  28
TORSDOF 5
ENDMDL
MODEL 5
REMARK VINA RESULT:      -8.1      2.765      6.224
REMARK  5 active torsions:
REMARK  status: ('A' for Active; 'I' for Inactive)
REMARK    1  A    between atoms: C_4  and  N_5 
REMARK    2  A    between atoms: C_9  and  C_10 
REMARK    3  A    between atoms: C_13  and  O_14 
REMARK    4  A    between atoms: C_17  and  C_18 
REMARK       I    between atoms: C_18  and  N_19 
REMARK    5  A    between atoms: N_19  and  C_20 
ROOT
HETATM    1  N   UNL     1      42.287 -16.226   4.376  1.00  0.00    -0.292 N 
HETATM    2  C   UNL     1      41.042 -16.207   5.044  1.00  0.00     0.179 C 
HETATM    3  S   UNL     1      40.596 -17.026   6.444  1.00  0.00    -0.040 SA
HETATM    4  N   UNL     1      40.063 -15.431   4.486  1.00  0.00    -0.354 N 
HETATM    5  C   UNL     1      40.308 -14.306   3.612  1.00  0.00     0.158 C 
HETATM    6  C   UNL     1      41.582 -14.519   2.855  1.00  0.00     0.060 C 
HETATM    7  C   UNL     1      42.523 -15.415   3.237  1.00  0.00     0.030 C 
HETATM    8  C   UNL     1      43.833 -15.599   2.495  1.00  0.00     0.070 C 
HETATM    9  H   UNL     1      39.213 -15.391   5.035  1.00  0.00     0.163 HD
ENDROOT
BRANCH   6  10
HETATM   10  C   UNL     1      41.713 -13.635   1.655  1.00  0.00     0.257 C 
HETATM   11  N   UNL     1      40.899 -13.998   0.605  1.00  0.00    -0.306 N 
HETATM   12  H   UNL     1      40.265 -14.775   0.711  1.00  0.00     0.170 HD
HETATM   13  O   UNL     1      42.471 -12.675   1.698  1.00  0.00    -0.267 OA
BRANCH  11  14
HETATM   14  C   UNL     1      41.037 -13.486  -0.675  1.00  0.00     0.160 A 
HETATM   15  N   UNL     1      42.096 -13.651  -1.472  1.00  0.00    -0.110 NA
HETATM   16  O   UNL     1      41.777 -13.061  -2.676  1.00  0.00    -0.216 OA
HETATM   17  C   UNL     1      40.524 -12.546  -2.606  1.00  0.00     0.078 A 
HETATM   18  C   UNL     1      40.005 -11.931  -3.839  1.00  0.00     0.079 C 
HETATM   19  C   UNL     1      40.025 -12.756  -1.344  1.00  0.00     0.087 A 
ENDBRANCH  11  14
ENDBRANCH   6  10
BRANCH   5  20
HETATM   20  C   UNL     1      40.205 -13.016   4.412  1.00  0.00    -0.031 A 
HETATM   21  C   UNL     1      39.157 -12.101   4.217  1.00  0.00     0.012 A 
HETATM   22  C   UNL     1      39.096 -10.915   4.955  1.00  0.00     0.037 A 
HETATM   23  C   UNL     1      40.090 -10.633   5.885  1.00  0.00     0.065 A 
HETATM   24  C   UNL     1      41.143 -11.514   6.087  1.00  0.00     0.037 A 
HETATM   25  C   UNL     1      41.202 -12.701   5.353  1.00  0.00     0.012 A 
BRANCH  23  26
HETATM   26  O   UNL     1      40.066  -9.491   6.628  1.00  0.00    -0.361 OA
HETATM   27  H   UNL     1      40.747  -8.890   6.285  1.00  0.00     0.217 HD
ENDBRANCH  23  26
ENDBRANCH   5  20
BRANCH   1  28
HETATM   28  C   UNL     1      43.264 -17.198   4.799  1.00  0.00     0.048 A 
HETATM   29  C   UNL     1      43.363 -18.394   4.063  1.00  0.00     0.037 A 
HETATM   30  C   UNL     1      44.277 -19.393   4.419  1.00  0.00    -0.060 A 
HETATM   31  C   UNL     1      44.336 -20.674   3.642  1.00  0.00     0.048 C 
HETATM   32  C   UNL     1      45.142 -19.161   5.489  1.00  0.00     0.007 A 
HETATM   33  C   UNL     1      45.055 -17.978   6.225  1.00  0.00     0.009 A 
HETATM   34  C   UNL     1      44.102 -16.994   5.911  1.00  0.00    -0.035 A 
HETATM   35  C   UNL     1      44.026 -15.787   6.804  1.00  0.00     0.050 C 
ENDBRANCH   1  28
TORSDOF 5
ENDMDL
MODEL 6
REMARK VINA RESULT:      -7.9      2.590      5.984
REMARK  5 active torsions:
REMARK  status: ('A' for Active; 'I' for Inactive)
REMARK    1  A    between atoms: C_4  and  N_5 
REMARK    2  A    between atoms: C_9  and  C_10 
REMARK    3  A    between atoms: C_13  and  O_14 
REMARK    4  A    between atoms: C_17  and  C_18 
REMARK       I    between atoms: C_18  and  N_19 
REMARK    5  A    between atoms: N_19  and  C_20 
ROOT
HETATM    1  N   UNL     1      42.258 -16.525   3.914  1.00  0.00    -0.292 N 
HETATM    2  C   UNL     1      40.990 -16.320   4.503  1.00  0.00     0.179 C 
HETATM    3  S   UNL     1      40.552 -16.488   6.119  1.00  0.00    -0.040 SA
HETATM    4  N   UNL     1      39.980 -15.942   3.662  1.00  0.00    -0.354 N 
HETATM    5  C   UNL     1      40.177 -15.289   2.388  1.00  0.00     0.158 C 
HETATM    6  C   UNL     1      41.490 -15.704   1.801  1.00  0.00     0.060 C 
HETATM    7  C   UNL     1      42.478 -16.269   2.536  1.00  0.00     0.030 C 
HETATM    8  C   UNL     1      43.825 -16.649   1.950  1.00  0.00     0.070 C 
HETATM    9  H   UNL     1      39.109 -15.737   4.137  1.00  0.00     0.163 HD
ENDROOT
BRANCH   6  10
HETATM   10  C   UNL     1      41.603 -15.417   0.337  1.00  0.00     0.257 C 
HETATM   11  N   UNL     1      41.788 -14.083   0.045  1.00  0.00    -0.306 N 
HETATM   12  H   UNL     1      41.869 -13.415   0.796  1.00  0.00     0.170 HD
HETATM   13  O   UNL     1      41.562 -16.344  -0.461  1.00  0.00    -0.267 OA
BRANCH  11  14
HETATM   14  C   UNL     1      41.665 -13.563  -1.233  1.00  0.00     0.160 A 
HETATM   15  N   UNL     1      40.613 -13.718  -2.042  1.00  0.00    -0.110 NA
HETATM   16  O   UNL     1      40.869 -12.963  -3.167  1.00  0.00    -0.216 OA
HETATM   17  C   UNL     1      42.070 -12.348  -3.032  1.00  0.00     0.078 A 
HETATM   18  C   UNL     1      42.465 -11.448  -4.128  1.00  0.00     0.079 C 
HETATM   19  C   UNL     1      42.634 -12.725  -1.838  1.00  0.00     0.087 A 
ENDBRANCH  11  14
ENDBRANCH   6  10
BRANCH   5  20
HETATM   20  C   UNL     1      39.953 -13.793   2.550  1.00  0.00    -0.031 A 
HETATM   21  C   UNL     1      38.896 -13.125   1.908  1.00  0.00     0.012 A 
HETATM   22  C   UNL     1      38.722 -11.746   2.062  1.00  0.00     0.037 A 
HETATM   23  C   UNL     1      39.613 -11.026   2.850  1.00  0.00     0.065 A 
HETATM   24  C   UNL     1      40.673 -11.660   3.483  1.00  0.00     0.037 A 
HETATM   25  C   UNL     1      40.844 -13.038   3.334  1.00  0.00     0.012 A 
BRANCH  23  26
HETATM   26  O   UNL     1      39.478  -9.681   3.029  1.00  0.00    -0.361 OA
HETATM   27  H   UNL     1      40.324  -9.330   3.350  1.00  0.00     0.217 HD
ENDBRANCH  23  26
ENDBRANCH   5  20
BRANCH   1  28
HETATM   28  C   UNL     1      43.285 -17.137   4.719  1.00  0.00     0.048 A 
HETATM   29  C   UNL     1      43.498 -18.521   4.571  1.00  0.00     0.037 A 
HETATM   30  C   UNL     1      44.467 -19.191   5.327  1.00  0.00    -0.060 A 
HETATM   31  C   UNL     1      44.648 -20.673   5.179  1.00  0.00     0.048 C 
HETATM   32  C   UNL     1      45.272 -18.452   6.195  1.00  0.00     0.007 A 
HETATM   33  C   UNL     1      45.071 -17.079   6.348  1.00  0.00     0.009 A 
HETATM   34  C   UNL     1      44.063 -16.407   5.637  1.00  0.00    -0.035 A 
HETATM   35  C   UNL     1      43.866 -14.944   5.921  1.00  0.00     0.050 C 
ENDBRANCH   1  28
TORSDOF 5
ENDMDL
MODEL 7
REMARK VINA RESULT:      -7.8      2.666      6.030
REMARK  5 active torsions:
REMARK  status: ('A' for Active; 'I' for Inactive)
REMARK    1  A    between atoms: C_4  and  N_5 
REMARK    2  A    between atoms: C_9  and  C_10 
REMARK    3  A    between atoms: C_13  and  O_14 
REMARK    4  A    between atoms: C_17  and  C_18 
REMARK       I    between atoms: C_18  and  N_19 
REMARK    5  A    between atoms: N_19  and  C_20 
ROOT
HETATM    1  N   UNL     1      42.219 -17.341   2.967  1.00  0.00    -0.292 N 
HETATM    2  C   UNL     1      41.003 -17.142   3.659  1.00  0.00     0.179 C 
HETATM    3  S   UNL     1      40.612 -17.590   5.232  1.00  0.00    -0.040 SA
HETATM    4  N   UNL     1      40.005 -16.510   2.969  1.00  0.00    -0.354 N 
HETATM    5  C   UNL     1      40.219 -15.634   1.839  1.00  0.00     0.158 C 
HETATM    6  C   UNL     1      41.459 -16.044   1.106  1.00  0.00     0.060 C 
HETATM    7  C   UNL     1      42.410 -16.835   1.657  1.00  0.00     0.030 C 
HETATM    8  C   UNL     1      43.687 -17.213   0.930  1.00  0.00     0.070 C 
HETATM    9  H   UNL     1      39.179 -16.324   3.525  1.00  0.00     0.163 HD
ENDROOT
BRANCH   6  10
HETATM   10  C   UNL     1      41.544 -15.480  -0.277  1.00  0.00     0.257 C 
HETATM   11  N   UNL     1      42.016 -14.186  -0.321  1.00  0.00    -0.306 N 
HETATM   12  H   UNL     1      42.297 -13.728   0.532  1.00  0.00     0.170 HD
HETATM   13  O   UNL     1      41.240 -16.182  -1.231  1.00  0.00    -0.267 OA
BRANCH  11  14
HETATM   14  C   UNL     1      41.938 -13.388  -1.451  1.00  0.00     0.160 A 
HETATM   15  N   UNL     1      42.948 -13.107  -2.280  1.00  0.00    -0.110 NA
HETATM   16  O   UNL     1      42.413 -12.366  -3.312  1.00  0.00    -0.216 OA
HETATM   17  C   UNL     1      41.081 -12.208  -3.109  1.00  0.00     0.078 A 
HETATM   18  C   UNL     1      40.345 -11.487  -4.162  1.00  0.00     0.079 C 
HETATM   19  C   UNL     1      40.736 -12.806  -1.922  1.00  0.00     0.087 A 
ENDBRANCH  11  14
ENDBRANCH   6  10
BRANCH   5  20
HETATM   20  C   UNL     1      40.157 -14.187   2.304  1.00  0.00    -0.031 A 
HETATM   21  C   UNL     1      41.151 -13.625   3.123  1.00  0.00     0.012 A 
HETATM   22  C   UNL     1      41.061 -12.297   3.549  1.00  0.00     0.037 A 
HETATM   23  C   UNL     1      39.969 -11.526   3.166  1.00  0.00     0.065 A 
HETATM   24  C   UNL     1      38.967 -12.061   2.369  1.00  0.00     0.037 A 
HETATM   25  C   UNL     1      39.059 -13.387   1.939  1.00  0.00     0.012 A 
BRANCH  23  26
HETATM   26  O   UNL     1      39.844 -10.226   3.557  1.00  0.00    -0.361 OA
HETATM   27  H   UNL     1      40.552  -9.712   3.139  1.00  0.00     0.217 HD
ENDBRANCH  23  26
ENDBRANCH   5  20
BRANCH   1  28
HETATM   28  C   UNL     1      43.207 -18.197   3.575  1.00  0.00     0.048 A 
HETATM   29  C   UNL     1      43.879 -17.719   4.717  1.00  0.00     0.037 A 
HETATM   30  C   UNL     1      44.861 -18.485   5.355  1.00  0.00    -0.060 A 
HETATM   31  C   UNL     1      45.589 -17.936   6.546  1.00  0.00     0.048 C 
HETATM   32  C   UNL     1      45.127 -19.768   4.878  1.00  0.00     0.007 A 
HETATM   33  C   UNL     1      44.466 -20.255   3.749  1.00  0.00     0.009 A 
HETATM   34  C   UNL     1      43.520 -19.471   3.066  1.00  0.00    -0.035 A 
HETATM   35  C   UNL     1      42.914 -20.043   1.815  1.00  0.00     0.050 C 
ENDBRANCH   1  28
TORSDOF 5
ENDMDL
MODEL 8
REMARK VINA RESULT:      -7.8      3.049      7.358
REMARK  5 active torsions:
REMARK  status: ('A' for Active; 'I' for Inactive)
REMARK    1  A    between atoms: C_4  and  N_5 
REMARK    2  A    between atoms: C_9  and  C_10 
REMARK    3  A    between atoms: C_13  and  O_14 
REMARK    4  A    between atoms: C_17  and  C_18 
REMARK       I    between atoms: C_18  and  N_19 
REMARK    5  A    between atoms: N_19  and  C_20 
ROOT
HETATM    1  N   UNL     1      40.491 -12.636   0.840  1.00  0.00    -0.292 N 
HETATM    2  C   UNL     1      40.340 -11.365   1.440  1.00  0.00     0.179 C 
HETATM    3  S   UNL     1      39.276 -10.132   1.019  1.00  0.00    -0.040 SA
HETATM    4  N   UNL     1      41.165 -11.087   2.495  1.00  0.00    -0.354 N 
HETATM    5  C   UNL     1      41.796 -12.088   3.326  1.00  0.00     0.158 C 
HETATM    6  C   UNL     1      42.034 -13.333   2.531  1.00  0.00     0.060 C 
HETATM    7  C   UNL     1      41.394 -13.594   1.365  1.00  0.00     0.030 C 
HETATM    8  C   UNL     1      41.601 -14.877   0.583  1.00  0.00     0.070 C 
HETATM    9  H   UNL     1      40.974 -10.197   2.938  1.00  0.00     0.163 HD
ENDROOT
BRANCH   6  10
HETATM   10  C   UNL     1      43.026 -14.259   3.160  1.00  0.00     0.257 C 
HETATM   11  N   UNL     1      42.490 -15.466   3.552  1.00  0.00    -0.306 N 
HETATM   12  H   UNL     1      41.518 -15.663   3.370  1.00  0.00     0.170 HD
HETATM   13  O   UNL     1      44.197 -13.914   3.247  1.00  0.00    -0.267 OA
BRANCH  11  14
HETATM   14  C   UNL     1      43.156 -16.360   4.374  1.00  0.00     0.160 A 
HETATM   15  N   UNL     1      43.362 -16.212   5.686  1.00  0.00    -0.110 NA
HETATM   16  O   UNL     1      43.975 -17.368   6.120  1.00  0.00    -0.216 OA
HETATM   17  C   UNL     1      44.131 -18.215   5.072  1.00  0.00     0.078 A 
HETATM   18  C   UNL     1      44.717 -19.530   5.381  1.00  0.00     0.079 C 
HETATM   19  C   UNL     1      43.662 -17.608   3.933  1.00  0.00     0.087 A 
ENDBRANCH  11  14
ENDBRANCH   6  10
BRANCH   5  20
HETATM   20  C   UNL     1      40.999 -12.249   4.612  1.00  0.00    -0.031 A 
HETATM   21  C   UNL     1      39.893 -13.110   4.699  1.00  0.00     0.012 A 
HETATM   22  C   UNL     1      39.169 -13.228   5.889  1.00  0.00     0.037 A 
HETATM   23  C   UNL     1      39.542 -12.475   6.997  1.00  0.00     0.065 A 
HETATM   24  C   UNL     1      40.623 -11.606   6.933  1.00  0.00     0.037 A 
HETATM   25  C   UNL     1      41.350 -11.492   5.746  1.00  0.00     0.012 A 
BRANCH  23  26
HETATM   26  O   UNL     1      38.866 -12.561   8.177  1.00  0.00    -0.361 OA
HETATM   27  H   UNL     1      39.503 -12.766   8.880  1.00  0.00     0.217 HD
ENDBRANCH  23  26
ENDBRANCH   5  20
BRANCH   1  28
HETATM   28  C   UNL     1      39.806 -12.878  -0.405  1.00  0.00     0.048 A 
HETATM   29  C   UNL     1      40.390 -12.379  -1.585  1.00  0.00     0.037 A 
HETATM   30  C   UNL     1      39.778 -12.561  -2.831  1.00  0.00    -0.060 A 
HETATM   31  C   UNL     1      40.401 -11.985  -4.068  1.00  0.00     0.048 C 
HETATM   32  C   UNL     1      38.601 -13.307  -2.899  1.00  0.00     0.007 A 
HETATM   33  C   UNL     1      38.014 -13.810  -1.736  1.00  0.00     0.009 A 
HETATM   34  C   UNL     1      38.589 -13.582  -0.474  1.00  0.00    -0.035 A 
HETATM   35  C   UNL     1      37.849 -14.093   0.731  1.00  0.00     0.050 C 
ENDBRANCH   1  28
TORSDOF 5
ENDMDL
MODEL 9
REMARK VINA RESULT:      -7.7      2.387      5.624
REMARK  5 active torsions:
REMARK  status: ('A' for Active; 'I' for Inactive)
REMARK    1  A    between atoms: C_4  and  N_5 
REMARK    2  A    between atoms: C_9  and  C_10 
REMARK    3  A    between atoms: C_13  and  O_14 
REMARK    4  A    between atoms: C_17  and  C_18 
REMARK       I    between atoms: C_18  and  N_19 
REMARK    5  A    between atoms: N_19  and  C_20 
ROOT
HETATM    1  N   UNL     1      40.645 -12.461   3.746  1.00  0.00    -0.292 N 
HETATM    2  C   UNL     1      39.552 -12.512   2.852  1.00  0.00     0.179 C 
HETATM    3  S   UNL     1      38.317 -11.388   2.649  1.00  0.00    -0.040 SA
HETATM    4  N   UNL     1      39.473 -13.615   2.047  1.00  0.00    -0.354 N 
HETATM    5  C   UNL     1      40.598 -14.450   1.689  1.00  0.00     0.158 C 
HETATM    6  C   UNL     1      41.618 -14.425   2.784  1.00  0.00     0.060 C 
HETATM    7  C   UNL     1      41.646 -13.466   3.741  1.00  0.00     0.030 C 
HETATM    8  C   UNL     1      42.707 -13.415   4.824  1.00  0.00     0.070 C 
HETATM    9  H   UNL     1      38.717 -13.576   1.375  1.00  0.00     0.163 HD
ENDROOT
BRANCH   6  10
HETATM   10  C   UNL     1      42.605 -15.546   2.702  1.00  0.00     0.257 C 
HETATM   11  N   UNL     1      42.042 -16.794   2.851  1.00  0.00    -0.306 N 
HETATM   12  H   UNL     1      41.044 -16.881   2.965  1.00  0.00     0.170 HD
HETATM   13  O   UNL     1      43.782 -15.294   2.482  1.00  0.00    -0.267 OA
BRANCH  11  14
HETATM   14  C   UNL     1      42.787 -17.943   3.062  1.00  0.00     0.160 A 
HETATM   15  N   UNL     1      43.286 -18.347   4.234  1.00  0.00    -0.110 NA
HETATM   16  O   UNL     1      43.872 -19.574   4.008  1.00  0.00    -0.216 OA
HETATM   17  C   UNL     1      43.721 -19.912   2.703  1.00  0.00     0.078 A 
HETATM   18  C   UNL     1      44.240 -21.232   2.310  1.00  0.00     0.079 C 
HETATM   19  C   UNL     1      43.072 -18.893   2.050  1.00  0.00     0.087 A 
ENDBRANCH  11  14
ENDBRANCH   6  10
BRANCH   5  20
HETATM   20  C   UNL     1      41.087 -14.066   0.301  1.00  0.00    -0.031 A 
HETATM   21  C   UNL     1      41.826 -12.893   0.070  1.00  0.00     0.012 A 
HETATM   22  C   UNL     1      42.250 -12.557  -1.219  1.00  0.00     0.037 A 
HETATM   23  C   UNL     1      41.928 -13.388  -2.286  1.00  0.00     0.065 A 
HETATM   24  C   UNL     1      41.187 -14.545  -2.087  1.00  0.00     0.037 A 
HETATM   25  C   UNL     1      40.767 -14.884  -0.798  1.00  0.00     0.012 A 
BRANCH  23  26
HETATM   26  O   UNL     1      42.324 -13.099  -3.558  1.00  0.00    -0.361 OA
HETATM   27  H   UNL     1      42.022 -13.813  -4.142  1.00  0.00     0.217 HD
ENDBRANCH  23  26
ENDBRANCH   5  20
BRANCH   1  28
HETATM   28  C   UNL     1      40.640 -11.436   4.759  1.00  0.00     0.048 A 
HETATM   29  C   UNL     1      41.274 -10.214   4.463  1.00  0.00     0.037 A 
HETATM   30  C   UNL     1      41.323  -9.176   5.400  1.00  0.00    -0.060 A 
HETATM   31  C   UNL     1      42.039  -7.899   5.073  1.00  0.00     0.048 C 
HETATM   32  C   UNL     1      40.676  -9.343   6.624  1.00  0.00     0.007 A 
HETATM   33  C   UNL     1      40.041 -10.549   6.929  1.00  0.00     0.009 A 
HETATM   34  C   UNL     1      40.036 -11.619   6.017  1.00  0.00    -0.035 A 
HETATM   35  C   UNL     1      39.398 -12.907   6.458  1.00  0.00     0.050 C 
ENDBRANCH   1  28
TORSDOF 5
ENDMDL
MODEL 10
REMARK VINA RESULT:      -7.7      1.547      1.710
REMARK  5 active torsions:
REMARK  status: ('A' for Active; 'I' for Inactive)
REMARK    1  A    between atoms: C_4  and  N_5 
REMARK    2  A    between atoms: C_9  and  C_10 
REMARK    3  A    between atoms: C_13  and  O_14 
REMARK    4  A    between atoms: C_17  and  C_18 
REMARK       I    between atoms: C_18  and  N_19 
REMARK    5  A    between atoms: N_19  and  C_20 
ROOT
HETATM    1  N   UNL     1      41.902 -12.980   4.696  1.00  0.00    -0.292 N 
HETATM    2  C   UNL     1      43.130 -13.586   5.046  1.00  0.00     0.179 C 
HETATM    3  S   UNL     1      43.770 -13.833   6.582  1.00  0.00    -0.040 SA
HETATM    4  N   UNL     1      43.910 -14.027   4.012  1.00  0.00    -0.354 N 
HETATM    5  C   UNL     1      43.412 -14.364   2.698  1.00  0.00     0.158 C 
HETATM    6  C   UNL     1      42.196 -13.547   2.390  1.00  0.00     0.060 C 
HETATM    7  C   UNL     1      41.475 -12.914   3.346  1.00  0.00     0.030 C 
HETATM    8  C   UNL     1      40.217 -12.123   3.038  1.00  0.00     0.070 C 
HETATM    9  H   UNL     1      44.744 -14.517   4.312  1.00  0.00     0.163 HD
ENDROOT
BRANCH   6  10
HETATM   10  C   UNL     1      41.853 -13.519   0.934  1.00  0.00     0.257 C 
HETATM   11  N   UNL     1      40.872 -14.418   0.577  1.00  0.00    -0.306 N 
HETATM   12  H   UNL     1      40.436 -14.988   1.285  1.00  0.00     0.170 HD
HETATM   13  O   UNL     1      42.413 -12.716   0.201  1.00  0.00    -0.267 OA
BRANCH  11  14
HETATM   14  C   UNL     1      40.581 -14.740  -0.739  1.00  0.00     0.160 A 
HETATM   15  N   UNL     1      41.204 -15.666  -1.473  1.00  0.00    -0.110 NA
HETATM   16  O   UNL     1      40.540 -15.723  -2.680  1.00  0.00    -0.216 OA
HETATM   17  C   UNL     1      39.513 -14.837  -2.670  1.00  0.00     0.078 A 
HETATM   18  C   UNL     1      38.660 -14.818  -3.870  1.00  0.00     0.079 C 
HETATM   19  C   UNL     1      39.518 -14.160  -1.475  1.00  0.00     0.087 A 
ENDBRANCH  11  14
ENDBRANCH   6  10
BRANCH   5  20
HETATM   20  C   UNL     1      43.257 -15.873   2.591  1.00  0.00    -0.031 A 
HETATM   21  C   UNL     1      42.467 -16.607   3.492  1.00  0.00     0.012 A 
HETATM   22  C   UNL     1      42.355 -17.995   3.379  1.00  0.00     0.037 A 
HETATM   23  C   UNL     1      43.042 -18.660   2.370  1.00  0.00     0.065 A 
HETATM   24  C   UNL     1      43.840 -17.961   1.475  1.00  0.00     0.037 A 
HETATM   25  C   UNL     1      43.948 -16.572   1.584  1.00  0.00     0.012 A 
BRANCH  23  26
HETATM   26  O   UNL     1      42.958 -20.012   2.223  1.00  0.00    -0.361 OA
HETATM   27  H   UNL     1      43.831 -20.347   1.964  1.00  0.00     0.217 HD
ENDBRANCH  23  26
ENDBRANCH   5  20
BRANCH   1  28
HETATM   28  C   UNL     1      41.164 -12.305   5.733  1.00  0.00     0.048 A 
HETATM   29  C   UNL     1      41.582 -11.013   6.104  1.00  0.00     0.037 A 
HETATM   30  C   UNL     1      40.925 -10.298   7.112  1.00  0.00    -0.060 A 
HETATM   31  C   UNL     1      41.415  -8.939   7.516  1.00  0.00     0.048 C 
HETATM   32  C   UNL     1      39.798 -10.862   7.711  1.00  0.00     0.007 A 
HETATM   33  C   UNL     1      39.372 -12.142   7.350  1.00  0.00     0.009 A 
HETATM   34  C   UNL     1      40.060 -12.891   6.380  1.00  0.00    -0.035 A 
HETATM   35  C   UNL     1      39.578 -14.290   6.109  1.00  0.00     0.050 C 
ENDBRANCH   1  28
TORSDOF 5
ENDMDL
