MODEL 1
REMARK VINA RESULT:      -9.5      0.000      0.000
REMARK  5 active torsions:
REMARK  status: ('A' for Active; 'I' for Inactive)
REMARK    1  A    between atoms: C_5  and  C_6 
REMARK    2  A    between atoms: C_11  and  C_12 
REMARK    3  A    between atoms: C_12  and  N_13 
REMARK    4  A    between atoms: N_13  and  C_15 
REMARK    5  A    between atoms: N_18  and  C_19 
ROOT
HETATM    1  N   UNL     1      41.980 -15.218   6.190  1.00  0.00    -0.067 N 
HETATM    2  H   UNL     1      42.003 -14.989   7.195  1.00  0.00     0.280 HD
HETATM    3  C   UNL     1      40.793 -16.119   6.027  1.00  0.00     0.270 C 
ENDROOT
BRANCH   1   4
HETATM    4  C   UNL     1      43.299 -15.978   5.993  1.00  0.00     0.277 C 
BRANCH   4   5
HETATM    5  C   UNL     1      43.485 -17.064   6.994  1.00  0.00     0.016 A 
HETATM    6  C   UNL     1      43.756 -18.445   6.735  1.00  0.00     0.096 A 
HETATM    7  N   UNL     1      43.912 -19.124   7.875  1.00  0.00    -0.174 NA
HETATM    8  N   UNL     1      43.773 -18.223   8.847  1.00  0.00    -0.288 N 
HETATM    9  H   UNL     1      43.887 -18.533   9.810  1.00  0.00     0.188 HD
HETATM   10  C   UNL     1      43.500 -16.969   8.375  1.00  0.00     0.120 A 
BRANCH   6  11
HETATM   11  C   UNL     1      43.897 -19.126   5.453  1.00  0.00    -0.005 A 
HETATM   12  C   UNL     1      43.268 -18.637   4.304  1.00  0.00     0.014 A 
HETATM   13  C   UNL     1      43.402 -19.315   3.087  1.00  0.00     0.007 A 
HETATM   14  C   UNL     1      44.151 -20.497   3.012  1.00  0.00    -0.062 A 
HETATM   15  C   UNL     1      44.295 -21.232   1.710  1.00  0.00     0.048 C 
HETATM   16  C   UNL     1      44.785 -20.978   4.162  1.00  0.00     0.007 A 
HETATM   17  C   UNL     1      44.653 -20.302   5.377  1.00  0.00     0.014 A 
ENDBRANCH   6  11
ENDBRANCH   4   5
ENDBRANCH   1   4
BRANCH   1  18
HETATM   18  C   UNL     1      41.939 -13.877   5.447  1.00  0.00     0.190 C 
HETATM   19  C   UNL     1      43.225 -13.573   4.665  1.00  0.00     0.048 C 
HETATM   20  C   UNL     1      43.159 -13.893   3.175  1.00  0.00     0.099 C 
HETATM   21  N   UNL     1      41.911 -13.351   2.633  1.00  0.00    -0.268 NA
HETATM   22  C   UNL     1      40.715 -14.004   3.174  1.00  0.00     0.099 C 
HETATM   23  C   UNL     1      40.627 -13.708   4.668  1.00  0.00     0.048 C 
BRANCH  21  24
HETATM   24  C   UNL     1      41.902 -13.182   1.238  1.00  0.00     0.109 A 
HETATM   25  N   UNL     1      42.449 -12.083   0.691  1.00  0.00    -0.224 NA
HETATM   26  C   UNL     1      42.490 -11.997  -0.663  1.00  0.00     0.102 A 
HETATM   27  C   UNL     1      43.118 -10.791  -1.287  1.00  0.00     0.091 C 
HETATM   28  N   UNL     1      42.020 -12.953  -1.475  1.00  0.00    -0.348 N 
HETATM   29  H   UNL     1      42.097 -12.832  -2.484  1.00  0.00     0.167 HD
HETATM   30  C   UNL     1      41.469 -14.062  -0.959  1.00  0.00     0.009 A 
HETATM   31  C   UNL     1      40.975 -15.128  -1.883  1.00  0.00     0.068 C 
HETATM   32  C   UNL     1      41.398 -14.196   0.429  1.00  0.00     0.069 A 
ENDBRANCH  21  24
ENDBRANCH   1  18
TORSDOF 5
ENDMDL
MODEL 2
REMARK VINA RESULT:      -9.5      2.344      6.982
REMARK  5 active torsions:
REMARK  status: ('A' for Active; 'I' for Inactive)
REMARK    1  A    between atoms: C_5  and  C_6 
REMARK    2  A    between atoms: C_11  and  C_12 
REMARK    3  A    between atoms: C_12  and  N_13 
REMARK    4  A    between atoms: N_13  and  C_15 
REMARK    5  A    between atoms: N_18  and  C_19 
ROOT
HETATM    1  N   UNL     1      40.641 -14.166   0.986  1.00  0.00    -0.067 N 
HETATM    2  H   UNL     1      41.588 -13.989   1.352  1.00  0.00     0.280 HD
HETATM    3  C   UNL     1      40.538 -13.314  -0.243  1.00  0.00     0.270 C 
ENDROOT
BRANCH   1   4
HETATM    4  C   UNL     1      39.745 -13.639   2.116  1.00  0.00     0.277 C 
BRANCH   4   5
HETATM    5  C   UNL     1      40.396 -12.554   2.899  1.00  0.00     0.016 A 
HETATM    6  C   UNL     1      41.141 -12.689   4.114  1.00  0.00     0.096 A 
HETATM    7  N   UNL     1      41.624 -11.509   4.513  1.00  0.00    -0.174 NA
HETATM    8  N   UNL     1      41.235 -10.633   3.585  1.00  0.00    -0.288 N 
HETATM    9  H   UNL     1      41.529  -9.664   3.686  1.00  0.00     0.188 HD
HETATM   10  C   UNL     1      40.481 -11.205   2.599  1.00  0.00     0.120 A 
BRANCH   6  11
HETATM   11  C   UNL     1      41.427 -13.893   4.885  1.00  0.00    -0.005 A 
HETATM   12  C   UNL     1      40.396 -14.631   5.477  1.00  0.00     0.014 A 
HETATM   13  C   UNL     1      40.693 -15.774   6.227  1.00  0.00     0.007 A 
HETATM   14  C   UNL     1      42.021 -16.181   6.407  1.00  0.00    -0.062 A 
HETATM   15  C   UNL     1      42.346 -17.404   7.215  1.00  0.00     0.048 C 
HETATM   16  C   UNL     1      43.048 -15.444   5.806  1.00  0.00     0.007 A 
HETATM   17  C   UNL     1      42.753 -14.303   5.058  1.00  0.00     0.014 A 
ENDBRANCH   6  11
ENDBRANCH   4   5
ENDBRANCH   1   4
BRANCH   1  18
HETATM   18  C   UNL     1      40.534 -15.683   0.790  1.00  0.00     0.190 C 
HETATM   19  C   UNL     1      41.736 -16.291   0.054  1.00  0.00     0.048 C 
HETATM   20  C   UNL     1      42.783 -16.932   0.959  1.00  0.00     0.099 C 
HETATM   21  N   UNL     1      42.101 -17.788   1.933  1.00  0.00    -0.268 NA
HETATM   22  C   UNL     1      41.257 -17.038   2.869  1.00  0.00     0.099 C 
HETATM   23  C   UNL     1      40.118 -16.387   2.089  1.00  0.00     0.048 C 
BRANCH  21  24
HETATM   24  C   UNL     1      42.920 -18.756   2.536  1.00  0.00     0.109 A 
HETATM   25  N   UNL     1      43.202 -19.898   1.885  1.00  0.00    -0.224 NA
HETATM   26  C   UNL     1      44.060 -20.772   2.469  1.00  0.00     0.102 A 
HETATM   27  C   UNL     1      44.402 -22.036   1.745  1.00  0.00     0.091 C 
HETATM   28  N   UNL     1      44.642 -20.549   3.655  1.00  0.00    -0.348 N 
HETATM   29  H   UNL     1      45.290 -21.240   4.030  1.00  0.00     0.167 HD
HETATM   30  C   UNL     1      44.382 -19.418   4.329  1.00  0.00     0.009 A 
HETATM   31  C   UNL     1      45.063 -19.178   5.638  1.00  0.00     0.068 C 
HETATM   32  C   UNL     1      43.501 -18.489   3.772  1.00  0.00     0.069 A 
ENDBRANCH  21  24
ENDBRANCH   1  18
TORSDOF 5
ENDMDL
MODEL 3
REMARK VINA RESULT:      -9.3      1.802      2.925
REMARK  5 active torsions:
REMARK  status: ('A' for Active; 'I' for Inactive)
REMARK    1  A    between atoms: C_5  and  C_6 
REMARK    2  A    between atoms: C_11  and  C_12 
REMARK    3  A    between atoms: C_12  and  N_13 
REMARK    4  A    between atoms: N_13  and  C_15 
REMARK    5  A    between atoms: N_18  and  C_19 
ROOT
HETATM    1  N   UNL     1      41.541 -15.194   3.825  1.00  0.00    -0.067 N 
HETATM    2  H   UNL     1      41.940 -14.577   4.546  1.00  0.00     0.280 HD
HETATM    3  C   UNL     1      40.116 -14.753   3.683  1.00  0.00     0.270 C 
ENDROOT
BRANCH   1   4
HETATM    4  C   UNL     1      41.643 -16.579   4.480  1.00  0.00     0.277 C 
BRANCH   4   5
HETATM    5  C   UNL     1      42.799 -16.683   5.412  1.00  0.00     0.016 A 
HETATM    6  C   UNL     1      43.851 -17.653   5.383  1.00  0.00     0.096 A 
HETATM    7  N   UNL     1      44.749 -17.414   6.343  1.00  0.00    -0.174 NA
HETATM    8  N   UNL     1      44.320 -16.316   6.966  1.00  0.00    -0.288 N 
HETATM    9  H   UNL     1      44.886 -15.941   7.724  1.00  0.00     0.188 HD
HETATM   10  C   UNL     1      43.143 -15.842   6.456  1.00  0.00     0.120 A 
BRANCH   6  11
HETATM   11  C   UNL     1      44.042 -18.771   4.466  1.00  0.00    -0.005 A 
HETATM   12  C   UNL     1      43.727 -18.651   3.108  1.00  0.00     0.014 A 
HETATM   13  C   UNL     1      43.902 -19.740   2.248  1.00  0.00     0.007 A 
HETATM   14  C   UNL     1      44.376 -20.963   2.738  1.00  0.00    -0.062 A 
HETATM   15  C   UNL     1      44.561 -22.138   1.821  1.00  0.00     0.048 C 
HETATM   16  C   UNL     1      44.698 -21.076   4.095  1.00  0.00     0.007 A 
HETATM   17  C   UNL     1      44.524 -19.990   4.955  1.00  0.00     0.014 A 
ENDBRANCH   6  11
ENDBRANCH   4   5
ENDBRANCH   1   4
BRANCH   1  18
HETATM   18  C   UNL     1      42.439 -15.045   2.590  1.00  0.00     0.190 C 
HETATM   19  C   UNL     1      42.210 -16.134   1.533  1.00  0.00     0.048 C 
HETATM   20  C   UNL     1      41.308 -15.721   0.373  1.00  0.00     0.099 C 
HETATM   21  N   UNL     1      41.739 -14.407  -0.111  1.00  0.00    -0.268 NA
HETATM   22  C   UNL     1      41.542 -13.336   0.871  1.00  0.00     0.099 C 
HETATM   23  C   UNL     1      42.444 -13.600   2.073  1.00  0.00     0.048 C 
BRANCH  21  24
HETATM   24  C   UNL     1      41.308 -14.092  -1.410  1.00  0.00     0.109 A 
HETATM   25  N   UNL     1      40.225 -14.699  -1.925  1.00  0.00    -0.224 NA
HETATM   26  C   UNL     1      39.796 -14.308  -3.151  1.00  0.00     0.102 A 
HETATM   27  C   UNL     1      38.577 -14.958  -3.727  1.00  0.00     0.091 C 
HETATM   28  N   UNL     1      40.394 -13.346  -3.867  1.00  0.00    -0.348 N 
HETATM   29  H   UNL     1      40.010 -13.090  -4.776  1.00  0.00     0.167 HD
HETATM   30  C   UNL     1      41.477 -12.721  -3.380  1.00  0.00     0.009 A 
HETATM   31  C   UNL     1      42.111 -11.632  -4.184  1.00  0.00     0.068 C 
HETATM   32  C   UNL     1      41.960 -13.091  -2.124  1.00  0.00     0.069 A 
ENDBRANCH  21  24
ENDBRANCH   1  18
TORSDOF 5
ENDMDL
MODEL 4
REMARK VINA RESULT:      -9.3      1.666      2.578
REMARK  5 active torsions:
REMARK  status: ('A' for Active; 'I' for Inactive)
REMARK    1  A    between atoms: C_5  and  C_6 
REMARK    2  A    between atoms: C_11  and  C_12 
REMARK    3  A    between atoms: C_12  and  N_13 
REMARK    4  A    between atoms: N_13  and  C_15 
REMARK    5  A    between atoms: N_18  and  C_19 
ROOT
HETATM    1  N   UNL     1      41.644 -15.072   3.921  1.00  0.00    -0.067 N 
HETATM    2  H   UNL     1      42.020 -14.515   4.701  1.00  0.00     0.280 HD
HETATM    3  C   UNL     1      40.209 -14.656   3.806  1.00  0.00     0.270 C 
ENDROOT
BRANCH   1   4
HETATM    4  C   UNL     1      41.776 -16.509   4.446  1.00  0.00     0.277 C 
BRANCH   4   5
HETATM    5  C   UNL     1      42.914 -16.666   5.392  1.00  0.00     0.016 A 
HETATM    6  C   UNL     1      43.911 -17.692   5.387  1.00  0.00     0.096 A 
HETATM    7  N   UNL     1      44.810 -17.492   6.354  1.00  0.00    -0.174 NA
HETATM    8  N   UNL     1      44.435 -16.365   6.960  1.00  0.00    -0.288 N 
HETATM    9  H   UNL     1      45.013 -16.013   7.720  1.00  0.00     0.188 HD
HETATM   10  C   UNL     1      43.292 -15.833   6.432  1.00  0.00     0.120 A 
BRANCH   6  11
HETATM   11  C   UNL     1      44.051 -18.829   4.484  1.00  0.00    -0.005 A 
HETATM   12  C   UNL     1      44.591 -20.041   4.930  1.00  0.00     0.014 A 
HETATM   13  C   UNL     1      44.732 -21.114   4.044  1.00  0.00     0.007 A 
HETATM   14  C   UNL     1      44.354 -20.983   2.703  1.00  0.00    -0.062 A 
HETATM   15  C   UNL     1      44.507 -22.130   1.746  1.00  0.00     0.048 C 
HETATM   16  C   UNL     1      43.807 -19.772   2.263  1.00  0.00     0.007 A 
HETATM   17  C   UNL     1      43.665 -18.700   3.146  1.00  0.00     0.014 A 
ENDBRANCH   6  11
ENDBRANCH   4   5
ENDBRANCH   1   4
BRANCH   1  18
HETATM   18  C   UNL     1      42.547 -14.787   2.715  1.00  0.00     0.190 C 
HETATM   19  C   UNL     1      42.525 -15.899   1.657  1.00  0.00     0.048 C 
HETATM   20  C   UNL     1      41.608 -15.633   0.467  1.00  0.00     0.099 C 
HETATM   21  N   UNL     1      41.844 -14.269  -0.012  1.00  0.00    -0.268 NA
HETATM   22  C   UNL     1      41.451 -13.241   0.957  1.00  0.00     0.099 C 
HETATM   23  C   UNL     1      42.344 -13.359   2.189  1.00  0.00     0.048 C 
BRANCH  21  24
HETATM   24  C   UNL     1      41.412 -14.027  -1.326  1.00  0.00     0.109 A 
HETATM   25  N   UNL     1      41.931 -13.003  -2.026  1.00  0.00    -0.224 NA
HETATM   26  C   UNL     1      41.545 -12.852  -3.317  1.00  0.00     0.102 A 
HETATM   27  C   UNL     1      42.133 -11.732  -4.117  1.00  0.00     0.091 C 
HETATM   28  N   UNL     1      40.680 -13.674  -3.927  1.00  0.00    -0.348 N 
HETATM   29  H   UNL     1      40.445 -13.513  -4.906  1.00  0.00     0.167 HD
HETATM   30  C   UNL     1      40.145 -14.705  -3.256  1.00  0.00     0.009 A 
HETATM   31  C   UNL     1      39.203 -15.625  -3.963  1.00  0.00     0.068 C 
HETATM   32  C   UNL     1      40.508 -14.900  -1.921  1.00  0.00     0.069 A 
ENDBRANCH  21  24
ENDBRANCH   1  18
TORSDOF 5
ENDMDL
MODEL 5
REMARK VINA RESULT:      -9.1      1.725      3.007
REMARK  5 active torsions:
REMARK  status: ('A' for Active; 'I' for Inactive)
REMARK    1  A    between atoms: C_5  and  C_6 
REMARK    2  A    between atoms: C_11  and  C_12 
REMARK    3  A    between atoms: C_12  and  N_13 
REMARK    4  A    between atoms: N_13  and  C_15 
REMARK    5  A    between atoms: N_18  and  C_19 
ROOT
HETATM    1  N   UNL     1      40.669 -15.235   2.972  1.00  0.00    -0.067 N 
HETATM    2  H   UNL     1      40.533 -14.492   3.672  1.00  0.00     0.280 HD
HETATM    3  C   UNL     1      39.400 -15.252   2.176  1.00  0.00     0.270 C 
ENDROOT
BRANCH   1   4
HETATM    4  C   UNL     1      40.807 -16.491   3.844  1.00  0.00     0.277 C 
BRANCH   4   5
HETATM    5  C   UNL     1      41.930 -16.388   4.816  1.00  0.00     0.016 A 
HETATM    6  C   UNL     1      43.072 -17.244   4.915  1.00  0.00     0.096 A 
HETATM    7  N   UNL     1      43.903 -16.824   5.873  1.00  0.00    -0.174 NA
HETATM    8  N   UNL     1      43.344 -15.722   6.372  1.00  0.00    -0.288 N 
HETATM    9  H   UNL     1      43.840 -15.221   7.106  1.00  0.00     0.188 HD
HETATM   10  C   UNL     1      42.147 -15.421   5.782  1.00  0.00     0.120 A 
BRANCH   6  11
HETATM   11  C   UNL     1      43.409 -18.418   4.119  1.00  0.00    -0.005 A 
HETATM   12  C   UNL     1      44.225 -19.430   4.637  1.00  0.00     0.014 A 
HETATM   13  C   UNL     1      44.551 -20.541   3.851  1.00  0.00     0.007 A 
HETATM   14  C   UNL     1      44.080 -20.643   2.536  1.00  0.00    -0.062 A 
HETATM   15  C   UNL     1      44.430 -21.830   1.685  1.00  0.00     0.048 C 
HETATM   16  C   UNL     1      43.258 -19.632   2.025  1.00  0.00     0.007 A 
HETATM   17  C   UNL     1      42.932 -18.524   2.808  1.00  0.00     0.014 A 
ENDBRANCH   6  11
ENDBRANCH   4   5
ENDBRANCH   1   4
BRANCH   1  18
HETATM   18  C   UNL     1      41.957 -14.882   2.217  1.00  0.00     0.190 C 
HETATM   19  C   UNL     1      41.887 -15.185   0.714  1.00  0.00     0.048 C 
HETATM   20  C   UNL     1      41.570 -13.982  -0.168  1.00  0.00     0.099 C 
HETATM   21  N   UNL     1      42.420 -12.862   0.242  1.00  0.00    -0.268 NA
HETATM   22  C   UNL     1      42.125 -12.379   1.595  1.00  0.00     0.099 C 
HETATM   23  C   UNL     1      42.461 -13.482   2.595  1.00  0.00     0.048 C 
BRANCH  21  24
HETATM   24  C   UNL     1      42.559 -11.849  -0.720  1.00  0.00     0.109 A 
HETATM   25  N   UNL     1      43.146 -10.685  -0.391  1.00  0.00    -0.224 NA
HETATM   26  C   UNL     1      43.331  -9.764  -1.370  1.00  0.00     0.102 A 
HETATM   27  C   UNL     1      44.005  -8.473  -1.024  1.00  0.00     0.091 C 
HETATM   28  N   UNL     1      42.966  -9.961  -2.644  1.00  0.00    -0.348 N 
HETATM   29  H   UNL     1      43.150  -9.234  -3.333  1.00  0.00     0.167 HD
HETATM   30  C   UNL     1      42.379 -11.113  -3.004  1.00  0.00     0.009 A 
HETATM   31  C   UNL     1      42.005 -11.322  -4.436  1.00  0.00     0.068 C 
HETATM   32  C   UNL     1      42.162 -12.090  -2.031  1.00  0.00     0.069 A 
ENDBRANCH  21  24
ENDBRANCH   1  18
TORSDOF 5
ENDMDL
MODEL 6
REMARK VINA RESULT:      -9.0      2.402      7.206
REMARK  5 active torsions:
REMARK  status: ('A' for Active; 'I' for Inactive)
REMARK    1  A    between atoms: C_5  and  C_6 
REMARK    2  A    between atoms: C_11  and  C_12 
REMARK    3  A    between atoms: C_12  and  N_13 
REMARK    4  A    between atoms: N_13  and  C_15 
REMARK    5  A    between atoms: N_18  and  C_19 
ROOT
HETATM    1  N   UNL     1      40.340 -14.164   1.224  1.00  0.00    -0.067 N 
HETATM    2  H   UNL     1      40.918 -14.012   2.062  1.00  0.00     0.280 HD
HETATM    3  C   UNL     1      40.891 -13.220   0.198  1.00  0.00     0.270 C 
ENDROOT
BRANCH   1   4
HETATM    4  C   UNL     1      38.945 -13.732   1.699  1.00  0.00     0.277 C 
BRANCH   4   5
HETATM    5  C   UNL     1      38.990 -12.526   2.570  1.00  0.00     0.016 A 
HETATM    6  C   UNL     1      39.668 -12.386   3.823  1.00  0.00     0.096 A 
HETATM    7  N   UNL     1      39.534 -11.146   4.303  1.00  0.00    -0.174 NA
HETATM    8  N   UNL     1      38.816 -10.488   3.393  1.00  0.00    -0.288 N 
HETATM    9  H   UNL     1      38.623  -9.502   3.555  1.00  0.00     0.188 HD
HETATM   10  C   UNL     1      38.450 -11.273   2.335  1.00  0.00     0.120 A 
BRANCH   6  11
HETATM   11  C   UNL     1      40.452 -13.372   4.556  1.00  0.00    -0.005 A 
HETATM   12  C   UNL     1      41.848 -13.394   4.465  1.00  0.00     0.014 A 
HETATM   13  C   UNL     1      42.582 -14.360   5.163  1.00  0.00     0.007 A 
HETATM   14  C   UNL     1      41.929 -15.322   5.943  1.00  0.00    -0.062 A 
HETATM   15  C   UNL     1      42.710 -16.363   6.691  1.00  0.00     0.048 C 
HETATM   16  C   UNL     1      40.533 -15.290   6.038  1.00  0.00     0.007 A 
HETATM   17  C   UNL     1      39.799 -14.328   5.342  1.00  0.00     0.014 A 
ENDBRANCH   6  11
ENDBRANCH   4   5
ENDBRANCH   1   4
BRANCH   1  18
HETATM   18  C   UNL     1      40.431 -15.662   0.907  1.00  0.00     0.190 C 
HETATM   19  C   UNL     1      41.736 -16.060   0.203  1.00  0.00     0.048 C 
HETATM   20  C   UNL     1      42.806 -16.644   1.119  1.00  0.00     0.099 C 
HETATM   21  N   UNL     1      42.186 -17.652   1.982  1.00  0.00    -0.268 NA
HETATM   22  C   UNL     1      41.208 -17.088   2.918  1.00  0.00     0.099 C 
HETATM   23  C   UNL     1      40.039 -16.516   2.122  1.00  0.00     0.048 C 
BRANCH  21  24
HETATM   24  C   UNL     1      43.086 -18.563   2.560  1.00  0.00     0.109 A 
HETATM   25  N   UNL     1      43.627 -18.302   3.762  1.00  0.00    -0.224 NA
HETATM   26  C   UNL     1      44.429 -19.244   4.319  1.00  0.00     0.102 A 
HETATM   27  C   UNL     1      45.019 -18.979   5.669  1.00  0.00     0.091 C 
HETATM   28  N   UNL     1      44.701 -20.419   3.734  1.00  0.00    -0.348 N 
HETATM   29  H   UNL     1      45.299 -21.089   4.215  1.00  0.00     0.167 HD
HETATM   30  C   UNL     1      44.175 -20.709   2.534  1.00  0.00     0.009 A 
HETATM   31  C   UNL     1      44.469 -22.035   1.911  1.00  0.00     0.068 C 
HETATM   32  C   UNL     1      43.347 -19.769   1.917  1.00  0.00     0.069 A 
ENDBRANCH  21  24
ENDBRANCH   1  18
TORSDOF 5
ENDMDL
MODEL 7
REMARK VINA RESULT:      -9.0      1.523      1.997
REMARK  5 active torsions:
REMARK  status: ('A' for Active; 'I' for Inactive)
REMARK    1  A    between atoms: C_5  and  C_6 
REMARK    2  A    between atoms: C_11  and  C_12 
REMARK    3  A    between atoms: C_12  and  N_13 
REMARK    4  A    between atoms: N_13  and  C_15 
REMARK    5  A    between atoms: N_18  and  C_19 
ROOT
HETATM    1  N   UNL     1      42.107 -15.366   5.713  1.00  0.00    -0.067 N 
HETATM    2  H   UNL     1      42.287 -14.930   6.628  1.00  0.00     0.280 HD
HETATM    3  C   UNL     1      40.858 -16.172   5.909  1.00  0.00     0.270 C 
ENDROOT
BRANCH   1   4
HETATM    4  C   UNL     1      43.337 -16.265   5.525  1.00  0.00     0.277 C 
BRANCH   4   5
HETATM    5  C   UNL     1      43.502 -17.242   6.637  1.00  0.00     0.016 A 
HETATM    6  C   UNL     1      43.789 -18.640   6.528  1.00  0.00     0.096 A 
HETATM    7  N   UNL     1      43.918 -19.197   7.735  1.00  0.00    -0.174 NA
HETATM    8  N   UNL     1      43.746 -18.202   8.606  1.00  0.00    -0.288 N 
HETATM    9  H   UNL     1      43.836 -18.412   9.598  1.00  0.00     0.188 HD
HETATM   10  C   UNL     1      43.479 -17.006   8.001  1.00  0.00     0.120 A 
BRANCH   6  11
HETATM   11  C   UNL     1      43.970 -19.447   5.327  1.00  0.00    -0.005 A 
HETATM   12  C   UNL     1      44.582 -20.704   5.390  1.00  0.00     0.014 A 
HETATM   13  C   UNL     1      44.761 -21.456   4.224  1.00  0.00     0.007 A 
HETATM   14  C   UNL     1      44.347 -20.954   2.984  1.00  0.00    -0.062 A 
HETATM   15  C   UNL     1      44.541 -21.754   1.728  1.00  0.00     0.048 C 
HETATM   16  C   UNL     1      43.728 -19.700   2.927  1.00  0.00     0.007 A 
HETATM   17  C   UNL     1      43.548 -18.948   4.090  1.00  0.00     0.014 A 
ENDBRANCH   6  11
ENDBRANCH   4   5
ENDBRANCH   1   4
BRANCH   1  18
HETATM   18  C   UNL     1      42.039 -14.219   4.698  1.00  0.00     0.190 C 
HETATM   19  C   UNL     1      42.895 -14.458   3.446  1.00  0.00     0.048 C 
HETATM   20  C   UNL     1      42.127 -14.980   2.235  1.00  0.00     0.099 C 
HETATM   21  N   UNL     1      40.916 -14.174   2.065  1.00  0.00    -0.268 NA
HETATM   22  C   UNL     1      39.960 -14.328   3.166  1.00  0.00     0.099 C 
HETATM   23  C   UNL     1      40.589 -13.781   4.444  1.00  0.00     0.048 C 
BRANCH  21  24
HETATM   24  C   UNL     1      40.344 -14.239   0.784  1.00  0.00     0.109 A 
HETATM   25  N   UNL     1      39.228 -13.542   0.509  1.00  0.00    -0.224 NA
HETATM   26  C   UNL     1      38.753 -13.571  -0.761  1.00  0.00     0.102 A 
HETATM   27  C   UNL     1      37.526 -12.779  -1.088  1.00  0.00     0.091 C 
HETATM   28  N   UNL     1      39.344 -14.253  -1.752  1.00  0.00    -0.348 N 
HETATM   29  H   UNL     1      38.944 -14.218  -2.688  1.00  0.00     0.167 HD
HETATM   30  C   UNL     1      40.460 -14.958  -1.510  1.00  0.00     0.009 A 
HETATM   31  C   UNL     1      41.117 -15.689  -2.635  1.00  0.00     0.068 C 
HETATM   32  C   UNL     1      40.985 -14.964  -0.216  1.00  0.00     0.069 A 
ENDBRANCH  21  24
ENDBRANCH   1  18
TORSDOF 5
ENDMDL
MODEL 8
REMARK VINA RESULT:      -8.8      2.608      8.480
REMARK  5 active torsions:
REMARK  status: ('A' for Active; 'I' for Inactive)
REMARK    1  A    between atoms: C_5  and  C_6 
REMARK    2  A    between atoms: C_11  and  C_12 
REMARK    3  A    between atoms: C_12  and  N_13 
REMARK    4  A    between atoms: N_13  and  C_15 
REMARK    5  A    between atoms: N_18  and  C_19 
ROOT
HETATM    1  N   UNL     1      40.530 -13.735   1.280  1.00  0.00    -0.067 N 
HETATM    2  H   UNL     1      39.861 -13.262   0.655  1.00  0.00     0.280 HD
HETATM    3  C   UNL     1      40.117 -13.332   2.663  1.00  0.00     0.270 C 
ENDROOT
BRANCH   1   4
HETATM    4  C   UNL     1      41.867 -13.095   0.880  1.00  0.00     0.277 C 
BRANCH   4   5
HETATM    5  C   UNL     1      41.688 -11.912  -0.006  1.00  0.00     0.016 A 
HETATM    6  C   UNL     1      41.085 -11.883  -1.303  1.00  0.00     0.096 A 
HETATM    7  N   UNL     1      41.051 -10.638  -1.787  1.00  0.00    -0.174 NA
HETATM    8  N   UNL     1      41.588  -9.872  -0.838  1.00  0.00    -0.288 N 
HETATM    9  H   UNL     1      41.631  -8.868  -0.997  1.00  0.00     0.188 HD
HETATM   10  C   UNL     1      42.003 -10.588   0.251  1.00  0.00     0.120 A 
BRANCH   6  11
HETATM   11  C   UNL     1      40.522 -12.983  -2.077  1.00  0.00    -0.005 A 
HETATM   12  C   UNL     1      39.150 -13.253  -2.053  1.00  0.00     0.014 A 
HETATM   13  C   UNL     1      38.632 -14.324  -2.789  1.00  0.00     0.007 A 
HETATM   14  C   UNL     1      39.480 -15.145  -3.542  1.00  0.00    -0.062 A 
HETATM   15  C   UNL     1      38.931 -16.299  -4.330  1.00  0.00     0.048 C 
HETATM   16  C   UNL     1      40.851 -14.866  -3.570  1.00  0.00     0.007 A 
HETATM   17  C   UNL     1      41.370 -13.798  -2.836  1.00  0.00     0.014 A 
ENDBRANCH   6  11
ENDBRANCH   4   5
ENDBRANCH   1   4
BRANCH   1  18
HETATM   18  C   UNL     1      40.451 -15.228   0.940  1.00  0.00     0.190 C 
HETATM   19  C   UNL     1      41.704 -15.761   0.232  1.00  0.00     0.048 C 
HETATM   20  C   UNL     1      42.698 -16.477   1.141  1.00  0.00     0.099 C 
HETATM   21  N   UNL     1      41.965 -17.421   1.987  1.00  0.00    -0.268 NA
HETATM   22  C   UNL     1      41.054 -16.764   2.930  1.00  0.00     0.099 C 
HETATM   23  C   UNL     1      39.961 -16.050   2.141  1.00  0.00     0.048 C 
BRANCH  21  24
HETATM   24  C   UNL     1      42.754 -18.437   2.552  1.00  0.00     0.109 A 
HETATM   25  N   UNL     1      42.962 -19.580   1.875  1.00  0.00    -0.224 NA
HETATM   26  C   UNL     1      43.794 -20.502   2.421  1.00  0.00     0.102 A 
HETATM   27  C   UNL     1      44.055 -21.769   1.669  1.00  0.00     0.091 C 
HETATM   28  N   UNL     1      44.419 -20.326   3.593  1.00  0.00    -0.348 N 
HETATM   29  H   UNL     1      45.045 -21.053   3.938  1.00  0.00     0.167 HD
HETATM   30  C   UNL     1      44.232 -19.196   4.291  1.00  0.00     0.009 A 
HETATM   31  C   UNL     1      44.961 -19.009   5.583  1.00  0.00     0.068 C 
HETATM   32  C   UNL     1      43.381 -18.218   3.774  1.00  0.00     0.069 A 
ENDBRANCH  21  24
ENDBRANCH   1  18
TORSDOF 5
ENDMDL
MODEL 9
REMARK VINA RESULT:      -8.4      2.187      3.536
REMARK  5 active torsions:
REMARK  status: ('A' for Active; 'I' for Inactive)
REMARK    1  A    between atoms: C_5  and  C_6 
REMARK    2  A    between atoms: C_11  and  C_12 
REMARK    3  A    between atoms: C_12  and  N_13 
REMARK    4  A    between atoms: N_13  and  C_15 
REMARK    5  A    between atoms: N_18  and  C_19 
ROOT
HETATM    1  N   UNL     1      42.485 -13.992   3.045  1.00  0.00    -0.067 N 
HETATM    2  H   UNL     1      42.997 -13.624   2.231  1.00  0.00     0.280 HD
HETATM    3  C   UNL     1      42.539 -12.893   4.064  1.00  0.00     0.270 C 
ENDROOT
BRANCH   1   4
HETATM    4  C   UNL     1      43.345 -15.193   3.463  1.00  0.00     0.277 C 
BRANCH   4   5
HETATM    5  C   UNL     1      42.846 -15.845   4.704  1.00  0.00     0.016 A 
HETATM    6  C   UNL     1      42.822 -17.246   4.999  1.00  0.00     0.096 A 
HETATM    7  N   UNL     1      42.350 -17.468   6.229  1.00  0.00    -0.174 NA
HETATM    8  N   UNL     1      42.094 -16.262   6.735  1.00  0.00    -0.288 N 
HETATM    9  H   UNL     1      41.749 -16.205   7.691  1.00  0.00     0.188 HD
HETATM   10  C   UNL     1      42.361 -15.249   5.856  1.00  0.00     0.120 A 
BRANCH   6  11
HETATM   11  C   UNL     1      43.254 -18.364   4.169  1.00  0.00    -0.005 A 
HETATM   12  C   UNL     1      42.733 -18.552   2.885  1.00  0.00     0.014 A 
HETATM   13  C   UNL     1      43.148 -19.641   2.111  1.00  0.00     0.007 A 
HETATM   14  C   UNL     1      44.073 -20.562   2.618  1.00  0.00    -0.062 A 
HETATM   15  C   UNL     1      44.519 -21.736   1.795  1.00  0.00     0.048 C 
HETATM   16  C   UNL     1      44.598 -20.365   3.901  1.00  0.00     0.007 A 
HETATM   17  C   UNL     1      44.185 -19.279   4.674  1.00  0.00     0.014 A 
ENDBRANCH   6  11
ENDBRANCH   4   5
ENDBRANCH   1   4
BRANCH   1  18
HETATM   18  C   UNL     1      41.097 -14.394   2.533  1.00  0.00     0.190 C 
HETATM   19  C   UNL     1      40.231 -13.199   2.111  1.00  0.00     0.048 C 
HETATM   20  C   UNL     1      40.212 -12.920   0.611  1.00  0.00     0.099 C 
HETATM   21  N   UNL     1      39.990 -14.182  -0.099  1.00  0.00    -0.268 NA
HETATM   22  C   UNL     1      41.095 -15.133   0.055  1.00  0.00     0.099 C 
HETATM   23  C   UNL     1      41.186 -15.546   1.522  1.00  0.00     0.048 C 
BRANCH  21  24
HETATM   24  C   UNL     1      39.525 -14.039  -1.417  1.00  0.00     0.109 A 
HETATM   25  N   UNL     1      39.522 -15.096  -2.246  1.00  0.00    -0.224 NA
HETATM   26  C   UNL     1      38.991 -14.934  -3.485  1.00  0.00     0.102 A 
HETATM   27  C   UNL     1      38.958 -16.109  -4.411  1.00  0.00     0.091 C 
HETATM   28  N   UNL     1      38.467 -13.779  -3.915  1.00  0.00    -0.348 N 
HETATM   29  H   UNL     1      38.070 -13.730  -4.852  1.00  0.00     0.167 HD
HETATM   30  C   UNL     1      38.455 -12.705  -3.110  1.00  0.00     0.009 A 
HETATM   31  C   UNL     1      37.841 -11.434  -3.601  1.00  0.00     0.068 C 
HETATM   32  C   UNL     1      38.994 -12.820  -1.827  1.00  0.00     0.069 A 
ENDBRANCH  21  24
ENDBRANCH   1  18
TORSDOF 5
ENDMDL
MODEL 10
REMARK VINA RESULT:      -8.3      2.077      7.201
REMARK  5 active torsions:
REMARK  status: ('A' for Active; 'I' for Inactive)
REMARK    1  A    between atoms: C_5  and  C_6 
REMARK    2  A    between atoms: C_11  and  C_12 
REMARK    3  A    between atoms: C_12  and  N_13 
REMARK    4  A    between atoms: N_13  and  C_15 
REMARK    5  A    between atoms: N_18  and  C_19 
ROOT
HETATM    1  N   UNL     1      40.915 -12.545   3.511  1.00  0.00    -0.067 N 
HETATM    2  H   UNL     1      40.459 -13.448   3.320  1.00  0.00     0.280 HD
HETATM    3  C   UNL     1      39.900 -11.753   4.278  1.00  0.00     0.270 C 
ENDROOT
BRANCH   1   4
HETATM    4  C   UNL     1      41.129 -11.976   2.101  1.00  0.00     0.277 C 
BRANCH   4   5
HETATM    5  C   UNL     1      39.999 -12.292   1.184  1.00  0.00     0.016 A 
HETATM    6  C   UNL     1      39.627 -13.577   0.676  1.00  0.00     0.096 A 
HETATM    7  N   UNL     1      38.530 -13.493  -0.082  1.00  0.00    -0.174 NA
HETATM    8  N   UNL     1      38.178 -12.207  -0.057  1.00  0.00    -0.288 N 
HETATM    9  H   UNL     1      37.336 -11.930  -0.556  1.00  0.00     0.188 HD
HETATM   10  C   UNL     1      39.035 -11.436   0.679  1.00  0.00     0.120 A 
BRANCH   6  11
HETATM   11  C   UNL     1      40.257 -14.871   0.908  1.00  0.00    -0.005 A 
HETATM   12  C   UNL     1      41.318 -15.310   0.108  1.00  0.00     0.014 A 
HETATM   13  C   UNL     1      41.898 -16.562   0.336  1.00  0.00     0.007 A 
HETATM   14  C   UNL     1      41.413 -17.395   1.352  1.00  0.00    -0.062 A 
HETATM   15  C   UNL     1      42.028 -18.743   1.599  1.00  0.00     0.048 C 
HETATM   16  C   UNL     1      40.358 -16.949   2.155  1.00  0.00     0.007 A 
HETATM   17  C   UNL     1      39.778 -15.700   1.929  1.00  0.00     0.014 A 
ENDBRANCH   6  11
ENDBRANCH   4   5
ENDBRANCH   1   4
BRANCH   1  18
HETATM   18  C   UNL     1      42.228 -12.873   4.233  1.00  0.00     0.190 C 
HETATM   19  C   UNL     1      42.026 -13.400   5.661  1.00  0.00     0.048 C 
HETATM   20  C   UNL     1      42.090 -14.917   5.799  1.00  0.00     0.099 C 
HETATM   21  N   UNL     1      43.266 -15.405   5.074  1.00  0.00    -0.268 NA
HETATM   22  C   UNL     1      43.178 -15.199   3.625  1.00  0.00     0.099 C 
HETATM   23  C   UNL     1      43.166 -13.700   3.341  1.00  0.00     0.048 C 
BRANCH  21  24
HETATM   24  C   UNL     1      43.700 -16.686   5.455  1.00  0.00     0.109 A 
HETATM   25  N   UNL     1      43.798 -17.002   6.757  1.00  0.00    -0.224 NA
HETATM   26  C   UNL     1      44.144 -18.273   7.081  1.00  0.00     0.102 A 
HETATM   27  C   UNL     1      44.234 -18.647   8.527  1.00  0.00     0.091 C 
HETATM   28  N   UNL     1      44.385 -19.225   6.169  1.00  0.00    -0.348 N 
HETATM   29  H   UNL     1      44.624 -20.165   6.481  1.00  0.00     0.167 HD
HETATM   30  C   UNL     1      44.294 -18.941   4.861  1.00  0.00     0.009 A 
HETATM   31  C   UNL     1      44.539 -20.024   3.862  1.00  0.00     0.068 C 
HETATM   32  C   UNL     1      43.945 -17.644   4.477  1.00  0.00     0.069 A 
ENDBRANCH  21  24
ENDBRANCH   1  18
TORSDOF 5
ENDMDL
