MODEL 1
REMARK VINA RESULT:      -7.8      0.000      0.000
REMARK  3 active torsions:
REMARK  status: ('A' for Active; 'I' for Inactive)
REMARK    1  A    between atoms: C_7  and  C_8 
REMARK       I    between atoms: C_8  and  N_9 
REMARK    2  A    between atoms: N_9  and  N_10 
REMARK    3  A    between atoms: C_11  and  C_12 
ROOT
HETATM    1  N   UNL     1      43.442 -13.783   6.239  1.00  0.00    -0.184 NA
HETATM    2  C   UNL     1      44.041 -14.710   6.915  1.00  0.00     0.148 C 
ENDROOT
BRANCH   1   3
HETATM    3  N   UNL     1      42.528 -14.157   5.299  1.00  0.00    -0.243 N 
HETATM    4  C   UNL     1      42.816 -14.085   3.939  1.00  0.00     0.280 C 
HETATM    5  O   UNL     1      43.879 -13.651   3.503  1.00  0.00    -0.265 OA
HETATM    6  H   UNL     1      41.622 -14.505   5.587  1.00  0.00     0.192 HD
BRANCH   4   7
HETATM    7  C   UNL     1      41.766 -14.600   3.072  1.00  0.00     0.102 A 
HETATM    8  C   UNL     1      41.820 -15.682   2.206  1.00  0.00     0.056 A 
HETATM    9  C   UNL     1      42.986 -16.572   1.956  1.00  0.00     0.072 C 
HETATM   10  N   UNL     1      40.640 -15.946   1.525  1.00  0.00    -0.228 NA
HETATM   11  C   UNL     1      39.713 -15.090   1.867  1.00  0.00     0.165 A 
HETATM   12  N   UNL     1      38.470 -15.117   1.365  1.00  0.00    -0.378 N 
HETATM   13  S   UNL     1      40.194 -13.904   3.004  1.00  0.00    -0.045 SA
HETATM   14  H   UNL     1      38.354 -15.685   0.532  1.00  0.00     0.158 HD
HETATM   15  H   UNL     1      37.930 -14.261   1.362  1.00  0.00     0.158 HD
ENDBRANCH   4   7
ENDBRANCH   1   3
BRANCH   2  16
HETATM   16  C   UNL     1      43.970 -16.187   6.778  1.00  0.00    -0.014 C 
HETATM   17  C   UNL     1      43.457 -16.958   7.954  1.00  0.00     0.216 C 
HETATM   18  O   UNL     1      43.806 -18.352   7.972  1.00  0.00    -0.344 OA
HETATM   19  C   UNL     1      44.013 -18.961   6.761  1.00  0.00     0.101 A 
HETATM   20  C   UNL     1      44.328 -18.232   5.606  1.00  0.00     0.001 A 
HETATM   21  C   UNL     1      43.956 -20.361   6.702  1.00  0.00     0.069 A 
HETATM   22  C   UNL     1      44.556 -18.902   4.399  1.00  0.00     0.038 A 
HETATM   23  C   UNL     1      44.434 -16.780   5.673  1.00  0.00     0.025 C 
HETATM   24  C   UNL     1      44.473 -20.293   4.352  1.00  0.00     0.036 A 
HETATM   25  C   UNL     1      44.179 -21.027   5.497  1.00  0.00     0.050 A 
HETATM   26 CL   UNL     1      44.741 -21.109   2.861  1.00  0.00    -0.084 Cl
HETATM   27 CL   UNL     1      43.596 -21.303   8.103  1.00  0.00    -0.081 Cl
ENDBRANCH   2  16
TORSDOF 3
ENDMDL
MODEL 2
REMARK VINA RESULT:      -7.6      6.253      8.678
REMARK  3 active torsions:
REMARK  status: ('A' for Active; 'I' for Inactive)
REMARK    1  A    between atoms: C_7  and  C_8 
REMARK       I    between atoms: C_8  and  N_9 
REMARK    2  A    between atoms: N_9  and  N_10 
REMARK    3  A    between atoms: C_11  and  C_12 
ROOT
HETATM    1  N   UNL     1      45.722 -12.756   8.525  1.00  0.00    -0.184 NA
HETATM    2  C   UNL     1      45.600 -11.773   9.358  1.00  0.00     0.148 C 
ENDROOT
BRANCH   1   3
HETATM    3  N   UNL     1      44.590 -13.365   8.072  1.00  0.00    -0.243 N 
HETATM    4  C   UNL     1      44.494 -13.836   6.766  1.00  0.00     0.280 C 
HETATM    5  O   UNL     1      45.392 -13.701   5.939  1.00  0.00    -0.265 OA
HETATM    6  H   UNL     1      43.801 -13.491   8.695  1.00  0.00     0.192 HD
BRANCH   4   7
HETATM    7  C   UNL     1      43.252 -14.534   6.467  1.00  0.00     0.102 A 
HETATM    8  C   UNL     1      42.944 -15.870   6.681  1.00  0.00     0.056 A 
HETATM    9  C   UNL     1      43.830 -16.911   7.269  1.00  0.00     0.072 C 
HETATM   10  N   UNL     1      41.658 -16.240   6.311  1.00  0.00    -0.228 NA
HETATM   11  C   UNL     1      41.006 -15.214   5.833  1.00  0.00     0.165 A 
HETATM   12  N   UNL     1      39.737 -15.288   5.405  1.00  0.00    -0.378 N 
HETATM   13  S   UNL     1      41.888 -13.748   5.772  1.00  0.00    -0.045 SA
HETATM   14  H   UNL     1      39.388 -16.227   5.250  1.00  0.00     0.158 HD
HETATM   15  H   UNL     1      39.415 -14.608   4.728  1.00  0.00     0.158 HD
ENDBRANCH   4   7
ENDBRANCH   1   3
BRANCH   2  16
HETATM   16  C   UNL     1      44.384 -11.220  10.008  1.00  0.00    -0.014 C 
HETATM   17  C   UNL     1      43.231 -10.875   9.118  1.00  0.00     0.216 C 
HETATM   18  O   UNL     1      42.277  -9.960   9.681  1.00  0.00    -0.344 OA
HETATM   19  C   UNL     1      42.146  -9.951  11.045  1.00  0.00     0.101 A 
HETATM   20  C   UNL     1      43.154 -10.433  11.892  1.00  0.00     0.001 A 
HETATM   21  C   UNL     1      40.985  -9.394  11.600  1.00  0.00     0.069 A 
HETATM   22  C   UNL     1      42.985 -10.378  13.280  1.00  0.00     0.038 A 
HETATM   23  C   UNL     1      44.383 -10.971  11.321  1.00  0.00     0.025 C 
HETATM   24  C   UNL     1      41.815  -9.841  13.815  1.00  0.00     0.036 A 
HETATM   25  C   UNL     1      40.815  -9.345  12.984  1.00  0.00     0.050 A 
HETATM   26 CL   UNL     1      41.607  -9.792  15.522  1.00  0.00    -0.084 Cl
HETATM   27 CL   UNL     1      39.726  -8.766  10.599  1.00  0.00    -0.081 Cl
ENDBRANCH   2  16
TORSDOF 3
ENDMDL
MODEL 3
REMARK VINA RESULT:      -7.5      5.741      8.134
REMARK  3 active torsions:
REMARK  status: ('A' for Active; 'I' for Inactive)
REMARK    1  A    between atoms: C_7  and  C_8 
REMARK       I    between atoms: C_8  and  N_9 
REMARK    2  A    between atoms: N_9  and  N_10 
REMARK    3  A    between atoms: C_11  and  C_12 
ROOT
HETATM    1  N   UNL     1      39.131 -12.194   6.769  1.00  0.00    -0.184 NA
HETATM    2  C   UNL     1      39.407 -11.192   7.540  1.00  0.00     0.148 C 
ENDROOT
BRANCH   1   3
HETATM    3  N   UNL     1      39.975 -13.265   6.771  1.00  0.00    -0.243 N 
HETATM    4  C   UNL     1      40.253 -13.970   5.604  1.00  0.00     0.280 C 
HETATM    5  O   UNL     1      39.734 -13.704   4.523  1.00  0.00    -0.265 OA
HETATM    6  H   UNL     1      40.421 -13.553   7.633  1.00  0.00     0.192 HD
BRANCH   4   7
HETATM    7  C   UNL     1      41.236 -15.031   5.761  1.00  0.00     0.102 A 
HETATM    8  C   UNL     1      42.610 -14.965   5.576  1.00  0.00     0.056 A 
HETATM    9  C   UNL     1      43.401 -13.775   5.160  1.00  0.00     0.072 C 
HETATM   10  N   UNL     1      43.292 -16.147   5.828  1.00  0.00    -0.228 NA
HETATM   11  C   UNL     1      42.461 -17.085   6.199  1.00  0.00     0.165 A 
HETATM   12  N   UNL     1      42.853 -18.329   6.511  1.00  0.00    -0.378 N 
HETATM   13  S   UNL     1      40.813 -16.626   6.249  1.00  0.00    -0.045 SA
HETATM   14  H   UNL     1      43.793 -18.571   6.217  1.00  0.00     0.158 HD
HETATM   15  H   UNL     1      42.184 -19.083   6.424  1.00  0.00     0.158 HD
ENDBRANCH   4   7
ENDBRANCH   1   3
BRANCH   2  16
HETATM   16  C   UNL     1      40.590 -10.954   8.406  1.00  0.00    -0.014 C 
HETATM   17  C   UNL     1      41.910 -10.771   7.724  1.00  0.00     0.216 C 
HETATM   18  O   UNL     1      43.063 -10.986   8.555  1.00  0.00    -0.344 OA
HETATM   19  C   UNL     1      42.920 -10.749   9.898  1.00  0.00     0.101 A 
HETATM   20  C   UNL     1      41.666 -10.747  10.524  1.00  0.00     0.001 A 
HETATM   21  C   UNL     1      44.077 -10.555  10.666  1.00  0.00     0.069 A 
HETATM   22  C   UNL     1      41.574 -10.527  11.902  1.00  0.00     0.038 A 
HETATM   23  C   UNL     1      40.464 -10.994   9.737  1.00  0.00     0.025 C 
HETATM   24  C   UNL     1      42.733 -10.313  12.649  1.00  0.00     0.036 A 
HETATM   25  C   UNL     1      43.984 -10.330  12.040  1.00  0.00     0.050 A 
HETATM   26 CL   UNL     1      42.611 -10.027  14.341  1.00  0.00    -0.084 Cl
HETATM   27 CL   UNL     1      45.646 -10.573   9.945  1.00  0.00    -0.081 Cl
ENDBRANCH   2  16
TORSDOF 3
ENDMDL
MODEL 4
REMARK VINA RESULT:      -7.4      2.639      4.272
REMARK  3 active torsions:
REMARK  status: ('A' for Active; 'I' for Inactive)
REMARK    1  A    between atoms: C_7  and  C_8 
REMARK       I    between atoms: C_8  and  N_9 
REMARK    2  A    between atoms: N_9  and  N_10 
REMARK    3  A    between atoms: C_11  and  C_12 
ROOT
HETATM    1  N   UNL     1      41.232 -14.956   0.697  1.00  0.00    -0.184 NA
HETATM    2  C   UNL     1      42.107 -15.908   0.636  1.00  0.00     0.148 C 
ENDROOT
BRANCH   1   3
HETATM    3  N   UNL     1      40.786 -14.565   1.925  1.00  0.00    -0.243 N 
HETATM    4  C   UNL     1      40.761 -13.224   2.293  1.00  0.00     0.280 C 
HETATM    5  O   UNL     1      41.170 -12.323   1.565  1.00  0.00    -0.265 OA
HETATM    6  H   UNL     1      40.454 -15.258   2.584  1.00  0.00     0.192 HD
BRANCH   4   7
HETATM    7  C   UNL     1      40.178 -12.969   3.603  1.00  0.00     0.102 A 
HETATM    8  C   UNL     1      39.126 -12.124   3.926  1.00  0.00     0.056 A 
HETATM    9  C   UNL     1      38.347 -11.266   2.993  1.00  0.00     0.072 C 
HETATM   10  N   UNL     1      38.778 -12.111   5.270  1.00  0.00    -0.228 NA
HETATM   11  C   UNL     1      39.541 -12.927   5.948  1.00  0.00     0.165 A 
HETATM   12  N   UNL     1      39.418 -13.115   7.270  1.00  0.00    -0.378 N 
HETATM   13  S   UNL     1      40.736 -13.743   5.034  1.00  0.00    -0.045 SA
HETATM   14  H   UNL     1      38.863 -12.418   7.755  1.00  0.00     0.158 HD
HETATM   15  H   UNL     1      40.224 -13.438   7.790  1.00  0.00     0.158 HD
ENDBRANCH   4   7
ENDBRANCH   1   3
BRANCH   2  16
HETATM   16  C   UNL     1      42.672 -16.754   1.718  1.00  0.00    -0.014 C 
HETATM   17  C   UNL     1      42.839 -16.120   3.064  1.00  0.00     0.216 C 
HETATM   18  O   UNL     1      43.766 -16.780   3.941  1.00  0.00    -0.344 OA
HETATM   19  C   UNL     1      43.942 -18.129   3.765  1.00  0.00     0.101 A 
HETATM   20  C   UNL     1      43.627 -18.770   2.559  1.00  0.00     0.001 A 
HETATM   21  C   UNL     1      44.503 -18.869   4.816  1.00  0.00     0.069 A 
HETATM   22  C   UNL     1      43.850 -20.144   2.420  1.00  0.00     0.038 A 
HETATM   23  C   UNL     1      43.087 -17.996   1.448  1.00  0.00     0.025 C 
HETATM   24  C   UNL     1      44.387 -20.870   3.482  1.00  0.00     0.036 A 
HETATM   25  C   UNL     1      44.719 -20.240   4.678  1.00  0.00     0.050 A 
HETATM   26 CL   UNL     1      44.644 -22.563   3.309  1.00  0.00    -0.084 Cl
HETATM   27 CL   UNL     1      44.929 -18.120   6.312  1.00  0.00    -0.081 Cl
ENDBRANCH   2  16
TORSDOF 3
ENDMDL
MODEL 5
REMARK VINA RESULT:      -7.4      4.665      6.872
REMARK  3 active torsions:
REMARK  status: ('A' for Active; 'I' for Inactive)
REMARK    1  A    between atoms: C_7  and  C_8 
REMARK       I    between atoms: C_8  and  N_9 
REMARK    2  A    between atoms: N_9  and  N_10 
REMARK    3  A    between atoms: C_11  and  C_12 
ROOT
HETATM    1  N   UNL     1      45.425 -12.754   8.432  1.00  0.00    -0.184 NA
HETATM    2  C   UNL     1      45.446 -13.582   7.438  1.00  0.00     0.148 C 
ENDROOT
BRANCH   1   3
HETATM    3  N   UNL     1      44.222 -12.452   8.998  1.00  0.00    -0.243 N 
HETATM    4  C   UNL     1      43.996 -11.222   9.607  1.00  0.00     0.280 C 
HETATM    5  O   UNL     1      44.863 -10.357   9.708  1.00  0.00    -0.265 OA
HETATM    6  H   UNL     1      43.469 -13.128   8.970  1.00  0.00     0.192 HD
BRANCH   4   7
HETATM    7  C   UNL     1      42.636 -11.027  10.086  1.00  0.00     0.102 A 
HETATM    8  C   UNL     1      42.165 -11.094  11.390  1.00  0.00     0.056 A 
HETATM    9  C   UNL     1      42.957 -11.395  12.614  1.00  0.00     0.072 C 
HETATM   10  N   UNL     1      40.809 -10.835  11.537  1.00  0.00    -0.228 NA
HETATM   11  C   UNL     1      40.265 -10.573  10.377  1.00  0.00     0.165 A 
HETATM   12  N   UNL     1      38.965 -10.281  10.229  1.00  0.00    -0.378 N 
HETATM   13  S   UNL     1      41.328 -10.642   9.037  1.00  0.00    -0.045 SA
HETATM   14  H   UNL     1      38.379 -10.505  11.025  1.00  0.00     0.158 HD
HETATM   15  H   UNL     1      38.530 -10.453   9.331  1.00  0.00     0.158 HD
ENDBRANCH   4   7
ENDBRANCH   1   3
BRANCH   2  16
HETATM   16  C   UNL     1      44.323 -14.226   6.710  1.00  0.00    -0.014 C 
HETATM   17  C   UNL     1      43.958 -15.621   7.113  1.00  0.00     0.216 C 
HETATM   18  O   UNL     1      43.206 -16.362   6.139  1.00  0.00    -0.344 OA
HETATM   19  C   UNL     1      42.416 -15.644   5.279  1.00  0.00     0.101 A 
HETATM   20  C   UNL     1      42.642 -14.285   5.021  1.00  0.00     0.001 A 
HETATM   21  C   UNL     1      41.386 -16.315   4.603  1.00  0.00     0.069 A 
HETATM   22  C   UNL     1      41.824 -13.602   4.114  1.00  0.00     0.038 A 
HETATM   23  C   UNL     1      43.740 -13.594   5.686  1.00  0.00     0.025 C 
HETATM   24  C   UNL     1      40.790 -14.278   3.468  1.00  0.00     0.036 A 
HETATM   25  C   UNL     1      40.568 -15.631   3.704  1.00  0.00     0.050 A 
HETATM   26 CL   UNL     1      39.779 -13.427   2.365  1.00  0.00    -0.084 Cl
HETATM   27 CL   UNL     1      41.085 -17.994   4.870  1.00  0.00    -0.081 Cl
ENDBRANCH   2  16
TORSDOF 3
ENDMDL
MODEL 6
REMARK VINA RESULT:      -7.1      4.581      6.557
REMARK  3 active torsions:
REMARK  status: ('A' for Active; 'I' for Inactive)
REMARK    1  A    between atoms: C_7  and  C_8 
REMARK       I    between atoms: C_8  and  N_9 
REMARK    2  A    between atoms: N_9  and  N_10 
REMARK    3  A    between atoms: C_11  and  C_12 
ROOT
HETATM    1  N   UNL     1      45.178 -12.650   8.797  1.00  0.00    -0.184 NA
HETATM    2  C   UNL     1      45.346 -13.392   7.750  1.00  0.00     0.148 C 
ENDROOT
BRANCH   1   3
HETATM    3  N   UNL     1      43.904 -12.373   9.197  1.00  0.00    -0.243 N 
HETATM    4  C   UNL     1      43.556 -11.119   9.691  1.00  0.00     0.280 C 
HETATM    5  O   UNL     1      44.368 -10.208   9.834  1.00  0.00    -0.265 OA
HETATM    6  H   UNL     1      43.188 -13.085   9.126  1.00  0.00     0.192 HD
BRANCH   4   7
HETATM    7  C   UNL     1      42.142 -10.962   9.993  1.00  0.00     0.102 A 
HETATM    8  C   UNL     1      41.514 -11.027  11.229  1.00  0.00     0.056 A 
HETATM    9  C   UNL     1      42.155 -11.286  12.547  1.00  0.00     0.072 C 
HETATM   10  N   UNL     1      40.143 -10.809  11.201  1.00  0.00    -0.228 NA
HETATM   11  C   UNL     1      39.741 -10.580   9.979  1.00  0.00     0.165 A 
HETATM   12  N   UNL     1      38.461 -10.332   9.664  1.00  0.00    -0.378 N 
HETATM   13  S   UNL     1      40.964 -10.632   8.782  1.00  0.00    -0.045 SA
HETATM   14  H   UNL     1      37.787 -10.564  10.385  1.00  0.00     0.158 HD
HETATM   15  H   UNL     1      38.148 -10.530   8.723  1.00  0.00     0.158 HD
ENDBRANCH   4   7
ENDBRANCH   1   3
BRANCH   2  16
HETATM   16  C   UNL     1      44.343 -13.950   6.807  1.00  0.00    -0.014 C 
HETATM   17  C   UNL     1      43.233 -13.044   6.375  1.00  0.00     0.216 C 
HETATM   18  O   UNL     1      42.073 -13.706   5.846  1.00  0.00    -0.344 OA
HETATM   19  C   UNL     1      42.266 -14.925   5.248  1.00  0.00     0.101 A 
HETATM   20  C   UNL     1      43.394 -15.714   5.515  1.00  0.00     0.001 A 
HETATM   21  C   UNL     1      41.272 -15.409   4.386  1.00  0.00     0.069 A 
HETATM   22  C   UNL     1      43.532 -16.963   4.900  1.00  0.00     0.038 A 
HETATM   23  C   UNL     1      44.408 -15.236   6.447  1.00  0.00     0.025 C 
HETATM   24  C   UNL     1      42.545 -17.420   4.027  1.00  0.00     0.036 A 
HETATM   25  C   UNL     1      41.414 -16.652   3.769  1.00  0.00     0.050 A 
HETATM   26 CL   UNL     1      42.730 -18.950   3.263  1.00  0.00    -0.084 Cl
HETATM   27 CL   UNL     1      39.853 -14.484   4.045  1.00  0.00    -0.081 Cl
ENDBRANCH   2  16
TORSDOF 3
ENDMDL
MODEL 7
REMARK VINA RESULT:      -7.1      4.329      7.282
REMARK  3 active torsions:
REMARK  status: ('A' for Active; 'I' for Inactive)
REMARK    1  A    between atoms: C_7  and  C_8 
REMARK       I    between atoms: C_8  and  N_9 
REMARK    2  A    between atoms: N_9  and  N_10 
REMARK    3  A    between atoms: C_11  and  C_12 
ROOT
HETATM    1  N   UNL     1      40.757 -15.145   4.797  1.00  0.00    -0.184 NA
HETATM    2  C   UNL     1      40.650 -14.073   4.080  1.00  0.00     0.148 C 
ENDROOT
BRANCH   1   3
HETATM    3  N   UNL     1      41.446 -16.203   4.280  1.00  0.00    -0.243 N 
HETATM    4  C   UNL     1      42.809 -16.361   4.509  1.00  0.00     0.280 C 
HETATM    5  O   UNL     1      43.478 -15.551   5.147  1.00  0.00    -0.265 OA
HETATM    6  H   UNL     1      40.960 -16.898   3.727  1.00  0.00     0.192 HD
BRANCH   4   7
HETATM    7  C   UNL     1      43.375 -17.584   3.960  1.00  0.00     0.102 A 
HETATM    8  C   UNL     1      43.728 -17.854   2.646  1.00  0.00     0.056 A 
HETATM    9  C   UNL     1      43.600 -16.941   1.478  1.00  0.00     0.072 C 
HETATM   10  N   UNL     1      44.271 -19.114   2.433  1.00  0.00    -0.228 NA
HETATM   11  C   UNL     1      44.332 -19.781   3.555  1.00  0.00     0.165 A 
HETATM   12  N   UNL     1      44.821 -21.028   3.639  1.00  0.00    -0.378 N 
HETATM   13  S   UNL     1      43.727 -18.962   4.930  1.00  0.00    -0.045 SA
HETATM   14  H   UNL     1      44.920 -21.513   2.754  1.00  0.00     0.158 HD
HETATM   15  H   UNL     1      44.515 -21.616   4.403  1.00  0.00     0.158 HD
ENDBRANCH   4   7
ENDBRANCH   1   3
BRANCH   2  16
HETATM   16  C   UNL     1      41.092 -13.810   2.687  1.00  0.00    -0.014 C 
HETATM   17  C   UNL     1      42.150 -12.768   2.490  1.00  0.00     0.216 C 
HETATM   18  O   UNL     1      42.236 -12.227   1.162  1.00  0.00    -0.344 OA
HETATM   19  C   UNL     1      41.839 -13.036   0.129  1.00  0.00     0.101 A 
HETATM   20  C   UNL     1      40.980 -14.127   0.326  1.00  0.00     0.001 A 
HETATM   21  C   UNL     1      42.270 -12.721  -1.167  1.00  0.00     0.069 A 
HETATM   22  C   UNL     1      40.582 -14.907  -0.764  1.00  0.00     0.038 A 
HETATM   23  C   UNL     1      40.491 -14.430   1.666  1.00  0.00     0.025 C 
HETATM   24  C   UNL     1      41.038 -14.594  -2.044  1.00  0.00     0.036 A 
HETATM   25  C   UNL     1      41.877 -13.503  -2.253  1.00  0.00     0.050 A 
HETATM   26 CL   UNL     1      40.556 -15.567  -3.379  1.00  0.00    -0.084 Cl
HETATM   27 CL   UNL     1      43.309 -11.374  -1.464  1.00  0.00    -0.081 Cl
ENDBRANCH   2  16
TORSDOF 3
ENDMDL
MODEL 8
REMARK VINA RESULT:      -7.1      5.855      7.935
REMARK  3 active torsions:
REMARK  status: ('A' for Active; 'I' for Inactive)
REMARK    1  A    between atoms: C_7  and  C_8 
REMARK       I    between atoms: C_8  and  N_9 
REMARK    2  A    between atoms: N_9  and  N_10 
REMARK    3  A    between atoms: C_11  and  C_12 
ROOT
HETATM    1  N   UNL     1      45.537 -13.238   7.964  1.00  0.00    -0.184 NA
HETATM    2  C   UNL     1      45.524 -12.265   8.816  1.00  0.00     0.148 C 
ENDROOT
BRANCH   1   3
HETATM    3  N   UNL     1      44.350 -13.821   7.630  1.00  0.00    -0.243 N 
HETATM    4  C   UNL     1      43.991 -14.021   6.300  1.00  0.00     0.280 C 
HETATM    5  O   UNL     1      44.688 -13.656   5.357  1.00  0.00    -0.265 OA
HETATM    6  H   UNL     1      43.717 -14.128   8.358  1.00  0.00     0.192 HD
BRANCH   4   7
HETATM    7  C   UNL     1      42.733 -14.731   6.116  1.00  0.00     0.102 A 
HETATM    8  C   UNL     1      41.501 -14.215   5.744  1.00  0.00     0.056 A 
HETATM    9  C   UNL     1      41.177 -12.792   5.451  1.00  0.00     0.072 C 
HETATM   10  N   UNL     1      40.484 -15.153   5.626  1.00  0.00    -0.228 NA
HETATM   11  C   UNL     1      40.934 -16.350   5.897  1.00  0.00     0.165 A 
HETATM   12  N   UNL     1      40.163 -17.448   5.855  1.00  0.00    -0.378 N 
HETATM   13  S   UNL     1      42.587 -16.432   6.332  1.00  0.00    -0.045 SA
HETATM   14  H   UNL     1      39.165 -17.273   5.834  1.00  0.00     0.158 HD
HETATM   15  H   UNL     1      40.433 -18.249   6.410  1.00  0.00     0.158 HD
ENDBRANCH   4   7
ENDBRANCH   1   3
BRANCH   2  16
HETATM   16  C   UNL     1      44.397 -11.700   9.602  1.00  0.00    -0.014 C 
HETATM   17  C   UNL     1      44.408 -11.939  11.080  1.00  0.00     0.216 C 
HETATM   18  O   UNL     1      43.137 -11.786  11.734  1.00  0.00    -0.344 OA
HETATM   19  C   UNL     1      42.238 -10.923  11.162  1.00  0.00     0.101 A 
HETATM   20  C   UNL     1      42.318 -10.553   9.812  1.00  0.00     0.001 A 
HETATM   21  C   UNL     1      41.182 -10.443  11.950  1.00  0.00     0.069 A 
HETATM   22  C   UNL     1      41.361  -9.690   9.268  1.00  0.00     0.038 A 
HETATM   23  C   UNL     1      43.387 -11.086   8.977  1.00  0.00     0.025 C 
HETATM   24  C   UNL     1      40.330  -9.203  10.071  1.00  0.00     0.036 A 
HETATM   25  C   UNL     1      40.232  -9.578  11.408  1.00  0.00     0.050 A 
HETATM   26 CL   UNL     1      39.165  -8.129   9.399  1.00  0.00    -0.084 Cl
HETATM   27 CL   UNL     1      41.029 -10.890  13.611  1.00  0.00    -0.081 Cl
ENDBRANCH   2  16
TORSDOF 3
ENDMDL
MODEL 9
REMARK VINA RESULT:      -7.1      2.631      3.672
REMARK  3 active torsions:
REMARK  status: ('A' for Active; 'I' for Inactive)
REMARK    1  A    between atoms: C_7  and  C_8 
REMARK       I    between atoms: C_8  and  N_9 
REMARK    2  A    between atoms: N_9  and  N_10 
REMARK    3  A    between atoms: C_11  and  C_12 
ROOT
HETATM    1  N   UNL     1      43.867 -16.071   7.912  1.00  0.00    -0.184 NA
HETATM    2  C   UNL     1      44.140 -17.276   7.525  1.00  0.00     0.148 C 
ENDROOT
BRANCH   1   3
HETATM    3  N   UNL     1      43.189 -15.255   7.056  1.00  0.00    -0.243 N 
HETATM    4  C   UNL     1      43.707 -14.022   6.668  1.00  0.00     0.280 C 
HETATM    5  O   UNL     1      44.770 -13.580   7.095  1.00  0.00    -0.265 OA
HETATM    6  H   UNL     1      42.295 -15.548   6.682  1.00  0.00     0.192 HD
BRANCH   4   7
HETATM    7  C   UNL     1      42.901 -13.312   5.686  1.00  0.00     0.102 A 
HETATM    8  C   UNL     1      42.988 -13.364   4.303  1.00  0.00     0.056 A 
HETATM    9  C   UNL     1      43.947 -14.165   3.495  1.00  0.00     0.072 C 
HETATM   10  N   UNL     1      42.057 -12.586   3.628  1.00  0.00    -0.228 NA
HETATM   11  C   UNL     1      41.281 -11.963   4.476  1.00  0.00     0.165 A 
HETATM   12  N   UNL     1      40.288 -11.146   4.094  1.00  0.00    -0.378 N 
HETATM   13  S   UNL     1      41.624 -12.246   6.128  1.00  0.00    -0.045 SA
HETATM   14  H   UNL     1      40.321 -10.850   3.125  1.00  0.00     0.158 HD
HETATM   15  H   UNL     1      39.979 -10.428   4.737  1.00  0.00     0.158 HD
ENDBRANCH   4   7
ENDBRANCH   1   3
BRANCH   2  16
HETATM   16  C   UNL     1      43.912 -17.930   6.212  1.00  0.00    -0.014 C 
HETATM   17  C   UNL     1      44.407 -19.334   6.052  1.00  0.00     0.216 C 
HETATM   18  O   UNL     1      44.577 -19.772   4.695  1.00  0.00    -0.344 OA
HETATM   19  C   UNL     1      43.779 -19.190   3.744  1.00  0.00     0.101 A 
HETATM   20  C   UNL     1      43.165 -17.946   3.948  1.00  0.00     0.001 A 
HETATM   21  C   UNL     1      43.621 -19.846   2.515  1.00  0.00     0.069 A 
HETATM   22  C   UNL     1      42.381 -17.381   2.936  1.00  0.00     0.038 A 
HETATM   23  C   UNL     1      43.363 -17.239   5.207  1.00  0.00     0.025 C 
HETATM   24  C   UNL     1      42.216 -18.057   1.728  1.00  0.00     0.036 A 
HETATM   25  C   UNL     1      42.835 -19.284   1.509  1.00  0.00     0.050 A 
HETATM   26 CL   UNL     1      41.238 -17.363   0.494  1.00  0.00    -0.084 Cl
HETATM   27 CL   UNL     1      44.377 -21.368   2.207  1.00  0.00    -0.081 Cl
ENDBRANCH   2  16
TORSDOF 3
ENDMDL
MODEL 10
REMARK VINA RESULT:      -7.1      4.515      7.409
REMARK  3 active torsions:
REMARK  status: ('A' for Active; 'I' for Inactive)
REMARK    1  A    between atoms: C_7  and  C_8 
REMARK       I    between atoms: C_8  and  N_9 
REMARK    2  A    between atoms: N_9  and  N_10 
REMARK    3  A    between atoms: C_11  and  C_12 
ROOT
HETATM    1  N   UNL     1      40.544 -15.272   4.784  1.00  0.00    -0.184 NA
HETATM    2  C   UNL     1      40.262 -14.314   3.960  1.00  0.00     0.148 C 
ENDROOT
BRANCH   1   3
HETATM    3  N   UNL     1      41.293 -16.316   4.330  1.00  0.00    -0.243 N 
HETATM    4  C   UNL     1      42.667 -16.370   4.544  1.00  0.00     0.280 C 
HETATM    5  O   UNL     1      43.290 -15.476   5.111  1.00  0.00    -0.265 OA
HETATM    6  H   UNL     1      40.847 -17.079   3.835  1.00  0.00     0.192 HD
BRANCH   4   7
HETATM    7  C   UNL     1      43.304 -17.590   4.071  1.00  0.00     0.102 A 
HETATM    8  C   UNL     1      43.730 -17.895   2.786  1.00  0.00     0.056 A 
HETATM    9  C   UNL     1      43.622 -17.033   1.578  1.00  0.00     0.072 C 
HETATM   10  N   UNL     1      44.329 -19.140   2.649  1.00  0.00    -0.228 NA
HETATM   11  C   UNL     1      44.362 -19.761   3.798  1.00  0.00     0.165 A 
HETATM   12  N   UNL     1      44.893 -20.983   3.954  1.00  0.00    -0.378 N 
HETATM   13  S   UNL     1      43.661 -18.914   5.110  1.00  0.00    -0.045 SA
HETATM   14  H   UNL     1      45.052 -21.497   3.095  1.00  0.00     0.158 HD
HETATM   15  H   UNL     1      44.573 -21.554   4.726  1.00  0.00     0.158 HD
ENDBRANCH   4   7
ENDBRANCH   1   3
BRANCH   2  16
HETATM   16  C   UNL     1      40.551 -14.189   2.509  1.00  0.00    -0.014 C 
HETATM   17  C   UNL     1      39.984 -15.241   1.607  1.00  0.00     0.216 C 
HETATM   18  O   UNL     1      40.621 -15.356   0.324  1.00  0.00    -0.344 OA
HETATM   19  C   UNL     1      41.210 -14.227  -0.186  1.00  0.00     0.101 A 
HETATM   20  C   UNL     1      41.593 -13.153   0.631  1.00  0.00     0.001 A 
HETATM   21  C   UNL     1      41.479 -14.179  -1.561  1.00  0.00     0.069 A 
HETATM   22  C   UNL     1      42.214 -12.035   0.067  1.00  0.00     0.038 A 
HETATM   23  C   UNL     1      41.358 -13.218   2.068  1.00  0.00     0.025 C 
HETATM   24  C   UNL     1      42.454 -11.994  -1.306  1.00  0.00     0.036 A 
HETATM   25  C   UNL     1      42.093 -13.061  -2.123  1.00  0.00     0.050 A 
HETATM   26 CL   UNL     1      43.205 -10.607  -1.995  1.00  0.00    -0.084 Cl
HETATM   27 CL   UNL     1      41.048 -15.487  -2.604  1.00  0.00    -0.081 Cl
ENDBRANCH   2  16
TORSDOF 3
ENDMDL
