MODEL 1
REMARK VINA RESULT:      -8.4      0.000      0.000
REMARK  3 active torsions:
REMARK  status: ('A' for Active; 'I' for Inactive)
REMARK    1  A    between atoms: C_9  and  C_10 
REMARK    2  A    between atoms: C_16  and  C_17 
REMARK       I    between atoms: C_17  and  N_18 
REMARK    3  A    between atoms: N_18  and  C_19 
ROOT
HETATM    1  C   UNL     1      41.324 -16.247   0.333  1.00  0.00     0.070 C 
HETATM    2  C   UNL     1      41.705 -15.561   1.621  1.00  0.00     0.037 C 
HETATM    3  N   UNL     1      41.026 -14.377   1.894  1.00  0.00    -0.191 N 
HETATM    4  C   UNL     1      41.388 -13.536   2.885  1.00  0.00     0.735 A 
HETATM    5  N   UNL     1      42.388 -13.902   3.741  1.00  0.00    -0.092 N 
HETATM    6  N   UNL     1      42.649 -12.907   4.603  1.00  0.00     0.012 NA
HETATM    7  N   UNL     1      41.770 -11.958   4.292  1.00  0.00     0.033 NA
HETATM    8  N   UNL     1      40.979 -12.337   3.222  1.00  0.00     0.030 NA
HETATM    9  C   UNL     1      43.107 -15.172   3.686  1.00  0.00     0.199 C 
HETATM   10  C   UNL     1      42.681 -15.983   2.464  1.00  0.00     0.062 C 
HETATM   11  H   UNL     1      40.355 -14.048   1.203  1.00  0.00     0.184 HD
ENDROOT
BRANCH  10  12
HETATM   12  C   UNL     1      43.509 -17.200   2.243  1.00  0.00     0.256 C 
HETATM   13  N   UNL     1      42.994 -18.326   2.844  1.00  0.00    -0.323 N 
HETATM   14  H   UNL     1      42.130 -18.223   3.360  1.00  0.00     0.169 HD
HETATM   15  O   UNL     1      44.560 -17.083   1.627  1.00  0.00    -0.267 OA
BRANCH  13  16
HETATM   16  C   UNL     1      43.542 -19.626   2.834  1.00  0.00     0.035 A 
HETATM   17  C   UNL     1      43.372 -20.537   1.789  1.00  0.00     0.029 A 
HETATM   18  C   UNL     1      43.948 -21.810   1.859  1.00  0.00     0.002 A 
HETATM   19  C   UNL     1      44.689 -22.185   2.975  1.00  0.00     0.000 A 
HETATM   20  C   UNL     1      44.863 -21.286   4.023  1.00  0.00     0.002 A 
HETATM   21  C   UNL     1      44.295 -20.011   3.950  1.00  0.00     0.029 A 
ENDBRANCH  13  16
ENDBRANCH  10  12
BRANCH   9  22
HETATM   22  C   UNL     1      42.916 -15.943   4.980  1.00  0.00    -0.011 A 
HETATM   23  C   UNL     1      41.632 -16.275   5.409  1.00  0.00     0.125 A 
HETATM   24  N   UNL     1      41.362 -16.946   6.550  1.00  0.00    -0.272 NA
HETATM   25  C   UNL     1      42.417 -17.310   7.309  1.00  0.00     0.116 A 
HETATM   26  C   UNL     1      43.731 -17.023   6.984  1.00  0.00     0.020 A 
HETATM   27  C   UNL     1      43.983 -16.325   5.806  1.00  0.00     0.012 A 
ENDBRANCH   9  22
TORSDOF 3
ENDMDL
MODEL 2
REMARK VINA RESULT:      -8.2      1.801      3.924
REMARK  3 active torsions:
REMARK  status: ('A' for Active; 'I' for Inactive)
REMARK    1  A    between atoms: C_9  and  C_10 
REMARK    2  A    between atoms: C_16  and  C_17 
REMARK       I    between atoms: C_17  and  N_18 
REMARK    3  A    between atoms: N_18  and  C_19 
ROOT
HETATM    1  C   UNL     1      44.286 -15.900   6.855  1.00  0.00     0.070 C 
HETATM    2  C   UNL     1      43.167 -15.273   6.061  1.00  0.00     0.037 C 
HETATM    3  N   UNL     1      42.962 -13.914   6.281  1.00  0.00    -0.191 N 
HETATM    4  C   UNL     1      41.882 -13.251   5.819  1.00  0.00     0.735 A 
HETATM    5  N   UNL     1      41.001 -13.897   4.999  1.00  0.00    -0.092 N 
HETATM    6  N   UNL     1      39.964 -13.097   4.709  1.00  0.00     0.012 NA
HETATM    7  N   UNL     1      40.247 -11.950   5.321  1.00  0.00     0.033 NA
HETATM    8  N   UNL     1      41.439 -12.033   6.017  1.00  0.00     0.030 NA
HETATM    9  C   UNL     1      41.143 -15.279   4.550  1.00  0.00     0.199 C 
HETATM   10  C   UNL     1      42.338 -15.948   5.225  1.00  0.00     0.062 C 
HETATM   11  H   UNL     1      43.551 -13.455   6.974  1.00  0.00     0.184 HD
ENDROOT
BRANCH  10  12
HETATM   12  C   UNL     1      42.428 -17.410   4.959  1.00  0.00     0.256 C 
HETATM   13  N   UNL     1      43.413 -17.740   4.056  1.00  0.00    -0.323 N 
HETATM   14  H   UNL     1      43.965 -16.984   3.674  1.00  0.00     0.169 HD
HETATM   15  O   UNL     1      41.612 -18.148   5.494  1.00  0.00    -0.267 OA
BRANCH  13  16
HETATM   16  C   UNL     1      43.743 -19.030   3.586  1.00  0.00     0.035 A 
HETATM   17  C   UNL     1      44.533 -19.939   4.291  1.00  0.00     0.029 A 
HETATM   18  C   UNL     1      44.816 -21.198   3.752  1.00  0.00     0.002 A 
HETATM   19  C   UNL     1      44.319 -21.554   2.501  1.00  0.00     0.000 A 
HETATM   20  C   UNL     1      43.532 -20.655   1.789  1.00  0.00     0.002 A 
HETATM   21  C   UNL     1      43.242 -19.400   2.331  1.00  0.00     0.029 A 
ENDBRANCH  13  16
ENDBRANCH  10  12
BRANCH   9  22
HETATM   22  C   UNL     1      41.234 -15.337   3.035  1.00  0.00    -0.011 A 
HETATM   23  C   UNL     1      42.032 -14.422   2.352  1.00  0.00     0.125 A 
HETATM   24  N   UNL     1      42.165 -14.386   1.007  1.00  0.00    -0.272 NA
HETATM   25  C   UNL     1      41.474 -15.303   0.300  1.00  0.00     0.116 A 
HETATM   26  C   UNL     1      40.644 -16.250   0.875  1.00  0.00     0.020 A 
HETATM   27  C   UNL     1      40.519 -16.263   2.262  1.00  0.00     0.012 A 
ENDBRANCH   9  22
TORSDOF 3
ENDMDL
MODEL 3
REMARK VINA RESULT:      -8.1      1.876      3.868
REMARK  3 active torsions:
REMARK  status: ('A' for Active; 'I' for Inactive)
REMARK    1  A    between atoms: C_9  and  C_10 
REMARK    2  A    between atoms: C_16  and  C_17 
REMARK       I    between atoms: C_17  and  N_18 
REMARK    3  A    between atoms: N_18  and  C_19 
ROOT
HETATM    1  C   UNL     1      44.078 -15.717   6.700  1.00  0.00     0.070 C 
HETATM    2  C   UNL     1      42.941 -14.998   6.018  1.00  0.00     0.037 C 
HETATM    3  N   UNL     1      42.782 -13.659   6.366  1.00  0.00    -0.191 N 
HETATM    4  C   UNL     1      41.699 -12.935   6.015  1.00  0.00     0.735 A 
HETATM    5  N   UNL     1      40.765 -13.487   5.185  1.00  0.00    -0.092 N 
HETATM    6  N   UNL     1      39.737 -12.642   5.015  1.00  0.00     0.012 NA
HETATM    7  N   UNL     1      40.077 -11.560   5.711  1.00  0.00     0.033 NA
HETATM    8  N   UNL     1      41.297 -11.730   6.340  1.00  0.00     0.030 NA
HETATM    9  C   UNL     1      40.851 -14.827   4.610  1.00  0.00     0.199 C 
HETATM   10  C   UNL     1      42.058 -15.578   5.167  1.00  0.00     0.062 C 
HETATM   11  H   UNL     1      43.413 -13.276   7.067  1.00  0.00     0.184 HD
ENDROOT
BRANCH  10  12
HETATM   12  C   UNL     1      42.098 -17.012   4.770  1.00  0.00     0.256 C 
HETATM   13  N   UNL     1      43.215 -17.345   4.039  1.00  0.00    -0.323 N 
HETATM   14  H   UNL     1      43.882 -16.608   3.849  1.00  0.00     0.169 HD
HETATM   15  O   UNL     1      41.145 -17.722   5.062  1.00  0.00    -0.267 OA
BRANCH  13  16
HETATM   16  C   UNL     1      43.543 -18.610   3.506  1.00  0.00     0.035 A 
HETATM   17  C   UNL     1      43.084 -19.081   2.274  1.00  0.00     0.029 A 
HETATM   18  C   UNL     1      43.454 -20.351   1.819  1.00  0.00     0.002 A 
HETATM   19  C   UNL     1      44.277 -21.162   2.595  1.00  0.00     0.000 A 
HETATM   20  C   UNL     1      44.739 -20.704   3.825  1.00  0.00     0.002 A 
HETATM   21  C   UNL     1      44.376 -19.432   4.276  1.00  0.00     0.029 A 
ENDBRANCH  13  16
ENDBRANCH  10  12
BRANCH   9  22
HETATM   22  C   UNL     1      40.871 -14.752   3.094  1.00  0.00    -0.011 A 
HETATM   23  C   UNL     1      39.775 -15.203   2.361  1.00  0.00     0.125 A 
HETATM   24  N   UNL     1      39.706 -15.190   1.011  1.00  0.00    -0.272 NA
HETATM   25  C   UNL     1      40.778 -14.705   0.350  1.00  0.00     0.116 A 
HETATM   26  C   UNL     1      41.922 -14.242   0.976  1.00  0.00     0.020 A 
HETATM   27  C   UNL     1      41.970 -14.272   2.368  1.00  0.00     0.012 A 
ENDBRANCH   9  22
TORSDOF 3
ENDMDL
MODEL 4
REMARK VINA RESULT:      -7.7      1.890      4.296
REMARK  3 active torsions:
REMARK  status: ('A' for Active; 'I' for Inactive)
REMARK    1  A    between atoms: C_9  and  C_10 
REMARK    2  A    between atoms: C_16  and  C_17 
REMARK       I    between atoms: C_17  and  N_18 
REMARK    3  A    between atoms: N_18  and  C_19 
ROOT
HETATM    1  C   UNL     1      44.204 -14.614   6.311  1.00  0.00     0.070 C 
HETATM    2  C   UNL     1      42.948 -14.195   5.587  1.00  0.00     0.037 C 
HETATM    3  N   UNL     1      42.196 -13.205   6.215  1.00  0.00    -0.191 N 
HETATM    4  C   UNL     1      40.952 -12.868   5.818  1.00  0.00     0.735 A 
HETATM    5  N   UNL     1      40.438 -13.428   4.682  1.00  0.00    -0.092 N 
HETATM    6  N   UNL     1      39.171 -13.025   4.498  1.00  0.00     0.012 NA
HETATM    7  N   UNL     1      38.940 -12.185   5.503  1.00  0.00     0.033 NA
HETATM    8  N   UNL     1      40.041 -12.079   6.333  1.00  0.00     0.030 NA
HETATM    9  C   UNL     1      41.148 -14.372   3.824  1.00  0.00     0.199 C 
HETATM   10  C   UNL     1      42.494 -14.753   4.437  1.00  0.00     0.062 C 
HETATM   11  H   UNL     1      42.525 -12.864   7.116  1.00  0.00     0.184 HD
ENDROOT
BRANCH  10  12
HETATM   12  C   UNL     1      43.186 -15.854   3.712  1.00  0.00     0.256 C 
HETATM   13  N   UNL     1      42.868 -17.105   4.190  1.00  0.00    -0.323 N 
HETATM   14  H   UNL     1      42.215 -17.156   4.961  1.00  0.00     0.169 HD
HETATM   15  O   UNL     1      43.988 -15.559   2.837  1.00  0.00    -0.267 OA
BRANCH  13  16
HETATM   16  C   UNL     1      43.360 -18.345   3.730  1.00  0.00     0.035 A 
HETATM   17  C   UNL     1      44.276 -19.131   4.433  1.00  0.00     0.029 A 
HETATM   18  C   UNL     1      44.715 -20.349   3.904  1.00  0.00     0.002 A 
HETATM   19  C   UNL     1      44.251 -20.787   2.668  1.00  0.00     0.000 A 
HETATM   20  C   UNL     1      43.339 -20.012   1.958  1.00  0.00     0.002 A 
HETATM   21  C   UNL     1      42.893 -18.798   2.489  1.00  0.00     0.029 A 
ENDBRANCH  13  16
ENDBRANCH  10  12
BRANCH   9  22
HETATM   22  C   UNL     1      41.296 -13.807   2.423  1.00  0.00    -0.011 A 
HETATM   23  C   UNL     1      42.102 -12.691   2.206  1.00  0.00     0.125 A 
HETATM   24  N   UNL     1      42.284 -12.109   0.999  1.00  0.00    -0.272 NA
HETATM   25  C   UNL     1      41.636 -12.659  -0.048  1.00  0.00     0.116 A 
HETATM   26  C   UNL     1      40.803 -13.759   0.056  1.00  0.00     0.020 A 
HETATM   27  C   UNL     1      40.628 -14.337   1.311  1.00  0.00     0.012 A 
ENDBRANCH   9  22
TORSDOF 3
ENDMDL
MODEL 5
REMARK VINA RESULT:      -7.4      2.160      5.711
REMARK  3 active torsions:
REMARK  status: ('A' for Active; 'I' for Inactive)
REMARK    1  A    between atoms: C_9  and  C_10 
REMARK    2  A    between atoms: C_16  and  C_17 
REMARK       I    between atoms: C_17  and  N_18 
REMARK    3  A    between atoms: N_18  and  C_19 
ROOT
HETATM    1  C   UNL     1      43.470 -18.726   1.779  1.00  0.00     0.070 C 
HETATM    2  C   UNL     1      43.052 -18.053   3.063  1.00  0.00     0.037 C 
HETATM    3  N   UNL     1      43.769 -18.426   4.196  1.00  0.00    -0.191 N 
HETATM    4  C   UNL     1      43.393 -18.085   5.446  1.00  0.00     0.735 A 
HETATM    5  N   UNL     1      42.332 -17.242   5.619  1.00  0.00    -0.092 N 
HETATM    6  N   UNL     1      42.071 -17.086   6.926  1.00  0.00     0.012 NA
HETATM    7  N   UNL     1      43.009 -17.802   7.541  1.00  0.00     0.033 NA
HETATM    8  N   UNL     1      43.838 -18.431   6.630  1.00  0.00     0.030 NA
HETATM    9  C   UNL     1      41.560 -16.643   4.534  1.00  0.00     0.199 C 
HETATM   10  C   UNL     1      42.013 -17.189   3.182  1.00  0.00     0.062 C 
HETATM   11  H   UNL     1      44.491 -19.135   4.085  1.00  0.00     0.184 HD
ENDROOT
BRANCH  10  12
HETATM   12  C   UNL     1      41.143 -16.766   2.050  1.00  0.00     0.256 C 
HETATM   13  N   UNL     1      41.725 -15.818   1.240  1.00  0.00    -0.323 N 
HETATM   14  H   UNL     1      42.659 -15.511   1.481  1.00  0.00     0.169 HD
HETATM   15  O   UNL     1      40.014 -17.231   1.981  1.00  0.00    -0.267 OA
BRANCH  13  16
HETATM   16  C   UNL     1      41.162 -15.207   0.099  1.00  0.00     0.035 A 
HETATM   17  C   UNL     1      40.480 -13.989   0.123  1.00  0.00     0.029 A 
HETATM   18  C   UNL     1      39.949 -13.452  -1.055  1.00  0.00     0.002 A 
HETATM   19  C   UNL     1      40.089 -14.132  -2.262  1.00  0.00     0.000 A 
HETATM   20  C   UNL     1      40.765 -15.347  -2.297  1.00  0.00     0.002 A 
HETATM   21  C   UNL     1      41.304 -15.880  -1.121  1.00  0.00     0.029 A 
ENDBRANCH  13  16
ENDBRANCH  10  12
BRANCH   9  22
HETATM   22  C   UNL     1      41.644 -15.128   4.598  1.00  0.00    -0.011 A 
HETATM   23  C   UNL     1      42.876 -14.494   4.452  1.00  0.00     0.125 A 
HETATM   24  N   UNL     1      43.052 -13.155   4.507  1.00  0.00    -0.272 NA
HETATM   25  C   UNL     1      41.953 -12.403   4.719  1.00  0.00     0.116 A 
HETATM   26  C   UNL     1      40.684 -12.928   4.888  1.00  0.00     0.020 A 
HETATM   27  C   UNL     1      40.530 -14.311   4.832  1.00  0.00     0.012 A 
ENDBRANCH   9  22
TORSDOF 3
ENDMDL
MODEL 6
REMARK VINA RESULT:      -7.4      1.841      2.403
REMARK  3 active torsions:
REMARK  status: ('A' for Active; 'I' for Inactive)
REMARK    1  A    between atoms: C_9  and  C_10 
REMARK    2  A    between atoms: C_16  and  C_17 
REMARK       I    between atoms: C_17  and  N_18 
REMARK    3  A    between atoms: N_18  and  C_19 
ROOT
HETATM    1  C   UNL     1      40.605 -17.833   0.631  1.00  0.00     0.070 C 
HETATM    2  C   UNL     1      41.005 -16.445   1.066  1.00  0.00     0.037 C 
HETATM    3  N   UNL     1      40.113 -15.431   0.729  1.00  0.00    -0.191 N 
HETATM    4  C   UNL     1      40.412 -14.121   0.853  1.00  0.00     0.735 A 
HETATM    5  N   UNL     1      41.589 -13.757   1.442  1.00  0.00    -0.092 N 
HETATM    6  N   UNL     1      41.734 -12.423   1.405  1.00  0.00     0.012 NA
HETATM    7  N   UNL     1      40.618 -11.983   0.832  1.00  0.00     0.033 NA
HETATM    8  N   UNL     1      39.785 -13.031   0.482  1.00  0.00     0.030 NA
HETATM    9  C   UNL     1      42.573 -14.690   1.984  1.00  0.00     0.199 C 
HETATM   10  C   UNL     1      42.171 -16.133   1.685  1.00  0.00     0.062 C 
HETATM   11  H   UNL     1      39.285 -15.689   0.196  1.00  0.00     0.184 HD
ENDROOT
BRANCH  10  12
HETATM   12  C   UNL     1      43.221 -17.127   2.040  1.00  0.00     0.256 C 
HETATM   13  N   UNL     1      42.793 -18.072   2.945  1.00  0.00    -0.323 N 
HETATM   14  H   UNL     1      41.838 -18.006   3.270  1.00  0.00     0.169 HD
HETATM   15  O   UNL     1      44.340 -16.983   1.567  1.00  0.00    -0.267 OA
BRANCH  13  16
HETATM   16  C   UNL     1      43.545 -19.136   3.489  1.00  0.00     0.035 A 
HETATM   17  C   UNL     1      43.982 -20.239   2.754  1.00  0.00     0.029 A 
HETATM   18  C   UNL     1      44.721 -21.253   3.371  1.00  0.00     0.002 A 
HETATM   19  C   UNL     1      45.023 -21.176   4.728  1.00  0.00     0.000 A 
HETATM   20  C   UNL     1      44.592 -20.081   5.471  1.00  0.00     0.002 A 
HETATM   21  C   UNL     1      43.860 -19.063   4.852  1.00  0.00     0.029 A 
ENDBRANCH  13  16
ENDBRANCH  10  12
BRANCH   9  22
HETATM   22  C   UNL     1      42.773 -14.447   3.469  1.00  0.00    -0.011 A 
HETATM   23  C   UNL     1      43.979 -13.923   3.930  1.00  0.00     0.125 A 
HETATM   24  N   UNL     1      44.255 -13.684   5.232  1.00  0.00    -0.272 NA
HETATM   25  C   UNL     1      43.288 -13.979   6.125  1.00  0.00     0.116 A 
HETATM   26  C   UNL     1      42.059 -14.512   5.778  1.00  0.00     0.020 A 
HETATM   27  C   UNL     1      41.802 -14.754   4.431  1.00  0.00     0.012 A 
ENDBRANCH   9  22
TORSDOF 3
ENDMDL
MODEL 7
REMARK VINA RESULT:      -7.4      2.183      5.767
REMARK  3 active torsions:
REMARK  status: ('A' for Active; 'I' for Inactive)
REMARK    1  A    between atoms: C_9  and  C_10 
REMARK    2  A    between atoms: C_16  and  C_17 
REMARK       I    between atoms: C_17  and  N_18 
REMARK    3  A    between atoms: N_18  and  C_19 
ROOT
HETATM    1  C   UNL     1      39.846 -14.401   5.445  1.00  0.00     0.070 C 
HETATM    2  C   UNL     1      41.100 -15.239   5.426  1.00  0.00     0.037 C 
HETATM    3  N   UNL     1      41.398 -15.901   6.614  1.00  0.00    -0.191 N 
HETATM    4  C   UNL     1      42.578 -16.515   6.835  1.00  0.00     0.735 A 
HETATM    5  N   UNL     1      43.487 -16.602   5.819  1.00  0.00    -0.092 N 
HETATM    6  N   UNL     1      44.618 -17.178   6.255  1.00  0.00     0.012 NA
HETATM    7  N   UNL     1      44.369 -17.479   7.527  1.00  0.00     0.033 NA
HETATM    8  N   UNL     1      43.102 -17.070   7.901  1.00  0.00     0.030 NA
HETATM    9  C   UNL     1      43.276 -16.091   4.467  1.00  0.00     0.199 C 
HETATM   10  C   UNL     1      41.957 -15.328   4.377  1.00  0.00     0.062 C 
HETATM   11  H   UNL     1      40.776 -15.750   7.406  1.00  0.00     0.184 HD
ENDROOT
BRANCH  10  12
HETATM   12  C   UNL     1      41.769 -14.619   3.082  1.00  0.00     0.256 C 
HETATM   13  N   UNL     1      40.895 -15.259   2.232  1.00  0.00    -0.323 N 
HETATM   14  H   UNL     1      40.476 -16.120   2.558  1.00  0.00     0.169 HD
HETATM   15  O   UNL     1      42.427 -13.610   2.872  1.00  0.00    -0.267 OA
BRANCH  13  16
HETATM   16  C   UNL     1      40.515 -14.854   0.934  1.00  0.00     0.035 A 
HETATM   17  C   UNL     1      39.427 -14.023   0.663  1.00  0.00     0.029 A 
HETATM   18  C   UNL     1      39.116 -13.672  -0.655  1.00  0.00     0.002 A 
HETATM   19  C   UNL     1      39.885 -14.154  -1.711  1.00  0.00     0.000 A 
HETATM   20  C   UNL     1      40.971 -14.984  -1.452  1.00  0.00     0.002 A 
HETATM   21  C   UNL     1      41.287 -15.329  -0.134  1.00  0.00     0.029 A 
ENDBRANCH  13  16
ENDBRANCH  10  12
BRANCH   9  22
HETATM   22  C   UNL     1      43.356 -17.220   3.455  1.00  0.00    -0.011 A 
HETATM   23  C   UNL     1      42.835 -18.474   3.771  1.00  0.00     0.125 A 
HETATM   24  N   UNL     1      42.871 -19.541   2.943  1.00  0.00    -0.272 NA
HETATM   25  C   UNL     1      43.452 -19.361   1.739  1.00  0.00     0.116 A 
HETATM   26  C   UNL     1      44.010 -18.164   1.328  1.00  0.00     0.020 A 
HETATM   27  C   UNL     1      43.965 -17.080   2.201  1.00  0.00     0.012 A 
ENDBRANCH   9  22
TORSDOF 3
ENDMDL
MODEL 8
REMARK VINA RESULT:      -7.2      3.095      6.893
REMARK  3 active torsions:
REMARK  status: ('A' for Active; 'I' for Inactive)
REMARK    1  A    between atoms: C_9  and  C_10 
REMARK    2  A    between atoms: C_16  and  C_17 
REMARK       I    between atoms: C_17  and  N_18 
REMARK    3  A    between atoms: N_18  and  C_19 
ROOT
HETATM    1  C   UNL     1      42.987 -17.381   7.538  1.00  0.00     0.070 C 
HETATM    2  C   UNL     1      43.098 -17.161   6.050  1.00  0.00     0.037 C 
HETATM    3  N   UNL     1      43.025 -18.310   5.266  1.00  0.00    -0.191 N 
HETATM    4  C   UNL     1      43.315 -18.318   3.949  1.00  0.00     0.735 A 
HETATM    5  N   UNL     1      43.578 -17.137   3.315  1.00  0.00    -0.092 N 
HETATM    6  N   UNL     1      43.913 -17.361   2.035  1.00  0.00     0.012 NA
HETATM    7  N   UNL     1      43.806 -18.679   1.889  1.00  0.00     0.033 NA
HETATM    8  N   UNL     1      43.435 -19.287   3.075  1.00  0.00     0.030 NA
HETATM    9  C   UNL     1      43.552 -15.825   3.955  1.00  0.00     0.199 C 
HETATM   10  C   UNL     1      43.321 -15.961   5.458  1.00  0.00     0.062 C 
HETATM   11  H   UNL     1      42.936 -19.203   5.747  1.00  0.00     0.184 HD
ENDROOT
BRANCH  10  12
HETATM   12  C   UNL     1      43.472 -14.679   6.200  1.00  0.00     0.256 C 
HETATM   13  N   UNL     1      44.692 -14.551   6.825  1.00  0.00    -0.323 N 
HETATM   14  H   UNL     1      45.348 -15.314   6.723  1.00  0.00     0.169 HD
HETATM   15  O   UNL     1      42.518 -13.915   6.239  1.00  0.00    -0.267 OA
BRANCH  13  16
HETATM   16  C   UNL     1      45.139 -13.469   7.612  1.00  0.00     0.035 A 
HETATM   17  C   UNL     1      44.424 -12.936   8.685  1.00  0.00     0.029 A 
HETATM   18  C   UNL     1      44.938 -11.858   9.414  1.00  0.00     0.002 A 
HETATM   19  C   UNL     1      46.167 -11.300   9.071  1.00  0.00     0.000 A 
HETATM   20  C   UNL     1      46.888 -11.823   8.002  1.00  0.00     0.002 A 
HETATM   21  C   UNL     1      46.378 -12.905   7.278  1.00  0.00     0.029 A 
ENDBRANCH  13  16
ENDBRANCH  10  12
BRANCH   9  22
HETATM   22  C   UNL     1      42.516 -14.933   3.294  1.00  0.00    -0.011 A 
HETATM   23  C   UNL     1      41.178 -15.323   3.271  1.00  0.00     0.125 A 
HETATM   24  N   UNL     1      40.188 -14.605   2.695  1.00  0.00    -0.272 NA
HETATM   25  C   UNL     1      40.538 -13.440   2.112  1.00  0.00     0.116 A 
HETATM   26  C   UNL     1      41.837 -12.964   2.068  1.00  0.00     0.020 A 
HETATM   27  C   UNL     1      42.839 -13.725   2.663  1.00  0.00     0.012 A 
ENDBRANCH   9  22
TORSDOF 3
ENDMDL
MODEL 9
REMARK VINA RESULT:      -7.1      2.855      4.623
REMARK  3 active torsions:
REMARK  status: ('A' for Active; 'I' for Inactive)
REMARK    1  A    between atoms: C_9  and  C_10 
REMARK    2  A    between atoms: C_16  and  C_17 
REMARK       I    between atoms: C_17  and  N_18 
REMARK    3  A    between atoms: N_18  and  C_19 
ROOT
HETATM    1  C   UNL     1      40.955 -15.819  -2.070  1.00  0.00     0.070 C 
HETATM    2  C   UNL     1      41.326 -14.545  -1.352  1.00  0.00     0.037 C 
HETATM    3  N   UNL     1      41.412 -13.408  -2.153  1.00  0.00    -0.191 N 
HETATM    4  C   UNL     1      41.932 -12.243  -1.717  1.00  0.00     0.735 A 
HETATM    5  N   UNL     1      42.286 -12.118  -0.403  1.00  0.00    -0.092 N 
HETATM    6  N   UNL     1      42.848 -10.919  -0.185  1.00  0.00     0.012 NA
HETATM    7  N   UNL     1      42.788 -10.305  -1.363  1.00  0.00     0.033 NA
HETATM    8  N   UNL     1      42.221 -11.119  -2.327  1.00  0.00     0.030 NA
HETATM    9  C   UNL     1      42.126 -13.163   0.605  1.00  0.00     0.199 C 
HETATM   10  C   UNL     1      41.633 -14.459  -0.034  1.00  0.00     0.062 C 
HETATM   11  H   UNL     1      41.252 -13.522  -3.152  1.00  0.00     0.184 HD
ENDROOT
BRANCH  10  12
HETATM   12  C   UNL     1      41.630 -15.617   0.902  1.00  0.00     0.256 C 
HETATM   13  N   UNL     1      42.886 -16.123   1.147  1.00  0.00    -0.323 N 
HETATM   14  H   UNL     1      43.666 -15.675   0.685  1.00  0.00     0.169 HD
HETATM   15  O   UNL     1      40.553 -16.037   1.303  1.00  0.00    -0.267 OA
BRANCH  13  16
HETATM   16  C   UNL     1      43.220 -17.219   1.972  1.00  0.00     0.035 A 
HETATM   17  C   UNL     1      43.319 -17.146   3.363  1.00  0.00     0.029 A 
HETATM   18  C   UNL     1      43.658 -18.280   4.108  1.00  0.00     0.002 A 
HETATM   19  C   UNL     1      43.909 -19.492   3.470  1.00  0.00     0.000 A 
HETATM   20  C   UNL     1      43.815 -19.575   2.084  1.00  0.00     0.002 A 
HETATM   21  C   UNL     1      43.468 -18.444   1.339  1.00  0.00     0.029 A 
ENDBRANCH  13  16
ENDBRANCH  10  12
BRANCH   9  22
HETATM   22  C   UNL     1      41.211 -12.688   1.719  1.00  0.00    -0.011 A 
HETATM   23  C   UNL     1      41.715 -12.519   3.007  1.00  0.00     0.125 A 
HETATM   24  N   UNL     1      40.976 -12.114   4.065  1.00  0.00    -0.272 NA
HETATM   25  C   UNL     1      39.670 -11.863   3.837  1.00  0.00     0.116 A 
HETATM   26  C   UNL     1      39.065 -12.009   2.601  1.00  0.00     0.020 A 
HETATM   27  C   UNL     1      39.846 -12.432   1.529  1.00  0.00     0.012 A 
ENDBRANCH   9  22
TORSDOF 3
ENDMDL
MODEL 10
REMARK VINA RESULT:      -7.0      2.426      4.373
REMARK  3 active torsions:
REMARK  status: ('A' for Active; 'I' for Inactive)
REMARK    1  A    between atoms: C_9  and  C_10 
REMARK    2  A    between atoms: C_16  and  C_17 
REMARK       I    between atoms: C_17  and  N_18 
REMARK    3  A    between atoms: N_18  and  C_19 
ROOT
HETATM    1  C   UNL     1      40.930 -17.409   1.006  1.00  0.00     0.070 C 
HETATM    2  C   UNL     1      41.238 -15.934   1.088  1.00  0.00     0.037 C 
HETATM    3  N   UNL     1      41.171 -15.240  -0.118  1.00  0.00    -0.191 N 
HETATM    4  C   UNL     1      41.618 -13.975  -0.260  1.00  0.00     0.735 A 
HETATM    5  N   UNL     1      42.047 -13.290   0.841  1.00  0.00    -0.092 N 
HETATM    6  N   UNL     1      42.516 -12.084   0.483  1.00  0.00     0.012 NA
HETATM    7  N   UNL     1      42.325 -12.030  -0.832  1.00  0.00     0.033 NA
HETATM    8  N   UNL     1      41.767 -13.202  -1.308  1.00  0.00     0.030 NA
HETATM    9  C   UNL     1      42.046 -13.817   2.203  1.00  0.00     0.199 C 
HETATM   10  C   UNL     1      41.624 -15.285   2.214  1.00  0.00     0.062 C 
HETATM   11  H   UNL     1      40.955 -15.774  -0.958  1.00  0.00     0.184 HD
ENDROOT
BRANCH  10  12
HETATM   12  C   UNL     1      41.784 -15.937   3.543  1.00  0.00     0.256 C 
HETATM   13  N   UNL     1      43.052 -16.423   3.762  1.00  0.00    -0.323 N 
HETATM   14  H   UNL     1      43.733 -16.294   3.026  1.00  0.00     0.169 HD
HETATM   15  O   UNL     1      40.800 -16.035   4.263  1.00  0.00    -0.267 OA
BRANCH  13  16
HETATM   16  C   UNL     1      43.521 -17.101   4.908  1.00  0.00     0.035 A 
HETATM   17  C   UNL     1      43.870 -16.467   6.102  1.00  0.00     0.029 A 
HETATM   18  C   UNL     1      44.329 -17.213   7.192  1.00  0.00     0.002 A 
HETATM   19  C   UNL     1      44.452 -18.596   7.095  1.00  0.00     0.000 A 
HETATM   20  C   UNL     1      44.108 -19.239   5.909  1.00  0.00     0.002 A 
HETATM   21  C   UNL     1      43.641 -18.494   4.822  1.00  0.00     0.029 A 
ENDBRANCH  13  16
ENDBRANCH  10  12
BRANCH   9  22
HETATM   22  C   UNL     1      41.170 -12.962   3.101  1.00  0.00    -0.011 A 
HETATM   23  C   UNL     1      41.732 -12.294   4.187  1.00  0.00     0.125 A 
HETATM   24  N   UNL     1      41.032 -11.523   5.049  1.00  0.00    -0.272 NA
HETATM   25  C   UNL     1      39.707 -11.404   4.826  1.00  0.00     0.116 A 
HETATM   26  C   UNL     1      39.045 -12.032   3.784  1.00  0.00     0.020 A 
HETATM   27  C   UNL     1      39.788 -12.825   2.914  1.00  0.00     0.012 A 
ENDBRANCH   9  22
TORSDOF 3
ENDMDL
