MODEL 1
REMARK VINA RESULT:      -8.4      0.000      0.000
REMARK  9 active torsions:
REMARK  status: ('A' for Active; 'I' for Inactive)
REMARK    1  A    between atoms: C_2  and  O_3 
REMARK    2  A    between atoms: O_3  and  C_4 
REMARK    3  A    between atoms: C_5  and  C_6 
REMARK    4  A    between atoms: N_7  and  C_9 
REMARK    5  A    between atoms: C_9  and  C_10 
REMARK       I    between atoms: C_10  and  N_11 
REMARK    6  A    between atoms: N_11  and  C_12 
REMARK    7  A    between atoms: C_20  and  C_21 
REMARK    8  A    between atoms: C_21  and  O_22 
REMARK    9  A    between atoms: C_28  and  O_29 
ROOT
HETATM    1  C   UNL     1      40.915 -13.699   0.206  1.00  0.00     0.231 C 
HETATM    2  N   UNL     1      40.759 -15.179  -0.148  1.00  0.00    -0.054 N 
HETATM    3  H   UNL     1      39.973 -15.529   0.420  1.00  0.00     0.281 HD
HETATM    4  C   UNL     1      40.308 -15.357  -1.579  1.00  0.00     0.239 C 
HETATM    5  C   UNL     1      41.298 -14.714  -2.541  1.00  0.00     0.066 C 
HETATM    6  C   UNL     1      41.477 -13.227  -2.230  1.00  0.00     0.065 C 
HETATM    7  C   UNL     1      41.927 -13.024  -0.760  1.00  0.00     0.055 C 
HETATM    8  C   UNL     1      42.480 -12.578  -3.198  1.00  0.00     0.038 C 
HETATM    9  C   UNL     1      42.672 -11.090  -2.902  1.00  0.00     0.003 C 
HETATM   10  C   UNL     1      43.064 -10.854  -1.447  1.00  0.00     0.001 C 
HETATM   11  C   UNL     1      42.092 -11.515  -0.471  1.00  0.00     0.010 C 
ENDROOT
BRANCH   2  12
HETATM   12  C   UNL     1      41.909 -16.106   0.260  1.00  0.00     0.338 C 
BRANCH  12  13
HETATM   13  C   UNL     1      41.769 -16.586   1.709  1.00  0.00     0.248 C 
HETATM   14  N   UNL     1      42.977 -16.719   2.361  1.00  0.00    -0.319 N 
HETATM   15  H   UNL     1      43.827 -16.361   1.923  1.00  0.00     0.169 HD
HETATM   16  O   UNL     1      40.643 -16.853   2.122  1.00  0.00    -0.271 OA
BRANCH  14  17
HETATM   17  C   UNL     1      43.200 -17.297   3.607  1.00  0.00     0.094 A 
HETATM   18  S   UNL     1      43.082 -16.390   5.033  1.00  0.00    -0.075 SA
HETATM   19  C   UNL     1      43.428 -17.737   6.000  1.00  0.00    -0.008 A 
HETATM   20  C   UNL     1      43.613 -18.892   5.264  1.00  0.00    -0.026 A 
HETATM   21  C   UNL     1      43.476 -17.635   7.495  1.00  0.00     0.047 C 
HETATM   22  C   UNL     1      43.915 -20.203   5.942  1.00  0.00     0.041 C 
HETATM   23  C   UNL     1      43.505 -18.637   3.840  1.00  0.00     0.080 A 
HETATM   24  C   UNL     1      43.626 -20.162   7.452  1.00  0.00     0.005 C 
HETATM   25  C   UNL     1      44.150 -18.873   8.097  1.00  0.00     0.005 C 
BRANCH  23  26
HETATM   26  C   UNL     1      43.666 -19.584   2.731  1.00  0.00     0.296 C 
HETATM   27  O   UNL     1      42.831 -19.679   1.833  1.00  0.00    -0.259 OA
BRANCH  26  28
HETATM   28  O   UNL     1      44.811 -20.314   2.796  1.00  0.00    -0.322 OA
HETATM   29  C   UNL     1      44.648 -21.711   2.545  1.00  0.00     0.213 C 
ENDBRANCH  26  28
ENDBRANCH  23  26
ENDBRANCH  14  17
ENDBRANCH  12  13
ENDBRANCH   2  12
BRANCH   1  30
HETATM   30  C   UNL     1      41.072 -13.433   1.700  1.00  0.00     0.006 A 
HETATM   31  C   UNL     1      40.007 -13.430   2.626  1.00  0.00     0.077 A 
HETATM   32  C   UNL     1      40.275 -13.265   3.992  1.00  0.00     0.037 A 
HETATM   33  C   UNL     1      41.579 -13.069   4.446  1.00  0.00     0.003 A 
HETATM   34  C   UNL     1      42.632 -13.034   3.542  1.00  0.00     0.001 A 
HETATM   35  C   UNL     1      42.381 -13.214   2.184  1.00  0.00     0.012 A 
BRANCH  31  36
HETATM   36  O   UNL     1      38.745 -13.592   2.116  1.00  0.00    -0.351 OA
BRANCH  36  37
HETATM   37  C   UNL     1      38.041 -12.407   1.721  1.00  0.00     0.171 C 
HETATM   38  C   UNL     1      37.207 -12.745   0.499  1.00  0.00     0.034 C 
ENDBRANCH  36  37
ENDBRANCH  31  36
ENDBRANCH   1  30
BRANCH   6  39
HETATM   39  O   UNL     1      40.193 -12.613  -2.400  1.00  0.00    -0.389 OA
HETATM   40  H   UNL     1      39.559 -13.011  -1.771  1.00  0.00     0.210 HD
ENDBRANCH   6  39
TORSDOF 9
ENDMDL
MODEL 2
REMARK VINA RESULT:      -8.3      2.506      3.669
REMARK  9 active torsions:
REMARK  status: ('A' for Active; 'I' for Inactive)
REMARK    1  A    between atoms: C_2  and  O_3 
REMARK    2  A    between atoms: O_3  and  C_4 
REMARK    3  A    between atoms: C_5  and  C_6 
REMARK    4  A    between atoms: N_7  and  C_9 
REMARK    5  A    between atoms: C_9  and  C_10 
REMARK       I    between atoms: C_10  and  N_11 
REMARK    6  A    between atoms: N_11  and  C_12 
REMARK    7  A    between atoms: C_20  and  C_21 
REMARK    8  A    between atoms: C_21  and  O_22 
REMARK    9  A    between atoms: C_28  and  O_29 
ROOT
HETATM    1  C   UNL     1      40.229 -13.424   2.734  1.00  0.00     0.231 C 
HETATM    2  N   UNL     1      39.810 -14.733   2.062  1.00  0.00    -0.054 N 
HETATM    3  H   UNL     1      39.635 -15.404   2.825  1.00  0.00     0.281 HD
HETATM    4  C   UNL     1      38.477 -14.589   1.364  1.00  0.00     0.239 C 
HETATM    5  C   UNL     1      38.532 -13.485   0.318  1.00  0.00     0.066 C 
HETATM    6  C   UNL     1      38.938 -12.152   0.948  1.00  0.00     0.065 C 
HETATM    7  C   UNL     1      40.298 -12.283   1.681  1.00  0.00     0.055 C 
HETATM    8  C   UNL     1      38.998 -11.036  -0.109  1.00  0.00     0.038 C 
HETATM    9  C   UNL     1      39.403  -9.695   0.504  1.00  0.00     0.003 C 
HETATM   10  C   UNL     1      40.712  -9.805   1.278  1.00  0.00     0.001 C 
HETATM   11  C   UNL     1      40.680 -10.926   2.316  1.00  0.00     0.010 C 
ENDROOT
BRANCH   2  12
HETATM   12  C   UNL     1      40.876 -15.445   1.223  1.00  0.00     0.338 C 
BRANCH  12  13
HETATM   13  C   UNL     1      41.116 -16.880   1.705  1.00  0.00     0.248 C 
HETATM   14  N   UNL     1      42.273 -17.023   2.441  1.00  0.00    -0.319 N 
HETATM   15  H   UNL     1      42.787 -16.192   2.740  1.00  0.00     0.169 HD
HETATM   16  O   UNL     1      40.319 -17.747   1.356  1.00  0.00    -0.271 OA
BRANCH  14  17
HETATM   17  C   UNL     1      42.859 -18.213   2.863  1.00  0.00     0.094 A 
HETATM   18  S   UNL     1      43.404 -19.370   1.751  1.00  0.00    -0.075 SA
HETATM   19  C   UNL     1      43.965 -20.390   2.981  1.00  0.00    -0.008 A 
HETATM   20  C   UNL     1      43.773 -19.862   4.244  1.00  0.00    -0.026 A 
HETATM   21  C   UNL     1      44.630 -21.697   2.672  1.00  0.00     0.047 C 
HETATM   22  C   UNL     1      44.219 -20.611   5.473  1.00  0.00     0.041 C 
HETATM   23  C   UNL     1      43.093 -18.582   4.186  1.00  0.00     0.080 A 
HETATM   24  C   UNL     1      45.185 -21.759   5.140  1.00  0.00     0.005 C 
HETATM   25  C   UNL     1      44.711 -22.571   3.929  1.00  0.00     0.005 C 
BRANCH  23  26
HETATM   26  C   UNL     1      42.680 -17.719   5.300  1.00  0.00     0.296 C 
HETATM   27  O   UNL     1      41.514 -17.350   5.436  1.00  0.00    -0.259 OA
BRANCH  26  28
HETATM   28  O   UNL     1      43.693 -17.392   6.145  1.00  0.00    -0.322 OA
HETATM   29  C   UNL     1      43.324 -17.309   7.523  1.00  0.00     0.213 C 
ENDBRANCH  26  28
ENDBRANCH  23  26
ENDBRANCH  14  17
ENDBRANCH  12  13
ENDBRANCH   2  12
BRANCH   1  30
HETATM   30  C   UNL     1      41.400 -13.572   3.700  1.00  0.00     0.006 A 
HETATM   31  C   UNL     1      41.268 -13.729   5.096  1.00  0.00     0.077 A 
HETATM   32  C   UNL     1      42.407 -13.949   5.882  1.00  0.00     0.037 A 
HETATM   33  C   UNL     1      43.677 -13.981   5.305  1.00  0.00     0.003 A 
HETATM   34  C   UNL     1      43.825 -13.791   3.939  1.00  0.00     0.001 A 
HETATM   35  C   UNL     1      42.699 -13.589   3.145  1.00  0.00     0.012 A 
BRANCH  31  36
HETATM   36  O   UNL     1      39.998 -13.653   5.608  1.00  0.00    -0.351 OA
BRANCH  36  37
HETATM   37  C   UNL     1      39.738 -12.619   6.565  1.00  0.00     0.171 C 
HETATM   38  C   UNL     1      39.456 -11.337   5.804  1.00  0.00     0.034 C 
ENDBRANCH  36  37
ENDBRANCH  31  36
ENDBRANCH   1  30
BRANCH   6  39
HETATM   39  O   UNL     1      37.931 -11.830   1.916  1.00  0.00    -0.389 OA
HETATM   40  H   UNL     1      37.109 -11.571   1.453  1.00  0.00     0.210 HD
ENDBRANCH   6  39
TORSDOF 9
ENDMDL
MODEL 3
REMARK VINA RESULT:      -8.3      5.974      8.635
REMARK  9 active torsions:
REMARK  status: ('A' for Active; 'I' for Inactive)
REMARK    1  A    between atoms: C_2  and  O_3 
REMARK    2  A    between atoms: O_3  and  C_4 
REMARK    3  A    between atoms: C_5  and  C_6 
REMARK    4  A    between atoms: N_7  and  C_9 
REMARK    5  A    between atoms: C_9  and  C_10 
REMARK       I    between atoms: C_10  and  N_11 
REMARK    6  A    between atoms: N_11  and  C_12 
REMARK    7  A    between atoms: C_20  and  C_21 
REMARK    8  A    between atoms: C_21  and  O_22 
REMARK    9  A    between atoms: C_28  and  O_29 
ROOT
HETATM    1  C   UNL     1      40.846 -13.147   4.851  1.00  0.00     0.231 C 
HETATM    2  N   UNL     1      40.619 -12.013   5.853  1.00  0.00    -0.054 N 
HETATM    3  H   UNL     1      41.486 -11.943   6.407  1.00  0.00     0.281 HD
HETATM    4  C   UNL     1      40.502 -10.678   5.153  1.00  0.00     0.239 C 
HETATM    5  C   UNL     1      39.358 -10.694   4.148  1.00  0.00     0.066 C 
HETATM    6  C   UNL     1      39.548 -11.809   3.118  1.00  0.00     0.065 C 
HETATM    7  C   UNL     1      39.685 -13.186   3.818  1.00  0.00     0.055 C 
HETATM    8  C   UNL     1      38.392 -11.829   2.105  1.00  0.00     0.038 C 
HETATM    9  C   UNL     1      38.566 -12.938   1.068  1.00  0.00     0.003 C 
HETATM   10  C   UNL     1      38.756 -14.299   1.728  1.00  0.00     0.001 C 
HETATM   11  C   UNL     1      39.886 -14.291   2.757  1.00  0.00     0.010 C 
ENDROOT
BRANCH   2  12
HETATM   12  C   UNL     1      39.550 -12.249   6.924  1.00  0.00     0.338 C 
BRANCH  12  13
HETATM   13  C   UNL     1      39.635 -11.215   8.052  1.00  0.00     0.248 C 
HETATM   14  N   UNL     1      40.739 -11.378   8.862  1.00  0.00    -0.319 N 
HETATM   15  H   UNL     1      41.472 -12.035   8.588  1.00  0.00     0.169 HD
HETATM   16  O   UNL     1      38.719 -10.403   8.162  1.00  0.00    -0.271 OA
BRANCH  14  17
HETATM   17  C   UNL     1      41.006 -10.725  10.062  1.00  0.00     0.094 A 
HETATM   18  S   UNL     1      39.763 -10.042  10.989  1.00  0.00    -0.075 SA
HETATM   19  C   UNL     1      40.843  -9.535  12.190  1.00  0.00    -0.008 A 
HETATM   20  C   UNL     1      42.150  -9.895  11.922  1.00  0.00    -0.026 A 
HETATM   21  C   UNL     1      40.368  -8.812  13.415  1.00  0.00     0.047 C 
HETATM   22  C   UNL     1      43.261  -9.549  12.880  1.00  0.00     0.041 C 
HETATM   23  C   UNL     1      42.261 -10.579  10.649  1.00  0.00     0.080 A 
HETATM   24  C   UNL     1      42.733  -9.125  14.260  1.00  0.00     0.005 C 
HETATM   25  C   UNL     1      41.547  -8.160  14.146  1.00  0.00     0.005 C 
BRANCH  23  26
HETATM   26  C   UNL     1      43.471 -11.091   9.992  1.00  0.00     0.296 C 
HETATM   27  O   UNL     1      43.897 -10.602   8.947  1.00  0.00    -0.259 OA
BRANCH  26  28
HETATM   28  O   UNL     1      44.056 -12.125  10.652  1.00  0.00    -0.322 OA
HETATM   29  C   UNL     1      45.466 -11.996  10.843  1.00  0.00     0.213 C 
ENDBRANCH  26  28
ENDBRANCH  23  26
ENDBRANCH  14  17
ENDBRANCH  12  13
ENDBRANCH   2  12
BRANCH   1  30
HETATM   30  C   UNL     1      41.272 -14.463   5.492  1.00  0.00     0.006 A 
HETATM   31  C   UNL     1      42.568 -14.731   5.980  1.00  0.00     0.077 A 
HETATM   32  C   UNL     1      42.828 -15.943   6.636  1.00  0.00     0.037 A 
HETATM   33  C   UNL     1      41.828 -16.904   6.783  1.00  0.00     0.003 A 
HETATM   34  C   UNL     1      40.558 -16.669   6.276  1.00  0.00     0.001 A 
HETATM   35  C   UNL     1      40.283 -15.462   5.637  1.00  0.00     0.012 A 
BRANCH  31  36
HETATM   36  O   UNL     1      43.517 -13.763   5.775  1.00  0.00    -0.351 OA
BRANCH  36  37
HETATM   37  C   UNL     1      44.863 -14.074   6.155  1.00  0.00     0.171 C 
HETATM   38  C   UNL     1      45.101 -13.503   7.541  1.00  0.00     0.034 C 
ENDBRANCH  36  37
ENDBRANCH  31  36
ENDBRANCH   1  30
BRANCH   6  39
HETATM   39  O   UNL     1      40.774 -11.527   2.429  1.00  0.00    -0.389 OA
HETATM   40  H   UNL     1      41.163 -12.364   2.107  1.00  0.00     0.210 HD
ENDBRANCH   6  39
TORSDOF 9
ENDMDL
MODEL 4
REMARK VINA RESULT:      -8.3      2.342      5.294
REMARK  9 active torsions:
REMARK  status: ('A' for Active; 'I' for Inactive)
REMARK    1  A    between atoms: C_2  and  O_3 
REMARK    2  A    between atoms: O_3  and  C_4 
REMARK    3  A    between atoms: C_5  and  C_6 
REMARK    4  A    between atoms: N_7  and  C_9 
REMARK    5  A    between atoms: C_9  and  C_10 
REMARK       I    between atoms: C_10  and  N_11 
REMARK    6  A    between atoms: N_11  and  C_12 
REMARK    7  A    between atoms: C_20  and  C_21 
REMARK    8  A    between atoms: C_21  and  O_22 
REMARK    9  A    between atoms: C_28  and  O_29 
ROOT
HETATM    1  C   UNL     1      39.070 -12.628  -0.505  1.00  0.00     0.231 C 
HETATM    2  N   UNL     1      39.777 -13.131   0.755  1.00  0.00    -0.054 N 
HETATM    3  H   UNL     1      40.763 -13.278   0.491  1.00  0.00     0.281 HD
HETATM    4  C   UNL     1      39.821 -12.063   1.824  1.00  0.00     0.239 C 
HETATM    5  C   UNL     1      38.415 -11.606   2.188  1.00  0.00     0.066 C 
HETATM    6  C   UNL     1      37.672 -11.084   0.957  1.00  0.00     0.065 C 
HETATM    7  C   UNL     1      37.629 -12.161  -0.157  1.00  0.00     0.055 C 
HETATM    8  C   UNL     1      36.251 -10.625   1.322  1.00  0.00     0.038 C 
HETATM    9  C   UNL     1      35.493 -10.100   0.102  1.00  0.00     0.003 C 
HETATM   10  C   UNL     1      35.480 -11.119  -1.031  1.00  0.00     0.001 C 
HETATM   11  C   UNL     1      36.883 -11.605  -1.391  1.00  0.00     0.010 C 
ENDROOT
BRANCH   2  12
HETATM   12  C   UNL     1      39.356 -14.511   1.273  1.00  0.00     0.338 C 
BRANCH  12  13
HETATM   13  C   UNL     1      40.556 -15.449   1.437  1.00  0.00     0.248 C 
HETATM   14  N   UNL     1      40.405 -16.355   2.466  1.00  0.00    -0.319 N 
HETATM   15  H   UNL     1      39.498 -16.448   2.926  1.00  0.00     0.169 HD
HETATM   16  O   UNL     1      41.528 -15.279   0.704  1.00  0.00    -0.271 OA
BRANCH  14  17
HETATM   17  C   UNL     1      41.374 -17.211   2.981  1.00  0.00     0.094 A 
HETATM   18  S   UNL     1      42.247 -18.261   1.978  1.00  0.00    -0.075 SA
HETATM   19  C   UNL     1      43.159 -18.855   3.275  1.00  0.00    -0.008 A 
HETATM   20  C   UNL     1      42.836 -18.253   4.477  1.00  0.00    -0.026 A 
HETATM   21  C   UNL     1      44.220 -19.895   3.074  1.00  0.00     0.047 C 
HETATM   22  C   UNL     1      43.548 -18.633   5.749  1.00  0.00     0.041 C 
HETATM   23  C   UNL     1      41.760 -17.294   4.318  1.00  0.00     0.080 A 
HETATM   24  C   UNL     1      44.837 -19.428   5.484  1.00  0.00     0.005 C 
HETATM   25  C   UNL     1      44.632 -20.509   4.417  1.00  0.00     0.005 C 
BRANCH  23  26
HETATM   26  C   UNL     1      41.111 -16.475   5.348  1.00  0.00     0.296 C 
HETATM   27  O   UNL     1      40.532 -16.980   6.309  1.00  0.00    -0.259 OA
BRANCH  26  28
HETATM   28  O   UNL     1      41.225 -15.137   5.138  1.00  0.00    -0.322 OA
HETATM   29  C   UNL     1      40.085 -14.367   5.524  1.00  0.00     0.213 C 
ENDBRANCH  26  28
ENDBRANCH  23  26
ENDBRANCH  14  17
ENDBRANCH  12  13
ENDBRANCH   2  12
BRANCH   1  30
HETATM   30  C   UNL     1      39.252 -13.532  -1.719  1.00  0.00     0.006 A 
HETATM   31  C   UNL     1      40.496 -13.831  -2.314  1.00  0.00     0.077 A 
HETATM   32  C   UNL     1      40.559 -14.748  -3.371  1.00  0.00     0.037 A 
HETATM   33  C   UNL     1      39.401 -15.347  -3.868  1.00  0.00     0.003 A 
HETATM   34  C   UNL     1      38.166 -15.035  -3.317  1.00  0.00     0.001 A 
HETATM   35  C   UNL     1      38.092 -14.137  -2.254  1.00  0.00     0.012 A 
BRANCH  31  36
HETATM   36  O   UNL     1      41.594 -13.185  -1.805  1.00  0.00    -0.351 OA
BRANCH  36  37
HETATM   37  C   UNL     1      42.661 -12.893  -2.715  1.00  0.00     0.171 C 
HETATM   38  C   UNL     1      42.401 -11.524  -3.316  1.00  0.00     0.034 C 
ENDBRANCH  36  37
ENDBRANCH  31  36
ENDBRANCH   1  30
BRANCH   6  39
HETATM   39  O   UNL     1      38.420  -9.960   0.472  1.00  0.00    -0.389 OA
HETATM   40  H   UNL     1      39.036  -9.658   1.167  1.00  0.00     0.210 HD
ENDBRANCH   6  39
TORSDOF 9
ENDMDL
MODEL 5
REMARK VINA RESULT:      -8.2      2.789      5.450
REMARK  9 active torsions:
REMARK  status: ('A' for Active; 'I' for Inactive)
REMARK    1  A    between atoms: C_2  and  O_3 
REMARK    2  A    between atoms: O_3  and  C_4 
REMARK    3  A    between atoms: C_5  and  C_6 
REMARK    4  A    between atoms: N_7  and  C_9 
REMARK    5  A    between atoms: C_9  and  C_10 
REMARK       I    between atoms: C_10  and  N_11 
REMARK    6  A    between atoms: N_11  and  C_12 
REMARK    7  A    between atoms: C_20  and  C_21 
REMARK    8  A    between atoms: C_21  and  O_22 
REMARK    9  A    between atoms: C_28  and  O_29 
ROOT
HETATM    1  C   UNL     1      40.909 -12.382   3.880  1.00  0.00     0.231 C 
HETATM    2  N   UNL     1      41.375 -13.185   5.096  1.00  0.00    -0.054 N 
HETATM    3  H   UNL     1      42.140 -13.791   4.764  1.00  0.00     0.281 HD
HETATM    4  C   UNL     1      42.016 -12.290   6.132  1.00  0.00     0.239 C 
HETATM    5  C   UNL     1      41.045 -11.209   6.587  1.00  0.00     0.066 C 
HETATM    6  C   UNL     1      40.560 -10.373   5.402  1.00  0.00     0.065 C 
HETATM    7  C   UNL     1      39.911 -11.276   4.322  1.00  0.00     0.055 C 
HETATM    8  C   UNL     1      39.576  -9.284   5.860  1.00  0.00     0.038 C 
HETATM    9  C   UNL     1      39.080  -8.438   4.687  1.00  0.00     0.003 C 
HETATM   10  C   UNL     1      38.483  -9.304   3.583  1.00  0.00     0.001 C 
HETATM   11  C   UNL     1      39.438 -10.409   3.133  1.00  0.00     0.010 C 
ENDROOT
BRANCH   2  12
HETATM   12  C   UNL     1      40.375 -14.190   5.678  1.00  0.00     0.338 C 
BRANCH  12  13
HETATM   13  C   UNL     1      40.890 -15.630   5.579  1.00  0.00     0.248 C 
HETATM   14  N   UNL     1      41.916 -15.782   4.671  1.00  0.00    -0.319 N 
HETATM   15  H   UNL     1      42.353 -14.955   4.261  1.00  0.00     0.169 HD
HETATM   16  O   UNL     1      40.326 -16.492   6.248  1.00  0.00    -0.271 OA
BRANCH  14  17
HETATM   17  C   UNL     1      42.472 -16.977   4.223  1.00  0.00     0.094 A 
HETATM   18  S   UNL     1      42.158 -17.567   2.666  1.00  0.00    -0.075 SA
HETATM   19  C   UNL     1      43.158 -18.913   2.898  1.00  0.00    -0.008 A 
HETATM   20  C   UNL     1      43.763 -18.923   4.141  1.00  0.00    -0.026 A 
HETATM   21  C   UNL     1      43.363 -19.932   1.817  1.00  0.00     0.047 C 
HETATM   22  C   UNL     1      44.705 -20.032   4.536  1.00  0.00     0.041 C 
HETATM   23  C   UNL     1      43.341 -17.792   4.945  1.00  0.00     0.080 A 
HETATM   24  C   UNL     1      45.166 -20.865   3.329  1.00  0.00     0.005 C 
HETATM   25  C   UNL     1      44.002 -21.202   2.390  1.00  0.00     0.005 C 
BRANCH  23  26
HETATM   26  C   UNL     1      43.725 -17.461   6.323  1.00  0.00     0.296 C 
HETATM   27  O   UNL     1      43.317 -18.111   7.284  1.00  0.00    -0.259 OA
BRANCH  26  28
HETATM   28  O   UNL     1      44.566 -16.397   6.416  1.00  0.00    -0.322 OA
HETATM   29  C   UNL     1      44.134 -15.365   7.306  1.00  0.00     0.213 C 
ENDBRANCH  26  28
ENDBRANCH  23  26
ENDBRANCH  14  17
ENDBRANCH  12  13
ENDBRANCH   2  12
BRANCH   1  30
HETATM   30  C   UNL     1      40.532 -13.242   2.679  1.00  0.00     0.006 A 
HETATM   31  C   UNL     1      41.273 -13.308   1.480  1.00  0.00     0.077 A 
HETATM   32  C   UNL     1      40.886 -14.203   0.472  1.00  0.00     0.037 A 
HETATM   33  C   UNL     1      39.757 -15.006   0.625  1.00  0.00     0.003 A 
HETATM   34  C   UNL     1      38.998 -14.926   1.784  1.00  0.00     0.001 A 
HETATM   35  C   UNL     1      39.381 -14.053   2.799  1.00  0.00     0.012 A 
BRANCH  31  36
HETATM   36  O   UNL     1      42.352 -12.469   1.374  1.00  0.00    -0.351 OA
BRANCH  36  37
HETATM   37  C   UNL     1      42.471 -11.703   0.169  1.00  0.00     0.171 C 
HETATM   38  C   UNL     1      41.769 -10.376   0.387  1.00  0.00     0.034 C 
ENDBRANCH  36  37
ENDBRANCH  31  36
ENDBRANCH   1  30
BRANCH   6  39
HETATM   39  O   UNL     1      41.721  -9.751   4.835  1.00  0.00    -0.389 OA
HETATM   40  H   UNL     1      42.420  -9.691   5.515  1.00  0.00     0.210 HD
ENDBRANCH   6  39
TORSDOF 9
ENDMDL
MODEL 6
REMARK VINA RESULT:      -8.2      2.227      8.338
REMARK  9 active torsions:
REMARK  status: ('A' for Active; 'I' for Inactive)
REMARK    1  A    between atoms: C_2  and  O_3 
REMARK    2  A    between atoms: O_3  and  C_4 
REMARK    3  A    between atoms: C_5  and  C_6 
REMARK    4  A    between atoms: N_7  and  C_9 
REMARK    5  A    between atoms: C_9  and  C_10 
REMARK       I    between atoms: C_10  and  N_11 
REMARK    6  A    between atoms: N_11  and  C_12 
REMARK    7  A    between atoms: C_20  and  C_21 
REMARK    8  A    between atoms: C_21  and  O_22 
REMARK    9  A    between atoms: C_28  and  O_29 
ROOT
HETATM    1  C   UNL     1      44.100 -18.424   4.330  1.00  0.00     0.231 C 
HETATM    2  N   UNL     1      43.327 -17.640   3.268  1.00  0.00    -0.054 N 
HETATM    3  H   UNL     1      43.623 -16.657   3.365  1.00  0.00     0.281 HD
HETATM    4  C   UNL     1      43.757 -18.034   1.873  1.00  0.00     0.239 C 
HETATM    5  C   UNL     1      43.548 -19.525   1.646  1.00  0.00     0.066 C 
HETATM    6  C   UNL     1      44.313 -20.351   2.681  1.00  0.00     0.065 C 
HETATM    7  C   UNL     1      43.895 -19.950   4.120  1.00  0.00     0.055 C 
HETATM    8  C   UNL     1      44.099 -21.856   2.455  1.00  0.00     0.038 C 
HETATM    9  C   UNL     1      44.857 -22.697   3.483  1.00  0.00     0.003 C 
HETATM   10  C   UNL     1      44.505 -22.290   4.910  1.00  0.00     0.001 C 
HETATM   11  C   UNL     1      44.688 -20.791   5.146  1.00  0.00     0.010 C 
ENDROOT
BRANCH   2  12
HETATM   12  C   UNL     1      41.808 -17.555   3.448  1.00  0.00     0.338 C 
BRANCH  12  13
HETATM   13  C   UNL     1      41.121 -16.947   2.220  1.00  0.00     0.248 C 
HETATM   14  N   UNL     1      41.506 -15.648   1.965  1.00  0.00    -0.319 N 
HETATM   15  H   UNL     1      42.292 -15.245   2.478  1.00  0.00     0.169 HD
HETATM   16  O   UNL     1      40.281 -17.626   1.633  1.00  0.00    -0.271 OA
BRANCH  14  17
HETATM   17  C   UNL     1      40.941 -14.769   1.045  1.00  0.00     0.094 A 
HETATM   18  S   UNL     1      41.110 -15.011  -0.624  1.00  0.00    -0.075 SA
HETATM   19  C   UNL     1      40.177 -13.646  -0.987  1.00  0.00    -0.008 A 
HETATM   20  C   UNL     1      39.704 -13.004   0.143  1.00  0.00    -0.026 A 
HETATM   21  C   UNL     1      39.892 -13.247  -2.403  1.00  0.00     0.047 C 
HETATM   22  C   UNL     1      38.840 -11.775   0.031  1.00  0.00     0.041 C 
HETATM   23  C   UNL     1      40.174 -13.648   1.354  1.00  0.00     0.080 A 
HETATM   24  C   UNL     1      38.280 -11.580  -1.388  1.00  0.00     0.005 C 
HETATM   25  C   UNL     1      39.351 -11.813  -2.460  1.00  0.00     0.005 C 
BRANCH  23  26
HETATM   26  C   UNL     1      39.925 -13.259   2.748  1.00  0.00     0.296 C 
HETATM   27  O   UNL     1      40.128 -12.113   3.147  1.00  0.00    -0.259 OA
BRANCH  26  28
HETATM   28  O   UNL     1      39.449 -14.270   3.522  1.00  0.00    -0.322 OA
HETATM   29  C   UNL     1      39.828 -14.204   4.898  1.00  0.00     0.213 C 
ENDBRANCH  26  28
ENDBRANCH  23  26
ENDBRANCH  14  17
ENDBRANCH  12  13
ENDBRANCH   2  12
BRANCH   1  30
HETATM   30  C   UNL     1      43.941 -17.873   5.743  1.00  0.00     0.006 A 
HETATM   31  C   UNL     1      43.883 -16.500   6.063  1.00  0.00     0.077 A 
HETATM   32  C   UNL     1      43.642 -16.103   7.385  1.00  0.00     0.037 A 
HETATM   33  C   UNL     1      43.493 -17.050   8.399  1.00  0.00     0.003 A 
HETATM   34  C   UNL     1      43.584 -18.403   8.105  1.00  0.00     0.001 A 
HETATM   35  C   UNL     1      43.806 -18.810   6.792  1.00  0.00     0.012 A 
BRANCH  31  36
HETATM   36  O   UNL     1      44.071 -15.617   5.030  1.00  0.00    -0.351 OA
BRANCH  36  37
HETATM   37  C   UNL     1      43.555 -14.291   5.200  1.00  0.00     0.171 C 
HETATM   38  C   UNL     1      43.459 -13.648   3.829  1.00  0.00     0.034 C 
ENDBRANCH  36  37
ENDBRANCH  31  36
ENDBRANCH   1  30
BRANCH   6  39
HETATM   39  O   UNL     1      45.702 -20.041   2.511  1.00  0.00    -0.389 OA
HETATM   40  H   UNL     1      45.793 -19.311   1.867  1.00  0.00     0.210 HD
ENDBRANCH   6  39
TORSDOF 9
ENDMDL
MODEL 7
REMARK VINA RESULT:      -8.1      2.127      4.885
REMARK  9 active torsions:
REMARK  status: ('A' for Active; 'I' for Inactive)
REMARK    1  A    between atoms: C_2  and  O_3 
REMARK    2  A    between atoms: O_3  and  C_4 
REMARK    3  A    between atoms: C_5  and  C_6 
REMARK    4  A    between atoms: N_7  and  C_9 
REMARK    5  A    between atoms: C_9  and  C_10 
REMARK       I    between atoms: C_10  and  N_11 
REMARK    6  A    between atoms: N_11  and  C_12 
REMARK    7  A    between atoms: C_20  and  C_21 
REMARK    8  A    between atoms: C_21  and  O_22 
REMARK    9  A    between atoms: C_28  and  O_29 
ROOT
HETATM    1  C   UNL     1      41.252 -12.476   0.707  1.00  0.00     0.231 C 
HETATM    2  N   UNL     1      41.371 -13.779   1.501  1.00  0.00    -0.054 N 
HETATM    3  H   UNL     1      42.283 -14.186   1.248  1.00  0.00     0.281 HD
HETATM    4  C   UNL     1      41.469 -13.510   2.985  1.00  0.00     0.239 C 
HETATM    5  C   UNL     1      40.253 -12.734   3.475  1.00  0.00     0.066 C 
HETATM    6  C   UNL     1      40.100 -11.416   2.714  1.00  0.00     0.065 C 
HETATM    7  C   UNL     1      40.012 -11.671   1.187  1.00  0.00     0.055 C 
HETATM    8  C   UNL     1      38.871 -10.634   3.203  1.00  0.00     0.038 C 
HETATM    9  C   UNL     1      38.702  -9.313   2.453  1.00  0.00     0.003 C 
HETATM   10  C   UNL     1      38.666  -9.527   0.943  1.00  0.00     0.001 C 
HETATM   11  C   UNL     1      39.868 -10.324   0.442  1.00  0.00     0.010 C 
ENDROOT
BRANCH   2  12
HETATM   12  C   UNL     1      40.388 -14.896   1.136  1.00  0.00     0.338 C 
BRANCH  12  13
HETATM   13  C   UNL     1      40.713 -16.203   1.867  1.00  0.00     0.248 C 
HETATM   14  N   UNL     1      42.065 -16.412   2.038  1.00  0.00    -0.319 N 
HETATM   15  H   UNL     1      42.723 -15.660   1.826  1.00  0.00     0.169 HD
HETATM   16  O   UNL     1      39.780 -16.943   2.171  1.00  0.00    -0.271 OA
BRANCH  14  17
HETATM   17  C   UNL     1      42.685 -17.571   2.497  1.00  0.00     0.094 A 
HETATM   18  S   UNL     1      43.173 -18.792   1.428  1.00  0.00    -0.075 SA
HETATM   19  C   UNL     1      43.814 -19.731   2.682  1.00  0.00    -0.008 A 
HETATM   20  C   UNL     1      43.693 -19.127   3.920  1.00  0.00    -0.026 A 
HETATM   21  C   UNL     1      44.471 -21.052   2.415  1.00  0.00     0.047 C 
HETATM   22  C   UNL     1      44.218 -19.796   5.164  1.00  0.00     0.041 C 
HETATM   23  C   UNL     1      43.001 -17.856   3.824  1.00  0.00     0.080 A 
HETATM   24  C   UNL     1      45.172 -20.958   4.845  1.00  0.00     0.005 C 
HETATM   25  C   UNL     1      44.634 -21.845   3.716  1.00  0.00     0.005 C 
BRANCH  23  26
HETATM   26  C   UNL     1      42.646 -16.928   4.905  1.00  0.00     0.296 C 
HETATM   27  O   UNL     1      43.473 -16.163   5.400  1.00  0.00    -0.259 OA
BRANCH  26  28
HETATM   28  O   UNL     1      41.342 -16.997   5.280  1.00  0.00    -0.322 OA
HETATM   29  C   UNL     1      40.791 -15.772   5.768  1.00  0.00     0.213 C 
ENDBRANCH  26  28
ENDBRANCH  23  26
ENDBRANCH  14  17
ENDBRANCH  12  13
ENDBRANCH   2  12
BRANCH   1  30
HETATM   30  C   UNL     1      41.452 -12.647  -0.795  1.00  0.00     0.006 A 
HETATM   31  C   UNL     1      42.552 -12.138  -1.517  1.00  0.00     0.077 A 
HETATM   32  C   UNL     1      42.685 -12.432  -2.881  1.00  0.00     0.037 A 
HETATM   33  C   UNL     1      41.723 -13.195  -3.544  1.00  0.00     0.003 A 
HETATM   34  C   UNL     1      40.618 -13.672  -2.854  1.00  0.00     0.001 A 
HETATM   35  C   UNL     1      40.483 -13.401  -1.495  1.00  0.00     0.012 A 
BRANCH  31  36
HETATM   36  O   UNL     1      43.445 -11.366  -0.818  1.00  0.00    -0.351 OA
BRANCH  36  37
HETATM   37  C   UNL     1      43.693 -10.044  -1.312  1.00  0.00     0.171 C 
HETATM   38  C   UNL     1      43.262  -9.057  -0.243  1.00  0.00     0.034 C 
ENDBRANCH  36  37
ENDBRANCH  31  36
ENDBRANCH   1  30
BRANCH   6  39
HETATM   39  O   UNL     1      41.282 -10.649   2.978  1.00  0.00    -0.389 OA
HETATM   40  H   UNL     1      41.841 -10.631   2.176  1.00  0.00     0.210 HD
ENDBRANCH   6  39
TORSDOF 9
ENDMDL
MODEL 8
REMARK VINA RESULT:      -8.0      2.408      8.119
REMARK  9 active torsions:
REMARK  status: ('A' for Active; 'I' for Inactive)
REMARK    1  A    between atoms: C_2  and  O_3 
REMARK    2  A    between atoms: O_3  and  C_4 
REMARK    3  A    between atoms: C_5  and  C_6 
REMARK    4  A    between atoms: N_7  and  C_9 
REMARK    5  A    between atoms: C_9  and  C_10 
REMARK       I    between atoms: C_10  and  N_11 
REMARK    6  A    between atoms: N_11  and  C_12 
REMARK    7  A    between atoms: C_20  and  C_21 
REMARK    8  A    between atoms: C_21  and  O_22 
REMARK    9  A    between atoms: C_28  and  O_29 
ROOT
HETATM    1  C   UNL     1      43.773 -18.436   4.458  1.00  0.00     0.231 C 
HETATM    2  N   UNL     1      42.737 -17.500   3.833  1.00  0.00    -0.054 N 
HETATM    3  H   UNL     1      42.974 -16.551   4.161  1.00  0.00     0.281 HD
HETATM    4  C   UNL     1      42.892 -17.435   2.331  1.00  0.00     0.239 C 
HETATM    5  C   UNL     1      42.751 -18.820   1.714  1.00  0.00     0.066 C 
HETATM    6  C   UNL     1      43.776 -19.790   2.303  1.00  0.00     0.065 C 
HETATM    7  C   UNL     1      43.643 -19.859   3.847  1.00  0.00     0.055 C 
HETATM    8  C   UNL     1      43.632 -21.190   1.684  1.00  0.00     0.038 C 
HETATM    9  C   UNL     1      44.650 -22.173   2.263  1.00  0.00     0.003 C 
HETATM   10  C   UNL     1      44.579 -22.223   3.785  1.00  0.00     0.001 C 
HETATM   11  C   UNL     1      44.695 -20.837   4.417  1.00  0.00     0.010 C 
ENDROOT
BRANCH   2  12
HETATM   12  C   UNL     1      41.289 -17.669   4.302  1.00  0.00     0.338 C 
BRANCH  12  13
HETATM   13  C   UNL     1      40.658 -16.331   4.700  1.00  0.00     0.248 C 
HETATM   14  N   UNL     1      40.290 -15.556   3.620  1.00  0.00    -0.319 N 
HETATM   15  H   UNL     1      40.311 -15.958   2.681  1.00  0.00     0.169 HD
HETATM   16  O   UNL     1      40.591 -16.057   5.896  1.00  0.00    -0.271 OA
BRANCH  14  17
HETATM   17  C   UNL     1      39.862 -14.232   3.642  1.00  0.00     0.094 A 
HETATM   18  S   UNL     1      40.208 -13.215   4.953  1.00  0.00    -0.075 SA
HETATM   19  C   UNL     1      39.437 -11.896   4.223  1.00  0.00    -0.008 A 
HETATM   20  C   UNL     1      38.931 -12.196   2.972  1.00  0.00    -0.026 A 
HETATM   21  C   UNL     1      39.377 -10.556   4.893  1.00  0.00     0.047 C 
HETATM   22  C   UNL     1      38.222 -11.149   2.152  1.00  0.00     0.041 C 
HETATM   23  C   UNL     1      39.155 -13.587   2.629  1.00  0.00     0.080 A 
HETATM   24  C   UNL     1      38.462  -9.727   2.683  1.00  0.00     0.005 C 
HETATM   25  C   UNL     1      38.338  -9.659   4.210  1.00  0.00     0.005 C 
BRANCH  23  26
HETATM   26  C   UNL     1      38.746 -14.302   1.414  1.00  0.00     0.296 C 
HETATM   27  O   UNL     1      37.569 -14.365   1.064  1.00  0.00    -0.259 OA
BRANCH  26  28
HETATM   28  O   UNL     1      39.781 -14.862   0.734  1.00  0.00    -0.322 OA
HETATM   29  C   UNL     1      40.054 -14.273  -0.539  1.00  0.00     0.213 C 
ENDBRANCH  26  28
ENDBRANCH  23  26
ENDBRANCH  14  17
ENDBRANCH  12  13
ENDBRANCH   2  12
BRANCH   1  30
HETATM   30  C   UNL     1      43.876 -18.321   5.975  1.00  0.00     0.006 A 
HETATM   31  C   UNL     1      43.929 -17.100   6.681  1.00  0.00     0.077 A 
HETATM   32  C   UNL     1      43.929 -17.107   8.083  1.00  0.00     0.037 A 
HETATM   33  C   UNL     1      43.913 -18.308   8.791  1.00  0.00     0.003 A 
HETATM   34  C   UNL     1      43.898 -19.517   8.110  1.00  0.00     0.001 A 
HETATM   35  C   UNL     1      43.880 -19.523   6.717  1.00  0.00     0.012 A 
BRANCH  31  36
HETATM   36  O   UNL     1      43.978 -15.954   5.929  1.00  0.00    -0.351 OA
BRANCH  36  37
HETATM   37  C   UNL     1      43.755 -14.714   6.611  1.00  0.00     0.171 C 
HETATM   38  C   UNL     1      45.088 -13.996   6.723  1.00  0.00     0.034 C 
ENDBRANCH  36  37
ENDBRANCH  31  36
ENDBRANCH   1  30
BRANCH   6  39
HETATM   39  O   UNL     1      45.071 -19.264   1.983  1.00  0.00    -0.389 OA
HETATM   40  H   UNL     1      45.094 -18.311   2.199  1.00  0.00     0.210 HD
ENDBRANCH   6  39
TORSDOF 9
ENDMDL
MODEL 9
REMARK VINA RESULT:      -8.0      1.984      3.020
REMARK  9 active torsions:
REMARK  status: ('A' for Active; 'I' for Inactive)
REMARK    1  A    between atoms: C_2  and  O_3 
REMARK    2  A    between atoms: O_3  and  C_4 
REMARK    3  A    between atoms: C_5  and  C_6 
REMARK    4  A    between atoms: N_7  and  C_9 
REMARK    5  A    between atoms: C_9  and  C_10 
REMARK       I    between atoms: C_10  and  N_11 
REMARK    6  A    between atoms: N_11  and  C_12 
REMARK    7  A    between atoms: C_20  and  C_21 
REMARK    8  A    between atoms: C_21  and  O_22 
REMARK    9  A    between atoms: C_28  and  O_29 
ROOT
HETATM    1  C   UNL     1      40.587 -12.668   1.577  1.00  0.00     0.231 C 
HETATM    2  N   UNL     1      40.937 -14.151   1.720  1.00  0.00    -0.054 N 
HETATM    3  H   UNL     1      40.134 -14.591   2.193  1.00  0.00     0.281 HD
HETATM    4  C   UNL     1      41.007 -14.831   0.372  1.00  0.00     0.239 C 
HETATM    5  C   UNL     1      42.041 -14.157  -0.520  1.00  0.00     0.066 C 
HETATM    6  C   UNL     1      41.725 -12.671  -0.700  1.00  0.00     0.065 C 
HETATM    7  C   UNL     1      41.635 -11.958   0.675  1.00  0.00     0.055 C 
HETATM    8  C   UNL     1      42.771 -11.988  -1.596  1.00  0.00     0.038 C 
HETATM    9  C   UNL     1      42.470 -10.501  -1.786  1.00  0.00     0.003 C 
HETATM   10  C   UNL     1      42.323  -9.783  -0.449  1.00  0.00     0.001 C 
HETATM   11  C   UNL     1      41.306 -10.463   0.465  1.00  0.00     0.010 C 
ENDROOT
BRANCH   2  12
HETATM   12  C   UNL     1      42.106 -14.493   2.649  1.00  0.00     0.338 C 
BRANCH  12  13
HETATM   13  C   UNL     1      42.079 -15.963   3.083  1.00  0.00     0.248 C 
HETATM   14  N   UNL     1      43.335 -16.513   3.228  1.00  0.00    -0.319 N 
HETATM   15  H   UNL     1      44.157 -15.908   3.195  1.00  0.00     0.169 HD
HETATM   16  O   UNL     1      40.985 -16.510   3.202  1.00  0.00    -0.271 OA
BRANCH  14  17
HETATM   17  C   UNL     1      43.646 -17.854   3.433  1.00  0.00     0.094 A 
HETATM   18  S   UNL     1      43.915 -18.906   2.132  1.00  0.00    -0.075 SA
HETATM   19  C   UNL     1      44.244 -20.209   3.163  1.00  0.00    -0.008 A 
HETATM   20  C   UNL     1      44.182 -19.863   4.500  1.00  0.00    -0.026 A 
HETATM   21  C   UNL     1      44.602 -21.562   2.625  1.00  0.00     0.047 C 
HETATM   22  C   UNL     1      44.460 -20.880   5.577  1.00  0.00     0.041 C 
HETATM   23  C   UNL     1      43.802 -18.474   4.672  1.00  0.00     0.080 A 
HETATM   24  C   UNL     1      45.146 -22.141   5.028  1.00  0.00     0.005 C 
HETATM   25  C   UNL     1      44.496 -22.623   3.726  1.00  0.00     0.005 C 
BRANCH  23  26
HETATM   26  C   UNL     1      43.596 -17.734   5.922  1.00  0.00     0.296 C 
HETATM   27  O   UNL     1      42.668 -17.997   6.686  1.00  0.00    -0.259 OA
BRANCH  26  28
HETATM   28  O   UNL     1      44.522 -16.763   6.143  1.00  0.00    -0.322 OA
HETATM   29  C   UNL     1      44.018 -15.583   6.771  1.00  0.00     0.213 C 
ENDBRANCH  26  28
ENDBRANCH  23  26
ENDBRANCH  14  17
ENDBRANCH  12  13
ENDBRANCH   2  12
BRANCH   1  30
HETATM   30  C   UNL     1      40.205 -11.994   2.890  1.00  0.00     0.006 A 
HETATM   31  C   UNL     1      38.886 -11.661   3.262  1.00  0.00     0.077 A 
HETATM   32  C   UNL     1      38.636 -11.126   4.533  1.00  0.00     0.037 A 
HETATM   33  C   UNL     1      39.681 -10.885   5.425  1.00  0.00     0.003 A 
HETATM   34  C   UNL     1      40.988 -11.174   5.058  1.00  0.00     0.001 A 
HETATM   35  C   UNL     1      41.247 -11.721   3.805  1.00  0.00     0.012 A 
BRANCH  31  36
HETATM   36  O   UNL     1      37.906 -11.888   2.330  1.00  0.00    -0.351 OA
BRANCH  36  37
HETATM   37  C   UNL     1      37.401 -10.751   1.620  1.00  0.00     0.171 C 
HETATM   38  C   UNL     1      37.425 -11.077   0.138  1.00  0.00     0.034 C 
ENDBRANCH  36  37
ENDBRANCH  31  36
ENDBRANCH   1  30
BRANCH   6  39
HETATM   39  O   UNL     1      40.441 -12.597  -1.333  1.00  0.00    -0.389 OA
HETATM   40  H   UNL     1      40.460 -13.113  -2.163  1.00  0.00     0.210 HD
ENDBRANCH   6  39
TORSDOF 9
ENDMDL
MODEL 10
REMARK VINA RESULT:      -8.0      2.277      5.043
REMARK  9 active torsions:
REMARK  status: ('A' for Active; 'I' for Inactive)
REMARK    1  A    between atoms: C_2  and  O_3 
REMARK    2  A    between atoms: O_3  and  C_4 
REMARK    3  A    between atoms: C_5  and  C_6 
REMARK    4  A    between atoms: N_7  and  C_9 
REMARK    5  A    between atoms: C_9  and  C_10 
REMARK       I    between atoms: C_10  and  N_11 
REMARK    6  A    between atoms: N_11  and  C_12 
REMARK    7  A    between atoms: C_20  and  C_21 
REMARK    8  A    between atoms: C_21  and  O_22 
REMARK    9  A    between atoms: C_28  and  O_29 
ROOT
HETATM    1  C   UNL     1      40.361 -12.168   2.802  1.00  0.00     0.231 C 
HETATM    2  N   UNL     1      41.037 -13.319   3.549  1.00  0.00    -0.054 N 
HETATM    3  H   UNL     1      41.621 -13.809   2.854  1.00  0.00     0.281 HD
HETATM    4  C   UNL     1      42.018 -12.805   4.578  1.00  0.00     0.239 C 
HETATM    5  C   UNL     1      41.320 -11.898   5.582  1.00  0.00     0.066 C 
HETATM    6  C   UNL     1      40.636 -10.725   4.879  1.00  0.00     0.065 C 
HETATM    7  C   UNL     1      39.636 -11.233   3.809  1.00  0.00     0.055 C 
HETATM    8  C   UNL     1      39.927  -9.810   5.892  1.00  0.00     0.038 C 
HETATM    9  C   UNL     1      39.238  -8.631   5.206  1.00  0.00     0.003 C 
HETATM   10  C   UNL     1      38.286  -9.098   4.110  1.00  0.00     0.001 C 
HETATM   11  C   UNL     1      38.967 -10.028   3.108  1.00  0.00     0.010 C 
ENDROOT
BRANCH   2  12
HETATM   12  C   UNL     1      40.121 -14.433   4.067  1.00  0.00     0.338 C 
BRANCH  12  13
HETATM   13  C   UNL     1      40.920 -15.604   4.649  1.00  0.00     0.248 C 
HETATM   14  N   UNL     1      41.793 -16.174   3.746  1.00  0.00    -0.319 N 
HETATM   15  H   UNL     1      41.963 -15.713   2.851  1.00  0.00     0.169 HD
HETATM   16  O   UNL     1      40.678 -15.951   5.803  1.00  0.00    -0.271 OA
BRANCH  14  17
HETATM   17  C   UNL     1      42.519 -17.350   3.907  1.00  0.00     0.094 A 
HETATM   18  S   UNL     1      42.841 -17.984   5.445  1.00  0.00    -0.075 SA
HETATM   19  C   UNL     1      43.659 -19.320   4.799  1.00  0.00    -0.008 A 
HETATM   20  C   UNL     1      43.678 -19.319   3.416  1.00  0.00    -0.026 A 
HETATM   21  C   UNL     1      44.243 -20.381   5.682  1.00  0.00     0.047 C 
HETATM   22  C   UNL     1      44.344 -20.433   2.651  1.00  0.00     0.041 C 
HETATM   23  C   UNL     1      43.027 -18.141   2.878  1.00  0.00     0.080 A 
HETATM   24  C   UNL     1      44.630 -21.660   3.531  1.00  0.00     0.005 C 
HETATM   25  C   UNL     1      45.217 -21.262   4.891  1.00  0.00     0.005 C 
BRANCH  23  26
HETATM   26  C   UNL     1      42.865 -17.753   1.471  1.00  0.00     0.296 C 
HETATM   27  O   UNL     1      43.831 -17.608   0.723  1.00  0.00    -0.259 OA
BRANCH  26  28
HETATM   28  O   UNL     1      41.570 -17.587   1.094  1.00  0.00    -0.322 OA
HETATM   29  C   UNL     1      41.349 -16.545   0.142  1.00  0.00     0.213 C 
ENDBRANCH  26  28
ENDBRANCH  23  26
ENDBRANCH  14  17
ENDBRANCH  12  13
ENDBRANCH   2  12
BRANCH   1  30
HETATM   30  C   UNL     1      39.595 -12.604   1.558  1.00  0.00     0.006 A 
HETATM   31  C   UNL     1      40.198 -12.966   0.335  1.00  0.00     0.077 A 
HETATM   32  C   UNL     1      39.404 -13.441  -0.719  1.00  0.00     0.037 A 
HETATM   33  C   UNL     1      38.018 -13.527  -0.586  1.00  0.00     0.003 A 
HETATM   34  C   UNL     1      37.408 -13.140   0.599  1.00  0.00     0.001 A 
HETATM   35  C   UNL     1      38.188 -12.683   1.659  1.00  0.00     0.012 A 
BRANCH  31  36
HETATM   36  O   UNL     1      41.560 -12.826   0.253  1.00  0.00    -0.351 OA
BRANCH  36  37
HETATM   37  C   UNL     1      42.166 -13.052  -1.026  1.00  0.00     0.171 C 
HETATM   38  C   UNL     1      42.678 -11.721  -1.542  1.00  0.00     0.034 C 
ENDBRANCH  36  37
ENDBRANCH  31  36
ENDBRANCH   1  30
BRANCH   6  39
HETATM   39  O   UNL     1      41.669  -9.983   4.218  1.00  0.00    -0.389 OA
HETATM   40  H   UNL     1      42.393  -9.802   4.850  1.00  0.00     0.210 HD
ENDBRANCH   6  39
TORSDOF 9
ENDMDL
