MODEL 1
REMARK VINA RESULT:     -10.1      0.000      0.000
REMARK  6 active torsions:
REMARK  status: ('A' for Active; 'I' for Inactive)
REMARK    1  A    between atoms: C_6  and  N_7 
REMARK       I    between atoms: N_7  and  C_8 
REMARK    2  A    between atoms: C_8  and  C_9 
REMARK    3  A    between atoms: C_9  and  S_10 
REMARK    4  A    between atoms: S_10  and  C_11 
REMARK    5  A    between atoms: N_16  and  C_18 
REMARK    6  A    between atoms: C_18  and  C_19 
ROOT
HETATM    1  C   UNL     1      40.960 -15.708   4.383  1.00  0.00     0.169 A 
HETATM    2  N   UNL     1      41.258 -14.538   3.922  1.00  0.00    -0.228 NA
HETATM    3  C   UNL     1      41.414 -14.429   2.562  1.00  0.00     0.052 A 
HETATM    4  C   UNL     1      41.296 -15.463   1.715  1.00  0.00     0.060 A 
HETATM    5  C   UNL     1      41.375 -15.358   0.235  1.00  0.00     0.281 C 
HETATM    6  N   UNL     1      41.252 -13.923  -0.244  1.00  0.00    -0.063 N 
HETATM    7  H   UNL     1      40.280 -13.642  -0.065  1.00  0.00     0.280 HD
HETATM    8  C   UNL     1      42.137 -13.008   0.578  1.00  0.00     0.241 C 
HETATM    9  C   UNL     1      41.695 -13.039   2.046  1.00  0.00     0.088 C 
HETATM   10  C   UNL     1      41.015 -16.796   2.277  1.00  0.00     0.257 A 
HETATM   11  O   UNL     1      40.933 -17.771   1.543  1.00  0.00    -0.267 OA
HETATM   12  N   UNL     1      40.854 -16.830   3.624  1.00  0.00    -0.302 N 
HETATM   13  H   UNL     1      40.617 -17.703   4.070  1.00  0.00     0.171 HD
ENDROOT
BRANCH   1  14
HETATM   14  S   UNL     1      40.654 -16.009   6.060  1.00  0.00    -0.083 SA
BRANCH  14  15
HETATM   15  C   UNL     1      41.892 -17.309   6.369  1.00  0.00     0.185 C 
BRANCH  15  16
HETATM   16  C   UNL     1      43.324 -16.801   6.357  1.00  0.00     0.231 C 
HETATM   17  N   UNL     1      44.283 -17.417   5.602  1.00  0.00    -0.327 N 
HETATM   18  H   UNL     1      45.154 -16.900   5.656  1.00  0.00     0.169 HD
HETATM   19  O   UNL     1      43.682 -15.796   6.985  1.00  0.00    -0.272 OA
BRANCH  17  20
HETATM   20  C   UNL     1      44.319 -18.574   4.801  1.00  0.00     0.035 A 
HETATM   21  C   UNL     1      44.620 -19.863   5.238  1.00  0.00     0.037 A 
HETATM   22  C   UNL     1      44.633 -20.960   4.348  1.00  0.00    -0.054 A 
HETATM   23  C   UNL     1      44.367 -20.751   2.983  1.00  0.00    -0.056 A 
HETATM   24  C   UNL     1      45.019 -22.315   4.881  1.00  0.00     0.049 C 
HETATM   25  C   UNL     1      44.395 -21.879   1.988  1.00  0.00     0.049 C 
HETATM   26  C   UNL     1      44.073 -19.456   2.543  1.00  0.00     0.009 A 
HETATM   27  C   UNL     1      44.057 -18.385   3.439  1.00  0.00     0.030 A 
ENDBRANCH  17  20
ENDBRANCH  15  16
ENDBRANCH  14  15
ENDBRANCH   1  14
BRANCH   6  28
HETATM   28  C   UNL     1      41.462 -13.812  -1.735  1.00  0.00     0.273 C 
BRANCH  28  29
HETATM   29  C   UNL     1      40.255 -14.229  -2.535  1.00  0.00    -0.030 A 
HETATM   30  C   UNL     1      39.140 -13.376  -2.641  1.00  0.00     0.048 A 
HETATM   31  C   UNL     1      38.079 -13.788  -3.420  1.00  0.00     0.105 A 
HETATM   32  C   UNL     1      38.075 -14.999  -4.064  1.00  0.00     0.105 A 
HETATM   33  O   UNL     1      36.945 -13.074  -3.648  1.00  0.00    -0.323 OA
HETATM   34  O   UNL     1      36.938 -15.205  -4.776  1.00  0.00    -0.323 OA
HETATM   35  C   UNL     1      39.135 -15.873  -3.965  1.00  0.00     0.040 A 
HETATM   36  C   UNL     1      36.216 -13.985  -4.505  1.00  0.00     0.352 A 
HETATM   37  C   UNL     1      40.236 -15.481  -3.193  1.00  0.00     0.012 A 
ENDBRANCH  28  29
ENDBRANCH   6  28
TORSDOF 6
ENDMDL
MODEL 2
REMARK VINA RESULT:     -10.0      3.223      8.279
REMARK  6 active torsions:
REMARK  status: ('A' for Active; 'I' for Inactive)
REMARK    1  A    between atoms: C_6  and  N_7 
REMARK       I    between atoms: N_7  and  C_8 
REMARK    2  A    between atoms: C_8  and  C_9 
REMARK    3  A    between atoms: C_9  and  S_10 
REMARK    4  A    between atoms: S_10  and  C_11 
REMARK    5  A    between atoms: N_16  and  C_18 
REMARK    6  A    between atoms: C_18  and  C_19 
ROOT
HETATM    1  C   UNL     1      40.518 -13.184   3.771  1.00  0.00     0.169 A 
HETATM    2  N   UNL     1      40.188 -14.084   4.637  1.00  0.00    -0.228 NA
HETATM    3  C   UNL     1      41.205 -14.841   5.163  1.00  0.00     0.052 A 
HETATM    4  C   UNL     1      42.492 -14.706   4.809  1.00  0.00     0.060 A 
HETATM    5  C   UNL     1      43.622 -15.451   5.423  1.00  0.00     0.281 C 
HETATM    6  N   UNL     1      43.224 -16.121   6.726  1.00  0.00    -0.063 N 
HETATM    7  H   UNL     1      43.077 -15.365   7.406  1.00  0.00     0.280 HD
HETATM    8  C   UNL     1      41.900 -16.843   6.573  1.00  0.00     0.241 C 
HETATM    9  C   UNL     1      40.798 -15.838   6.221  1.00  0.00     0.088 C 
HETATM   10  C   UNL     1      42.830 -13.712   3.775  1.00  0.00     0.257 A 
HETATM   11  O   UNL     1      43.986 -13.580   3.400  1.00  0.00    -0.267 OA
HETATM   12  N   UNL     1      41.781 -12.986   3.311  1.00  0.00    -0.302 N 
HETATM   13  H   UNL     1      41.948 -12.257   2.633  1.00  0.00     0.171 HD
ENDROOT
BRANCH   1  14
HETATM   14  S   UNL     1      39.375 -12.093   3.064  1.00  0.00    -0.083 SA
BRANCH  14  15
HETATM   15  C   UNL     1      39.367 -12.722   1.355  1.00  0.00     0.185 C 
BRANCH  15  16
HETATM   16  C   UNL     1      38.417 -13.889   1.141  1.00  0.00     0.231 C 
HETATM   17  N   UNL     1      38.863 -15.180   1.197  1.00  0.00    -0.327 N 
HETATM   18  H   UNL     1      38.083 -15.822   1.108  1.00  0.00     0.169 HD
HETATM   19  O   UNL     1      37.203 -13.735   0.948  1.00  0.00    -0.272 OA
BRANCH  17  20
HETATM   20  C   UNL     1      40.126 -15.784   1.344  1.00  0.00     0.035 A 
HETATM   21  C   UNL     1      40.453 -16.784   2.258  1.00  0.00     0.037 A 
HETATM   22  C   UNL     1      41.757 -17.323   2.328  1.00  0.00    -0.054 A 
HETATM   23  C   UNL     1      42.762 -16.824   1.480  1.00  0.00    -0.056 A 
HETATM   24  C   UNL     1      42.051 -18.365   3.376  1.00  0.00     0.049 C 
HETATM   25  C   UNL     1      44.173 -17.342   1.533  1.00  0.00     0.049 C 
HETATM   26  C   UNL     1      42.436 -15.814   0.569  1.00  0.00     0.009 A 
HETATM   27  C   UNL     1      41.138 -15.299   0.508  1.00  0.00     0.030 A 
ENDBRANCH  17  20
ENDBRANCH  15  16
ENDBRANCH  14  15
ENDBRANCH   1  14
BRANCH   6  28
HETATM   28  C   UNL     1      44.338 -16.980   7.275  1.00  0.00     0.273 C 
BRANCH  28  29
HETATM   29  C   UNL     1      44.295 -18.399   6.771  1.00  0.00    -0.030 A 
HETATM   30  C   UNL     1      44.781 -18.716   5.489  1.00  0.00     0.048 A 
HETATM   31  C   UNL     1      44.757 -20.037   5.093  1.00  0.00     0.105 A 
HETATM   32  C   UNL     1      44.258 -21.029   5.898  1.00  0.00     0.105 A 
HETATM   33  O   UNL     1      45.212 -20.511   3.904  1.00  0.00    -0.323 OA
HETATM   34  O   UNL     1      44.331 -22.254   5.317  1.00  0.00    -0.323 OA
HETATM   35  C   UNL     1      43.750 -20.757   7.149  1.00  0.00     0.040 A 
HETATM   36  C   UNL     1      44.930 -21.924   4.046  1.00  0.00     0.352 A 
HETATM   37  C   UNL     1      43.771 -19.428   7.588  1.00  0.00     0.012 A 
ENDBRANCH  28  29
ENDBRANCH   6  28
TORSDOF 6
ENDMDL
MODEL 3
REMARK VINA RESULT:      -9.6      3.955      7.814
REMARK  6 active torsions:
REMARK  status: ('A' for Active; 'I' for Inactive)
REMARK    1  A    between atoms: C_6  and  N_7 
REMARK       I    between atoms: N_7  and  C_8 
REMARK    2  A    between atoms: C_8  and  C_9 
REMARK    3  A    between atoms: C_9  and  S_10 
REMARK    4  A    between atoms: S_10  and  C_11 
REMARK    5  A    between atoms: N_16  and  C_18 
REMARK    6  A    between atoms: C_18  and  C_19 
ROOT
HETATM    1  C   UNL     1      39.442 -12.631   2.271  1.00  0.00     0.169 A 
HETATM    2  N   UNL     1      39.197 -13.896   2.361  1.00  0.00    -0.228 NA
HETATM    3  C   UNL     1      40.184 -14.751   1.939  1.00  0.00     0.052 A 
HETATM    4  C   UNL     1      41.355 -14.339   1.428  1.00  0.00     0.060 A 
HETATM    5  C   UNL     1      42.474 -15.239   1.043  1.00  0.00     0.281 C 
HETATM    6  N   UNL     1      42.303 -16.638   1.607  1.00  0.00    -0.063 N 
HETATM    7  H   UNL     1      42.438 -16.557   2.622  1.00  0.00     0.280 HD
HETATM    8  C   UNL     1      40.888 -17.133   1.386  1.00  0.00     0.241 C 
HETATM    9  C   UNL     1      39.897 -16.221   2.118  1.00  0.00     0.088 C 
HETATM   10  C   UNL     1      41.581 -12.891   1.282  1.00  0.00     0.257 A 
HETATM   11  O   UNL     1      42.621 -12.474   0.790  1.00  0.00    -0.267 OA
HETATM   12  N   UNL     1      40.573 -12.103   1.735  1.00  0.00    -0.302 N 
HETATM   13  H   UNL     1      40.681 -11.100   1.705  1.00  0.00     0.171 HD
ENDROOT
BRANCH   1  14
HETATM   14  S   UNL     1      38.340 -11.416   2.825  1.00  0.00    -0.083 SA
BRANCH  14  15
HETATM   15  C   UNL     1      39.530 -10.165   3.407  1.00  0.00     0.185 C 
BRANCH  15  16
HETATM   16  C   UNL     1      39.501  -9.951   4.912  1.00  0.00     0.231 C 
HETATM   17  N   UNL     1      40.035 -10.877   5.765  1.00  0.00    -0.327 N 
HETATM   18  H   UNL     1      39.996 -10.535   6.719  1.00  0.00     0.169 HD
HETATM   19  O   UNL     1      39.037  -8.928   5.432  1.00  0.00    -0.272 OA
BRANCH  17  20
HETATM   20  C   UNL     1      40.603 -12.155   5.607  1.00  0.00     0.035 A 
HETATM   21  C   UNL     1      41.873 -12.429   5.103  1.00  0.00     0.037 A 
HETATM   22  C   UNL     1      42.349 -13.754   4.981  1.00  0.00    -0.054 A 
HETATM   23  C   UNL     1      41.518 -14.828   5.347  1.00  0.00    -0.056 A 
HETATM   24  C   UNL     1      43.712 -13.977   4.379  1.00  0.00     0.049 C 
HETATM   25  C   UNL     1      41.964 -16.258   5.211  1.00  0.00     0.049 C 
HETATM   26  C   UNL     1      40.240 -14.552   5.844  1.00  0.00     0.009 A 
HETATM   27  C   UNL     1      39.789 -13.236   5.966  1.00  0.00     0.030 A 
ENDBRANCH  17  20
ENDBRANCH  15  16
ENDBRANCH  14  15
ENDBRANCH   1  14
BRANCH   6  28
HETATM   28  C   UNL     1      43.374 -17.576   1.106  1.00  0.00     0.273 C 
BRANCH  28  29
HETATM   29  C   UNL     1      43.742 -18.642   2.106  1.00  0.00    -0.030 A 
HETATM   30  C   UNL     1      43.776 -19.996   1.725  1.00  0.00     0.048 A 
HETATM   31  C   UNL     1      44.159 -20.928   2.668  1.00  0.00     0.105 A 
HETATM   32  C   UNL     1      44.481 -20.572   3.953  1.00  0.00     0.105 A 
HETATM   33  O   UNL     1      44.270 -22.265   2.454  1.00  0.00    -0.323 OA
HETATM   34  O   UNL     1      44.832 -21.640   4.714  1.00  0.00    -0.323 OA
HETATM   35  C   UNL     1      44.436 -19.261   4.372  1.00  0.00     0.040 A 
HETATM   36  C   UNL     1      44.690 -22.717   3.764  1.00  0.00     0.352 A 
HETATM   37  C   UNL     1      44.063 -18.288   3.438  1.00  0.00     0.012 A 
ENDBRANCH  28  29
ENDBRANCH   6  28
TORSDOF 6
ENDMDL
MODEL 4
REMARK VINA RESULT:      -9.5      3.543      8.449
REMARK  6 active torsions:
REMARK  status: ('A' for Active; 'I' for Inactive)
REMARK    1  A    between atoms: C_6  and  N_7 
REMARK       I    between atoms: N_7  and  C_8 
REMARK    2  A    between atoms: C_8  and  C_9 
REMARK    3  A    between atoms: C_9  and  S_10 
REMARK    4  A    between atoms: S_10  and  C_11 
REMARK    5  A    between atoms: N_16  and  C_18 
REMARK    6  A    between atoms: C_18  and  C_19 
ROOT
HETATM    1  C   UNL     1      40.453 -13.534   4.718  1.00  0.00     0.169 A 
HETATM    2  N   UNL     1      39.982 -14.518   4.025  1.00  0.00    -0.228 NA
HETATM    3  C   UNL     1      40.892 -15.280   3.334  1.00  0.00     0.052 A 
HETATM    4  C   UNL     1      42.212 -15.040   3.330  1.00  0.00     0.060 A 
HETATM    5  C   UNL     1      43.226 -15.897   2.662  1.00  0.00     0.281 C 
HETATM    6  N   UNL     1      42.666 -17.256   2.284  1.00  0.00    -0.063 N 
HETATM    7  H   UNL     1      42.512 -17.760   3.166  1.00  0.00     0.280 HD
HETATM    8  C   UNL     1      41.314 -17.110   1.616  1.00  0.00     0.241 C 
HETATM    9  C   UNL     1      40.321 -16.461   2.588  1.00  0.00     0.088 C 
HETATM   10  C   UNL     1      42.711 -13.875   4.081  1.00  0.00     0.257 A 
HETATM   11  O   UNL     1      43.903 -13.601   4.076  1.00  0.00    -0.267 OA
HETATM   12  N   UNL     1      41.762 -13.176   4.755  1.00  0.00    -0.302 N 
HETATM   13  H   UNL     1      42.041 -12.391   5.326  1.00  0.00     0.171 HD
ENDROOT
BRANCH   1  14
HETATM   14  S   UNL     1      39.458 -12.518   5.706  1.00  0.00    -0.083 SA
BRANCH  14  15
HETATM   15  C   UNL     1      39.561 -10.968   4.754  1.00  0.00     0.185 C 
BRANCH  15  16
HETATM   16  C   UNL     1      38.277 -10.620   4.018  1.00  0.00     0.231 C 
HETATM   17  N   UNL     1      38.004 -11.152   2.789  1.00  0.00    -0.327 N 
HETATM   18  H   UNL     1      37.078 -10.873   2.486  1.00  0.00     0.169 HD
HETATM   19  O   UNL     1      37.408  -9.883   4.503  1.00  0.00    -0.272 OA
BRANCH  17  20
HETATM   20  C   UNL     1      38.710 -11.971   1.887  1.00  0.00     0.035 A 
HETATM   21  C   UNL     1      40.035 -11.798   1.490  1.00  0.00     0.037 A 
HETATM   22  C   UNL     1      40.651 -12.677   0.572  1.00  0.00    -0.054 A 
HETATM   23  C   UNL     1      39.910 -13.736   0.018  1.00  0.00    -0.056 A 
HETATM   24  C   UNL     1      42.070 -12.398   0.148  1.00  0.00     0.049 C 
HETATM   25  C   UNL     1      40.509 -14.684  -0.985  1.00  0.00     0.049 C 
HETATM   26  C   UNL     1      38.578 -13.904   0.410  1.00  0.00     0.009 A 
HETATM   27  C   UNL     1      37.987 -13.030   1.326  1.00  0.00     0.030 A 
ENDBRANCH  17  20
ENDBRANCH  15  16
ENDBRANCH  14  15
ENDBRANCH   1  14
BRANCH   6  28
HETATM   28  C   UNL     1      43.662 -18.070   1.494  1.00  0.00     0.273 C 
BRANCH  28  29
HETATM   29  C   UNL     1      43.964 -19.407   2.121  1.00  0.00    -0.030 A 
HETATM   30  C   UNL     1      44.421 -19.486   3.449  1.00  0.00     0.048 A 
HETATM   31  C   UNL     1      44.642 -20.736   3.989  1.00  0.00     0.105 A 
HETATM   32  C   UNL     1      44.450 -21.885   3.264  1.00  0.00     0.105 A 
HETATM   33  O   UNL     1      45.055 -20.985   5.259  1.00  0.00    -0.323 OA
HETATM   34  O   UNL     1      44.723 -23.004   3.984  1.00  0.00    -0.323 OA
HETATM   35  C   UNL     1      44.028 -21.850   1.953  1.00  0.00     0.040 A 
HETATM   36  C   UNL     1      45.115 -22.431   5.249  1.00  0.00     0.352 A 
HETATM   37  C   UNL     1      43.782 -20.598   1.378  1.00  0.00     0.012 A 
ENDBRANCH  28  29
ENDBRANCH   6  28
TORSDOF 6
ENDMDL
MODEL 5
REMARK VINA RESULT:      -9.4      2.322      3.381
REMARK  6 active torsions:
REMARK  status: ('A' for Active; 'I' for Inactive)
REMARK    1  A    between atoms: C_6  and  N_7 
REMARK       I    between atoms: N_7  and  C_8 
REMARK    2  A    between atoms: C_8  and  C_9 
REMARK    3  A    between atoms: C_9  and  S_10 
REMARK    4  A    between atoms: S_10  and  C_11 
REMARK    5  A    between atoms: N_16  and  C_18 
REMARK    6  A    between atoms: C_18  and  C_19 
ROOT
HETATM    1  C   UNL     1      42.924 -14.969   5.925  1.00  0.00     0.169 A 
HETATM    2  N   UNL     1      42.711 -15.761   4.926  1.00  0.00    -0.228 NA
HETATM    3  C   UNL     1      41.650 -15.456   4.109  1.00  0.00     0.052 A 
HETATM    4  C   UNL     1      40.833 -14.411   4.310  1.00  0.00     0.060 A 
HETATM    5  C   UNL     1      39.733 -14.009   3.396  1.00  0.00     0.281 C 
HETATM    6  N   UNL     1      39.843 -14.680   2.038  1.00  0.00    -0.063 N 
HETATM    7  H   UNL     1      40.662 -14.264   1.578  1.00  0.00     0.280 HD
HETATM    8  C   UNL     1      40.126 -16.160   2.196  1.00  0.00     0.241 C 
HETATM    9  C   UNL     1      41.466 -16.359   2.914  1.00  0.00     0.088 C 
HETATM   10  C   UNL     1      41.065 -13.562   5.491  1.00  0.00     0.257 A 
HETATM   11  O   UNL     1      40.324 -12.619   5.730  1.00  0.00    -0.267 OA
HETATM   12  N   UNL     1      42.140 -13.907   6.246  1.00  0.00    -0.302 N 
HETATM   13  H   UNL     1      42.382 -13.341   7.045  1.00  0.00     0.171 HD
ENDROOT
BRANCH   1  14
HETATM   14  S   UNL     1      44.258 -15.161   7.010  1.00  0.00    -0.083 SA
BRANCH  14  15
HETATM   15  C   UNL     1      44.765 -16.856   6.578  1.00  0.00     0.185 C 
BRANCH  15  16
HETATM   16  C   UNL     1      44.042 -17.929   7.375  1.00  0.00     0.231 C 
HETATM   17  N   UNL     1      43.803 -19.164   6.838  1.00  0.00    -0.327 N 
HETATM   18  H   UNL     1      43.383 -19.771   7.534  1.00  0.00     0.169 HD
HETATM   19  O   UNL     1      43.675 -17.759   8.545  1.00  0.00    -0.272 OA
BRANCH  17  20
HETATM   20  C   UNL     1      44.004 -19.748   5.573  1.00  0.00     0.035 A 
HETATM   21  C   UNL     1      43.714 -19.158   4.344  1.00  0.00     0.037 A 
HETATM   22  C   UNL     1      43.951 -19.834   3.127  1.00  0.00    -0.054 A 
HETATM   23  C   UNL     1      44.463 -21.144   3.146  1.00  0.00    -0.056 A 
HETATM   24  C   UNL     1      43.564 -19.155   1.839  1.00  0.00     0.049 C 
HETATM   25  C   UNL     1      44.707 -21.919   1.880  1.00  0.00     0.049 C 
HETATM   26  C   UNL     1      44.745 -21.739   4.380  1.00  0.00     0.009 A 
HETATM   27  C   UNL     1      44.513 -21.052   5.574  1.00  0.00     0.030 A 
ENDBRANCH  17  20
ENDBRANCH  15  16
ENDBRANCH  14  15
ENDBRANCH   1  14
BRANCH   6  28
HETATM   28  C   UNL     1      38.654 -14.366   1.163  1.00  0.00     0.273 C 
BRANCH  28  29
HETATM   29  C   UNL     1      39.041 -13.886  -0.212  1.00  0.00    -0.030 A 
HETATM   30  C   UNL     1      40.376 -13.546  -0.499  1.00  0.00     0.048 A 
HETATM   31  C   UNL     1      40.686 -13.152  -1.784  1.00  0.00     0.105 A 
HETATM   32  C   UNL     1      39.733 -13.064  -2.767  1.00  0.00     0.105 A 
HETATM   33  O   UNL     1      41.925 -12.819  -2.230  1.00  0.00    -0.323 OA
HETATM   34  O   UNL     1      40.250 -12.660  -3.956  1.00  0.00    -0.323 OA
HETATM   35  C   UNL     1      38.411 -13.362  -2.521  1.00  0.00     0.040 A 
HETATM   36  C   UNL     1      41.642 -12.497  -3.612  1.00  0.00     0.352 A 
HETATM   37  C   UNL     1      38.064 -13.778  -1.230  1.00  0.00     0.012 A 
ENDBRANCH  28  29
ENDBRANCH   6  28
TORSDOF 6
ENDMDL
MODEL 6
REMARK VINA RESULT:      -9.4      4.546      9.292
REMARK  6 active torsions:
REMARK  status: ('A' for Active; 'I' for Inactive)
REMARK    1  A    between atoms: C_6  and  N_7 
REMARK       I    between atoms: N_7  and  C_8 
REMARK    2  A    between atoms: C_8  and  C_9 
REMARK    3  A    between atoms: C_9  and  S_10 
REMARK    4  A    between atoms: S_10  and  C_11 
REMARK    5  A    between atoms: N_16  and  C_18 
REMARK    6  A    between atoms: C_18  and  C_19 
ROOT
HETATM    1  C   UNL     1      40.970 -14.474   3.930  1.00  0.00     0.169 A 
HETATM    2  N   UNL     1      41.806 -15.197   4.601  1.00  0.00    -0.228 NA
HETATM    3  C   UNL     1      42.609 -14.540   5.501  1.00  0.00     0.052 A 
HETATM    4  C   UNL     1      42.580 -13.212   5.692  1.00  0.00     0.060 A 
HETATM    5  C   UNL     1      43.375 -12.488   6.717  1.00  0.00     0.281 C 
HETATM    6  N   UNL     1      43.958 -13.427   7.758  1.00  0.00    -0.063 N 
HETATM    7  H   UNL     1      43.163 -13.770   8.312  1.00  0.00     0.280 HD
HETATM    8  C   UNL     1      44.590 -14.633   7.095  1.00  0.00     0.241 C 
HETATM    9  C   UNL     1      43.527 -15.417   6.317  1.00  0.00     0.088 C 
HETATM   10  C   UNL     1      41.659 -12.409   4.869  1.00  0.00     0.257 A 
HETATM   11  O   UNL     1      41.626 -11.192   4.988  1.00  0.00    -0.267 OA
HETATM   12  N   UNL     1      40.882 -13.122   4.014  1.00  0.00    -0.302 N 
HETATM   13  H   UNL     1      40.198 -12.638   3.451  1.00  0.00     0.171 HD
ENDROOT
BRANCH   1  14
HETATM   14  S   UNL     1      39.834 -15.145   2.810  1.00  0.00    -0.083 SA
BRANCH  14  15
HETATM   15  C   UNL     1      40.774 -16.603   2.253  1.00  0.00     0.185 C 
BRANCH  15  16
HETATM   16  C   UNL     1      41.949 -16.261   1.352  1.00  0.00     0.231 C 
HETATM   17  N   UNL     1      43.082 -17.026   1.352  1.00  0.00    -0.327 N 
HETATM   18  H   UNL     1      43.725 -16.697   0.639  1.00  0.00     0.169 HD
HETATM   19  O   UNL     1      41.926 -15.313   0.556  1.00  0.00    -0.272 OA
BRANCH  17  20
HETATM   20  C   UNL     1      43.532 -18.128   2.104  1.00  0.00     0.035 A 
HETATM   21  C   UNL     1      43.647 -19.439   1.645  1.00  0.00     0.037 A 
HETATM   22  C   UNL     1      44.106 -20.478   2.484  1.00  0.00    -0.054 A 
HETATM   23  C   UNL     1      44.428 -20.197   3.824  1.00  0.00    -0.056 A 
HETATM   24  C   UNL     1      44.154 -21.880   1.935  1.00  0.00     0.049 C 
HETATM   25  C   UNL     1      44.895 -21.271   4.769  1.00  0.00     0.049 C 
HETATM   26  C   UNL     1      44.304 -18.883   4.287  1.00  0.00     0.009 A 
HETATM   27  C   UNL     1      43.857 -17.867   3.440  1.00  0.00     0.030 A 
ENDBRANCH  17  20
ENDBRANCH  15  16
ENDBRANCH  14  15
ENDBRANCH   1  14
BRANCH   6  28
HETATM   28  C   UNL     1      44.867 -12.700   8.720  1.00  0.00     0.273 C 
BRANCH  28  29
HETATM   29  C   UNL     1      44.120 -11.985   9.816  1.00  0.00    -0.030 A 
HETATM   30  C   UNL     1      43.366 -10.831   9.530  1.00  0.00     0.048 A 
HETATM   31  C   UNL     1      42.667 -10.240  10.562  1.00  0.00     0.105 A 
HETATM   32  C   UNL     1      42.707 -10.729  11.843  1.00  0.00     0.105 A 
HETATM   33  O   UNL     1      41.873  -9.142  10.449  1.00  0.00    -0.323 OA
HETATM   34  O   UNL     1      41.947 -10.000  12.701  1.00  0.00    -0.323 OA
HETATM   35  C   UNL     1      43.453 -11.840  12.168  1.00  0.00     0.040 A 
HETATM   36  C   UNL     1      41.424  -8.987  11.816  1.00  0.00     0.352 A 
HETATM   37  C   UNL     1      44.165 -12.474  11.143  1.00  0.00     0.012 A 
ENDBRANCH  28  29
ENDBRANCH   6  28
TORSDOF 6
ENDMDL
MODEL 7
REMARK VINA RESULT:      -9.4      2.613      4.086
REMARK  6 active torsions:
REMARK  status: ('A' for Active; 'I' for Inactive)
REMARK    1  A    between atoms: C_6  and  N_7 
REMARK       I    between atoms: N_7  and  C_8 
REMARK    2  A    between atoms: C_8  and  C_9 
REMARK    3  A    between atoms: C_9  and  S_10 
REMARK    4  A    between atoms: S_10  and  C_11 
REMARK    5  A    between atoms: N_16  and  C_18 
REMARK    6  A    between atoms: C_18  and  C_19 
ROOT
HETATM    1  C   UNL     1      42.834 -15.566   6.174  1.00  0.00     0.169 A 
HETATM    2  N   UNL     1      41.603 -15.177   6.212  1.00  0.00    -0.228 NA
HETATM    3  C   UNL     1      41.209 -14.271   5.259  1.00  0.00     0.052 A 
HETATM    4  C   UNL     1      42.032 -13.767   4.327  1.00  0.00     0.060 A 
HETATM    5  C   UNL     1      41.613 -12.853   3.233  1.00  0.00     0.281 C 
HETATM    6  N   UNL     1      40.105 -12.820   3.060  1.00  0.00    -0.063 N 
HETATM    7  H   UNL     1      39.839 -13.737   2.681  1.00  0.00     0.280 HD
HETATM    8  C   UNL     1      39.417 -12.678   4.403  1.00  0.00     0.241 C 
HETATM    9  C   UNL     1      39.750 -13.885   5.287  1.00  0.00     0.088 C 
HETATM   10  C   UNL     1      43.445 -14.185   4.346  1.00  0.00     0.257 A 
HETATM   11  O   UNL     1      44.236 -13.724   3.534  1.00  0.00    -0.267 OA
HETATM   12  N   UNL     1      43.763 -15.095   5.301  1.00  0.00    -0.302 N 
HETATM   13  H   UNL     1      44.704 -15.457   5.343  1.00  0.00     0.171 HD
ENDROOT
BRANCH   1  14
HETATM   14  S   UNL     1      43.479 -16.758   7.250  1.00  0.00    -0.083 SA
BRANCH  14  15
HETATM   15  C   UNL     1      44.598 -17.631   6.108  1.00  0.00     0.185 C 
BRANCH  15  16
HETATM   16  C   UNL     1      44.052 -18.963   5.621  1.00  0.00     0.231 C 
HETATM   17  N   UNL     1      43.370 -19.054   4.439  1.00  0.00    -0.327 N 
HETATM   18  H   UNL     1      43.149 -20.024   4.238  1.00  0.00     0.169 HD
HETATM   19  O   UNL     1      44.228 -20.022   6.237  1.00  0.00    -0.272 OA
BRANCH  17  20
HETATM   20  C   UNL     1      42.924 -18.125   3.481  1.00  0.00     0.035 A 
HETATM   21  C   UNL     1      41.622 -17.641   3.355  1.00  0.00     0.037 A 
HETATM   22  C   UNL     1      41.275 -16.710   2.352  1.00  0.00    -0.054 A 
HETATM   23  C   UNL     1      42.251 -16.278   1.435  1.00  0.00    -0.056 A 
HETATM   24  C   UNL     1      39.838 -16.270   2.243  1.00  0.00     0.049 C 
HETATM   25  C   UNL     1      41.928 -15.310   0.330  1.00  0.00     0.049 C 
HETATM   26  C   UNL     1      43.554 -16.771   1.556  1.00  0.00     0.009 A 
HETATM   27  C   UNL     1      43.882 -17.685   2.560  1.00  0.00     0.030 A 
ENDBRANCH  17  20
ENDBRANCH  15  16
ENDBRANCH  14  15
ENDBRANCH   1  14
BRANCH   6  28
HETATM   28  C   UNL     1      39.683 -11.794   2.036  1.00  0.00     0.273 C 
BRANCH  28  29
HETATM   29  C   UNL     1      39.581 -12.357   0.642  1.00  0.00    -0.030 A 
HETATM   30  C   UNL     1      40.506 -11.980  -0.349  1.00  0.00     0.048 A 
HETATM   31  C   UNL     1      40.393 -12.557  -1.597  1.00  0.00     0.105 A 
HETATM   32  C   UNL     1      39.402 -13.458  -1.895  1.00  0.00     0.105 A 
HETATM   33  O   UNL     1      41.219 -12.323  -2.651  1.00  0.00    -0.323 OA
HETATM   34  O   UNL     1      39.475 -13.903  -3.176  1.00  0.00    -0.323 OA
HETATM   35  C   UNL     1      38.463 -13.833  -0.961  1.00  0.00     0.040 A 
HETATM   36  C   UNL     1      40.624 -13.176  -3.658  1.00  0.00     0.352 A 
HETATM   37  C   UNL     1      38.555 -13.277   0.320  1.00  0.00     0.012 A 
ENDBRANCH  28  29
ENDBRANCH   6  28
TORSDOF 6
ENDMDL
MODEL 8
REMARK VINA RESULT:      -9.3      2.988      8.363
REMARK  6 active torsions:
REMARK  status: ('A' for Active; 'I' for Inactive)
REMARK    1  A    between atoms: C_6  and  N_7 
REMARK       I    between atoms: N_7  and  C_8 
REMARK    2  A    between atoms: C_8  and  C_9 
REMARK    3  A    between atoms: C_9  and  S_10 
REMARK    4  A    between atoms: S_10  and  C_11 
REMARK    5  A    between atoms: N_16  and  C_18 
REMARK    6  A    between atoms: C_18  and  C_19 
ROOT
HETATM    1  C   UNL     1      40.818 -12.364   2.527  1.00  0.00     0.169 A 
HETATM    2  N   UNL     1      42.068 -12.684   2.596  1.00  0.00    -0.228 NA
HETATM    3  C   UNL     1      42.462 -13.410   3.693  1.00  0.00     0.052 A 
HETATM    4  C   UNL     1      41.631 -13.772   4.682  1.00  0.00     0.060 A 
HETATM    5  C   UNL     1      42.011 -14.628   5.836  1.00  0.00     0.281 C 
HETATM    6  N   UNL     1      43.331 -15.342   5.608  1.00  0.00    -0.063 N 
HETATM    7  H   UNL     1      43.158 -16.041   4.875  1.00  0.00     0.280 HD
HETATM    8  C   UNL     1      44.371 -14.382   5.067  1.00  0.00     0.241 C 
HETATM    9  C   UNL     1      43.912 -13.827   3.713  1.00  0.00     0.088 C 
HETATM   10  C   UNL     1      40.225 -13.340   4.604  1.00  0.00     0.257 A 
HETATM   11  O   UNL     1      39.442 -13.620   5.501  1.00  0.00    -0.267 OA
HETATM   12  N   UNL     1      39.898 -12.643   3.486  1.00  0.00    -0.302 N 
HETATM   13  H   UNL     1      38.941 -12.354   3.348  1.00  0.00     0.171 HD
ENDROOT
BRANCH   1  14
HETATM   14  S   UNL     1      40.136 -11.516   1.180  1.00  0.00    -0.083 SA
BRANCH  14  15
HETATM   15  C   UNL     1      41.281 -12.052  -0.131  1.00  0.00     0.185 C 
BRANCH  15  16
HETATM   16  C   UNL     1      40.656 -13.010  -1.132  1.00  0.00     0.231 C 
HETATM   17  N   UNL     1      40.485 -14.332  -0.828  1.00  0.00    -0.327 N 
HETATM   18  H   UNL     1      39.987 -14.800  -1.578  1.00  0.00     0.169 HD
HETATM   19  O   UNL     1      40.238 -12.642  -2.238  1.00  0.00    -0.272 OA
BRANCH  17  20
HETATM   20  C   UNL     1      40.843 -15.151   0.259  1.00  0.00     0.035 A 
HETATM   21  C   UNL     1      42.096 -15.723   0.475  1.00  0.00     0.037 A 
HETATM   22  C   UNL     1      42.352 -16.537   1.600  1.00  0.00    -0.054 A 
HETATM   23  C   UNL     1      41.317 -16.807   2.513  1.00  0.00    -0.056 A 
HETATM   24  C   UNL     1      43.715 -17.163   1.741  1.00  0.00     0.049 C 
HETATM   25  C   UNL     1      41.528 -17.690   3.712  1.00  0.00     0.049 C 
HETATM   26  C   UNL     1      40.057 -16.241   2.291  1.00  0.00     0.009 A 
HETATM   27  C   UNL     1      39.825 -15.431   1.177  1.00  0.00     0.030 A 
ENDBRANCH  17  20
ENDBRANCH  15  16
ENDBRANCH  14  15
ENDBRANCH   1  14
BRANCH   6  28
HETATM   28  C   UNL     1      43.771 -16.106   6.833  1.00  0.00     0.273 C 
BRANCH  28  29
HETATM   29  C   UNL     1      43.887 -17.590   6.595  1.00  0.00    -0.030 A 
HETATM   30  C   UNL     1      44.415 -18.080   5.387  1.00  0.00     0.048 A 
HETATM   31  C   UNL     1      44.538 -19.446   5.237  1.00  0.00     0.105 A 
HETATM   32  C   UNL     1      44.142 -20.324   6.214  1.00  0.00     0.105 A 
HETATM   33  O   UNL     1      45.052 -20.076   4.148  1.00  0.00    -0.323 OA
HETATM   34  O   UNL     1      44.352 -21.618   5.864  1.00  0.00    -0.323 OA
HETATM   35  C   UNL     1      43.596 -19.885   7.400  1.00  0.00     0.040 A 
HETATM   36  C   UNL     1      44.923 -21.461   4.548  1.00  0.00     0.352 A 
HETATM   37  C   UNL     1      43.469 -18.504   7.591  1.00  0.00     0.012 A 
ENDBRANCH  28  29
ENDBRANCH   6  28
TORSDOF 6
ENDMDL
MODEL 9
REMARK VINA RESULT:      -9.1      2.813      9.118
REMARK  6 active torsions:
REMARK  status: ('A' for Active; 'I' for Inactive)
REMARK    1  A    between atoms: C_6  and  N_7 
REMARK       I    between atoms: N_7  and  C_8 
REMARK    2  A    between atoms: C_8  and  C_9 
REMARK    3  A    between atoms: C_9  and  S_10 
REMARK    4  A    between atoms: S_10  and  C_11 
REMARK    5  A    between atoms: N_16  and  C_18 
REMARK    6  A    between atoms: C_18  and  C_19 
ROOT
HETATM    1  C   UNL     1      40.315 -14.035   1.223  1.00  0.00     0.169 A 
HETATM    2  N   UNL     1      41.262 -13.631   2.003  1.00  0.00    -0.228 NA
HETATM    3  C   UNL     1      41.796 -14.559   2.862  1.00  0.00     0.052 A 
HETATM    4  C   UNL     1      41.373 -15.830   2.940  1.00  0.00     0.060 A 
HETATM    5  C   UNL     1      41.988 -16.876   3.797  1.00  0.00     0.281 C 
HETATM    6  N   UNL     1      43.356 -16.463   4.311  1.00  0.00    -0.063 N 
HETATM    7  H   UNL     1      43.982 -16.464   3.496  1.00  0.00     0.280 HD
HETATM    8  C   UNL     1      43.321 -15.045   4.841  1.00  0.00     0.241 C 
HETATM    9  C   UNL     1      42.945 -14.077   3.713  1.00  0.00     0.088 C 
HETATM   10  C   UNL     1      40.251 -16.245   2.080  1.00  0.00     0.257 A 
HETATM   11  O   UNL     1      39.812 -17.385   2.144  1.00  0.00    -0.267 OA
HETATM   12  N   UNL     1      39.782 -15.284   1.243  1.00  0.00    -0.302 N 
HETATM   13  H   UNL     1      39.043 -15.513   0.596  1.00  0.00     0.171 HD
ENDROOT
BRANCH   1  14
HETATM   14  S   UNL     1      39.581 -13.019   0.029  1.00  0.00    -0.083 SA
BRANCH  14  15
HETATM   15  C   UNL     1      39.644 -14.138  -1.407  1.00  0.00     0.185 C 
BRANCH  15  16
HETATM   16  C   UNL     1      40.998 -14.799  -1.604  1.00  0.00     0.231 C 
HETATM   17  N   UNL     1      42.084 -14.073  -2.006  1.00  0.00    -0.327 N 
HETATM   18  H   UNL     1      42.913 -14.658  -2.010  1.00  0.00     0.169 HD
HETATM   19  O   UNL     1      41.194 -16.000  -1.375  1.00  0.00    -0.272 OA
BRANCH  17  20
HETATM   20  C   UNL     1      42.289 -12.738  -2.403  1.00  0.00     0.035 A 
HETATM   21  C   UNL     1      42.908 -11.745  -1.646  1.00  0.00     0.037 A 
HETATM   22  C   UNL     1      43.061 -10.429  -2.136  1.00  0.00    -0.054 A 
HETATM   23  C   UNL     1      42.554 -10.097  -3.406  1.00  0.00    -0.056 A 
HETATM   24  C   UNL     1      43.692  -9.395  -1.241  1.00  0.00     0.049 C 
HETATM   25  C   UNL     1      42.665  -8.705  -3.964  1.00  0.00     0.049 C 
HETATM   26  C   UNL     1      41.925 -11.092  -4.162  1.00  0.00     0.009 A 
HETATM   27  C   UNL     1      41.791 -12.390  -3.664  1.00  0.00     0.030 A 
ENDBRANCH  17  20
ENDBRANCH  15  16
ENDBRANCH  14  15
ENDBRANCH   1  14
BRANCH   6  28
HETATM   28  C   UNL     1      43.917 -17.475   5.282  1.00  0.00     0.273 C 
BRANCH  28  29
HETATM   29  C   UNL     1      44.103 -18.840   4.672  1.00  0.00    -0.030 A 
HETATM   30  C   UNL     1      43.832 -19.056   3.308  1.00  0.00     0.048 A 
HETATM   31  C   UNL     1      44.060 -20.314   2.790  1.00  0.00     0.105 A 
HETATM   32  C   UNL     1      44.515 -21.349   3.567  1.00  0.00     0.105 A 
HETATM   33  O   UNL     1      43.876 -20.678   1.494  1.00  0.00    -0.323 OA
HETATM   34  O   UNL     1      44.672 -22.498   2.861  1.00  0.00    -0.323 OA
HETATM   35  C   UNL     1      44.767 -21.186   4.911  1.00  0.00     0.040 A 
HETATM   36  C   UNL     1      44.259 -22.073   1.545  1.00  0.00     0.352 A 
HETATM   37  C   UNL     1      44.560 -19.918   5.467  1.00  0.00     0.012 A 
ENDBRANCH  28  29
ENDBRANCH   6  28
TORSDOF 6
ENDMDL
MODEL 10
REMARK VINA RESULT:      -8.9      3.817      8.108
REMARK  6 active torsions:
REMARK  status: ('A' for Active; 'I' for Inactive)
REMARK    1  A    between atoms: C_6  and  N_7 
REMARK       I    between atoms: N_7  and  C_8 
REMARK    2  A    between atoms: C_8  and  C_9 
REMARK    3  A    between atoms: C_9  and  S_10 
REMARK    4  A    between atoms: S_10  and  C_11 
REMARK    5  A    between atoms: N_16  and  C_18 
REMARK    6  A    between atoms: C_18  and  C_19 
ROOT
HETATM    1  C   UNL     1      41.293 -12.127   5.435  1.00  0.00     0.169 A 
HETATM    2  N   UNL     1      42.526 -12.380   5.724  1.00  0.00    -0.228 NA
HETATM    3  C   UNL     1      42.850 -13.692   5.967  1.00  0.00     0.052 A 
HETATM    4  C   UNL     1      41.959 -14.695   5.940  1.00  0.00     0.060 A 
HETATM    5  C   UNL     1      42.296 -16.131   6.114  1.00  0.00     0.281 C 
HETATM    6  N   UNL     1      43.785 -16.391   5.976  1.00  0.00    -0.063 N 
HETATM    7  H   UNL     1      44.013 -16.240   4.985  1.00  0.00     0.280 HD
HETATM    8  C   UNL     1      44.580 -15.376   6.773  1.00  0.00     0.241 C 
HETATM    9  C   UNL     1      44.310 -13.966   6.236  1.00  0.00     0.088 C 
HETATM   10  C   UNL     1      40.549 -14.367   5.666  1.00  0.00     0.257 A 
HETATM   11  O   UNL     1      39.699 -15.247   5.665  1.00  0.00    -0.267 OA
HETATM   12  N   UNL     1      40.301 -13.056   5.417  1.00  0.00    -0.302 N 
HETATM   13  H   UNL     1      39.363 -12.768   5.180  1.00  0.00     0.171 HD
ENDROOT
BRANCH   1  14
HETATM   14  S   UNL     1      40.726 -10.543   5.029  1.00  0.00    -0.083 SA
BRANCH  14  15
HETATM   15  C   UNL     1      39.120 -10.973   4.284  1.00  0.00     0.185 C 
BRANCH  15  16
HETATM   16  C   UNL     1      39.048 -10.695   2.792  1.00  0.00     0.231 C 
HETATM   17  N   UNL     1      39.329 -11.674   1.880  1.00  0.00    -0.327 N 
HETATM   18  H   UNL     1      39.156 -11.335   0.940  1.00  0.00     0.169 HD
HETATM   19  O   UNL     1      38.697  -9.601   2.332  1.00  0.00    -0.272 OA
BRANCH  17  20
HETATM   20  C   UNL     1      39.793 -13.000   1.964  1.00  0.00     0.035 A 
HETATM   21  C   UNL     1      41.123 -13.395   2.104  1.00  0.00     0.037 A 
HETATM   22  C   UNL     1      41.486 -14.757   2.175  1.00  0.00    -0.054 A 
HETATM   23  C   UNL     1      40.492 -15.748   2.072  1.00  0.00    -0.056 A 
HETATM   24  C   UNL     1      42.947 -15.110   2.273  1.00  0.00     0.049 C 
HETATM   25  C   UNL     1      40.826 -17.214   2.113  1.00  0.00     0.049 C 
HETATM   26  C   UNL     1      39.159 -15.352   1.923  1.00  0.00     0.009 A 
HETATM   27  C   UNL     1      38.818 -13.999   1.863  1.00  0.00     0.030 A 
ENDBRANCH  17  20
ENDBRANCH  15  16
ENDBRANCH  14  15
ENDBRANCH   1  14
BRANCH   6  28
HETATM   28  C   UNL     1      44.132 -17.828   6.280  1.00  0.00     0.273 C 
BRANCH  28  29
HETATM   29  C   UNL     1      44.199 -18.694   5.049  1.00  0.00    -0.030 A 
HETATM   30  C   UNL     1      44.481 -20.069   5.158  1.00  0.00     0.048 A 
HETATM   31  C   UNL     1      44.489 -20.825   4.005  1.00  0.00     0.105 A 
HETATM   32  C   UNL     1      44.254 -20.272   2.771  1.00  0.00     0.105 A 
HETATM   33  O   UNL     1      44.714 -22.163   3.941  1.00  0.00    -0.323 OA
HETATM   34  O   UNL     1      44.307 -21.191   1.773  1.00  0.00    -0.323 OA
HETATM   35  C   UNL     1      44.000 -18.927   2.619  1.00  0.00     0.040 A 
HETATM   36  C   UNL     1      44.607 -22.391   2.515  1.00  0.00     0.352 A 
HETATM   37  C   UNL     1      43.972 -18.132   3.771  1.00  0.00     0.012 A 
ENDBRANCH  28  29
ENDBRANCH   6  28
TORSDOF 6
ENDMDL
