MODEL 1
REMARK VINA RESULT:      -8.2      0.000      0.000
REMARK  3 active torsions:
REMARK  status: ('A' for Active; 'I' for Inactive)
REMARK    1  A    between atoms: C_2  and  O_3 
REMARK    2  A    between atoms: O_3  and  C_4 
REMARK    3  A    between atoms: C_8  and  N_9 
REMARK       I    between atoms: N_9  and  C_10 
REMARK       I    between atoms: C_10  and  N_11 
ROOT
HETATM    1  N   UNL     1      41.678 -13.484   1.098  1.00  0.00    -0.309 N 
HETATM    2  C   UNL     1      42.436 -14.006   2.120  1.00  0.00     0.323 C 
HETATM    3  N   UNL     1      42.298 -15.376   2.332  1.00  0.00    -0.328 N 
HETATM    4  C   UNL     1      42.985 -15.912   3.520  1.00  0.00     0.185 C 
HETATM    5  C   UNL     1      43.298 -17.351   3.316  1.00  0.00     0.035 A 
HETATM    6  C   UNL     1      42.889 -18.154   2.274  1.00  0.00    -0.020 A 
HETATM    7  C   UNL     1      42.061 -17.609   1.171  1.00  0.00     0.061 C 
HETATM    8  C   UNL     1      41.379 -16.299   1.618  1.00  0.00     0.132 C 
HETATM    9  N   UNL     1      44.069 -18.106   4.156  1.00  0.00    -0.357 N 
HETATM   10  H   UNL     1      44.520 -17.777   4.998  1.00  0.00     0.166 HD
HETATM   11  C   UNL     1      44.162 -19.395   3.673  1.00  0.00     0.043 A 
HETATM   12  C   UNL     1      43.425 -19.452   2.486  1.00  0.00    -0.001 A 
HETATM   13  C   UNL     1      44.845 -20.503   4.188  1.00  0.00     0.030 A 
HETATM   14  C   UNL     1      44.770 -21.702   3.473  1.00  0.00     0.002 A 
HETATM   15  C   UNL     1      44.042 -21.787   2.289  1.00  0.00     0.001 A 
HETATM   16  C   UNL     1      43.366 -20.671   1.784  1.00  0.00     0.014 A 
HETATM   17  O   UNL     1      43.196 -13.332   2.814  1.00  0.00    -0.247 OA
HETATM   18  H   UNL     1      40.842 -13.988   0.861  1.00  0.00     0.170 HD
ENDROOT
BRANCH   1  19
HETATM   19  C   UNL     1      41.798 -12.205   0.510  1.00  0.00     0.038 A 
HETATM   20  C   UNL     1      41.301 -11.034   1.080  1.00  0.00     0.056 A 
HETATM   21  C   UNL     1      41.492  -9.800   0.446  1.00  0.00     0.069 A 
HETATM   22  C   UNL     1      42.202  -9.711  -0.761  1.00  0.00     0.090 A 
HETATM   23 CL   UNL     1      40.847  -8.385   1.209  1.00  0.00    -0.081 Cl
HETATM   24  C   UNL     1      42.696 -10.885  -1.333  1.00  0.00     0.041 A 
HETATM   25  C   UNL     1      42.497 -12.119  -0.699  1.00  0.00     0.032 A 
BRANCH  22  26
HETATM   26  O   UNL     1      42.349  -8.464  -1.309  1.00  0.00    -0.350 OA
BRANCH  26  27
HETATM   27  C   UNL     1      43.673  -8.015  -1.584  1.00  0.00     0.171 C 
HETATM   28  C   UNL     1      44.242  -7.428  -0.304  1.00  0.00     0.034 C 
ENDBRANCH  26  27
ENDBRANCH  22  26
ENDBRANCH   1  19
TORSDOF 3
ENDMDL
MODEL 2
REMARK VINA RESULT:      -8.1      2.290      2.839
REMARK  3 active torsions:
REMARK  status: ('A' for Active; 'I' for Inactive)
REMARK    1  A    between atoms: C_2  and  O_3 
REMARK    2  A    between atoms: O_3  and  C_4 
REMARK    3  A    between atoms: C_8  and  N_9 
REMARK       I    between atoms: N_9  and  C_10 
REMARK       I    between atoms: C_10  and  N_11 
ROOT
HETATM    1  N   UNL     1      41.961 -14.351  -0.859  1.00  0.00    -0.309 N 
HETATM    2  C   UNL     1      41.681 -14.409   0.487  1.00  0.00     0.323 C 
HETATM    3  N   UNL     1      41.844 -15.659   1.080  1.00  0.00    -0.328 N 
HETATM    4  C   UNL     1      41.398 -15.764   2.481  1.00  0.00     0.185 C 
HETATM    5  C   UNL     1      42.147 -16.849   3.169  1.00  0.00     0.035 A 
HETATM    6  C   UNL     1      43.013 -17.756   2.600  1.00  0.00    -0.020 A 
HETATM    7  C   UNL     1      43.315 -17.714   1.148  1.00  0.00     0.061 C 
HETATM    8  C   UNL     1      42.218 -16.926   0.402  1.00  0.00     0.132 C 
HETATM    9  N   UNL     1      42.090 -17.102   4.512  1.00  0.00    -0.357 N 
HETATM   10  H   UNL     1      41.547 -16.584   5.188  1.00  0.00     0.166 HD
HETATM   11  C   UNL     1      42.907 -18.170   4.821  1.00  0.00     0.043 A 
HETATM   12  C   UNL     1      43.500 -18.602   3.631  1.00  0.00    -0.001 A 
HETATM   13  C   UNL     1      43.170 -18.776   6.056  1.00  0.00     0.030 A 
HETATM   14  C   UNL     1      44.061 -19.853   6.074  1.00  0.00     0.002 A 
HETATM   15  C   UNL     1      44.665 -20.304   4.902  1.00  0.00     0.001 A 
HETATM   16  C   UNL     1      44.395 -19.688   3.676  1.00  0.00     0.014 A 
HETATM   17  O   UNL     1      41.314 -13.438   1.146  1.00  0.00    -0.247 OA
HETATM   18  H   UNL     1      41.871 -15.211  -1.370  1.00  0.00     0.170 HD
ENDROOT
BRANCH   1  19
HETATM   19  C   UNL     1      42.118 -13.192  -1.651  1.00  0.00     0.038 A 
HETATM   20  C   UNL     1      42.785 -12.043  -1.230  1.00  0.00     0.056 A 
HETATM   21  C   UNL     1      42.926 -10.948  -2.092  1.00  0.00     0.069 A 
HETATM   22  C   UNL     1      42.418 -10.990  -3.400  1.00  0.00     0.090 A 
HETATM   23 CL   UNL     1      43.764  -9.552  -1.503  1.00  0.00    -0.081 Cl
HETATM   24  C   UNL     1      41.748 -12.140  -3.819  1.00  0.00     0.041 A 
HETATM   25  C   UNL     1      41.603 -13.231  -2.952  1.00  0.00     0.032 A 
BRANCH  22  26
HETATM   26  O   UNL     1      42.606  -9.878  -4.178  1.00  0.00    -0.350 OA
BRANCH  26  27
HETATM   27  C   UNL     1      41.983  -9.855  -5.459  1.00  0.00     0.171 C 
HETATM   28  C   UNL     1      42.602  -8.721  -6.258  1.00  0.00     0.034 C 
ENDBRANCH  26  27
ENDBRANCH  22  26
ENDBRANCH   1  19
TORSDOF 3
ENDMDL
MODEL 3
REMARK VINA RESULT:      -7.9      7.689     10.494
REMARK  3 active torsions:
REMARK  status: ('A' for Active; 'I' for Inactive)
REMARK    1  A    between atoms: C_2  and  O_3 
REMARK    2  A    between atoms: O_3  and  C_4 
REMARK    3  A    between atoms: C_8  and  N_9 
REMARK       I    between atoms: N_9  and  C_10 
REMARK       I    between atoms: C_10  and  N_11 
ROOT
HETATM    1  N   UNL     1      42.847 -12.951   6.341  1.00  0.00    -0.309 N 
HETATM    2  C   UNL     1      43.676 -12.762   7.423  1.00  0.00     0.323 C 
HETATM    3  N   UNL     1      43.331 -11.710   8.268  1.00  0.00    -0.328 N 
HETATM    4  C   UNL     1      44.299 -11.405   9.337  1.00  0.00     0.185 C 
HETATM    5  C   UNL     1      43.601 -10.761  10.481  1.00  0.00     0.035 A 
HETATM    6  C   UNL     1      42.291 -10.337  10.527  1.00  0.00    -0.020 A 
HETATM    7  C   UNL     1      41.388 -10.522   9.365  1.00  0.00     0.061 C 
HETATM    8  C   UNL     1      42.216 -10.747   8.083  1.00  0.00     0.132 C 
HETATM    9  N   UNL     1      44.175 -10.496  11.694  1.00  0.00    -0.357 N 
HETATM   10  H   UNL     1      45.127 -10.713  11.956  1.00  0.00     0.166 HD
HETATM   11  C   UNL     1      43.252  -9.900  12.528  1.00  0.00     0.043 A 
HETATM   12  C   UNL     1      42.055  -9.787  11.815  1.00  0.00    -0.001 A 
HETATM   13  C   UNL     1      43.384  -9.463  13.851  1.00  0.00     0.030 A 
HETATM   14  C   UNL     1      42.263  -8.893  14.462  1.00  0.00     0.002 A 
HETATM   15  C   UNL     1      41.057  -8.768  13.775  1.00  0.00     0.001 A 
HETATM   16  C   UNL     1      40.939  -9.210  12.453  1.00  0.00     0.014 A 
HETATM   17  O   UNL     1      44.660 -13.463   7.654  1.00  0.00    -0.247 OA
HETATM   18  H   UNL     1      42.338 -12.144   6.025  1.00  0.00     0.170 HD
ENDROOT
BRANCH   1  19
HETATM   19  C   UNL     1      42.810 -14.065   5.475  1.00  0.00     0.038 A 
HETATM   20  C   UNL     1      42.169 -15.266   5.775  1.00  0.00     0.056 A 
HETATM   21  C   UNL     1      42.151 -16.313   4.843  1.00  0.00     0.069 A 
HETATM   22  C   UNL     1      42.759 -16.170   3.587  1.00  0.00     0.090 A 
HETATM   23 CL   UNL     1      41.337 -17.777   5.282  1.00  0.00    -0.081 Cl
HETATM   24  C   UNL     1      43.404 -14.969   3.290  1.00  0.00     0.041 A 
HETATM   25  C   UNL     1      43.425 -13.926   4.226  1.00  0.00     0.032 A 
BRANCH  22  26
HETATM   26  O   UNL     1      42.688 -17.241   2.735  1.00  0.00    -0.350 OA
BRANCH  26  27
HETATM   27  C   UNL     1      43.914 -17.845   2.329  1.00  0.00     0.171 C 
HETATM   28  C   UNL     1      44.019 -19.194   3.016  1.00  0.00     0.034 C 
ENDBRANCH  26  27
ENDBRANCH  22  26
ENDBRANCH   1  19
TORSDOF 3
ENDMDL
MODEL 4
REMARK VINA RESULT:      -7.8      2.981      4.096
REMARK  3 active torsions:
REMARK  status: ('A' for Active; 'I' for Inactive)
REMARK    1  A    between atoms: C_2  and  O_3 
REMARK    2  A    between atoms: O_3  and  C_4 
REMARK    3  A    between atoms: C_8  and  N_9 
REMARK       I    between atoms: N_9  and  C_10 
REMARK       I    between atoms: C_10  and  N_11 
ROOT
HETATM    1  N   UNL     1      41.302 -14.711   1.437  1.00  0.00    -0.309 N 
HETATM    2  C   UNL     1      41.687 -15.916   0.896  1.00  0.00     0.323 C 
HETATM    3  N   UNL     1      42.591 -16.654   1.656  1.00  0.00    -0.328 N 
HETATM    4  C   UNL     1      43.125 -17.867   1.013  1.00  0.00     0.185 C 
HETATM    5  C   UNL     1      43.536 -18.850   2.051  1.00  0.00     0.035 A 
HETATM    6  C   UNL     1      43.589 -18.651   3.413  1.00  0.00    -0.020 A 
HETATM    7  C   UNL     1      43.188 -17.354   4.010  1.00  0.00     0.061 C 
HETATM    8  C   UNL     1      43.220 -16.245   2.938  1.00  0.00     0.132 C 
HETATM    9  N   UNL     1      43.923 -20.137   1.795  1.00  0.00    -0.357 N 
HETATM   10  H   UNL     1      43.966 -20.569   0.882  1.00  0.00     0.166 HD
HETATM   11  C   UNL     1      44.232 -20.776   2.977  1.00  0.00     0.043 A 
HETATM   12  C   UNL     1      44.030 -19.860   4.014  1.00  0.00    -0.001 A 
HETATM   13  C   UNL     1      44.663 -22.088   3.206  1.00  0.00     0.030 A 
HETATM   14  C   UNL     1      44.897 -22.473   4.529  1.00  0.00     0.002 A 
HETATM   15  C   UNL     1      44.705 -21.581   5.581  1.00  0.00     0.001 A 
HETATM   16  C   UNL     1      44.272 -20.273   5.338  1.00  0.00     0.014 A 
HETATM   17  O   UNL     1      41.273 -16.338  -0.183  1.00  0.00    -0.247 OA
HETATM   18  H   UNL     1      41.946 -14.285   2.080  1.00  0.00     0.170 HD
ENDROOT
BRANCH   1  19
HETATM   19  C   UNL     1      40.235 -13.886   1.018  1.00  0.00     0.038 A 
HETATM   20  C   UNL     1      40.388 -12.760   0.210  1.00  0.00     0.056 A 
HETATM   21  C   UNL     1      39.270 -12.015  -0.188  1.00  0.00     0.069 A 
HETATM   22  C   UNL     1      37.976 -12.394   0.198  1.00  0.00     0.090 A 
HETATM   23 CL   UNL     1      39.534 -10.627  -1.189  1.00  0.00    -0.081 Cl
HETATM   24  C   UNL     1      37.824 -13.520   1.009  1.00  0.00     0.041 A 
HETATM   25  C   UNL     1      38.944 -14.259   1.411  1.00  0.00     0.032 A 
BRANCH  22  26
HETATM   26  O   UNL     1      36.940 -11.613  -0.242  1.00  0.00    -0.350 OA
BRANCH  26  27
HETATM   27  C   UNL     1      36.236 -10.840   0.728  1.00  0.00     0.171 C 
HETATM   28  C   UNL     1      34.750 -11.008   0.467  1.00  0.00     0.034 C 
ENDBRANCH  26  27
ENDBRANCH  22  26
ENDBRANCH   1  19
TORSDOF 3
ENDMDL
MODEL 5
REMARK VINA RESULT:      -7.8      4.976      9.641
REMARK  3 active torsions:
REMARK  status: ('A' for Active; 'I' for Inactive)
REMARK    1  A    between atoms: C_2  and  O_3 
REMARK    2  A    between atoms: O_3  and  C_4 
REMARK    3  A    between atoms: C_8  and  N_9 
REMARK       I    between atoms: N_9  and  C_10 
REMARK       I    between atoms: C_10  and  N_11 
ROOT
HETATM    1  N   UNL     1      41.869 -16.263  -0.154  1.00  0.00    -0.309 N 
HETATM    2  C   UNL     1      41.250 -15.034  -0.162  1.00  0.00     0.323 C 
HETATM    3  N   UNL     1      40.563 -14.715  -1.331  1.00  0.00    -0.328 N 
HETATM    4  C   UNL     1      40.031 -13.343  -1.406  1.00  0.00     0.185 C 
HETATM    5  C   UNL     1      38.858 -13.305  -2.320  1.00  0.00     0.035 A 
HETATM    6  C   UNL     1      38.397 -14.321  -3.127  1.00  0.00    -0.020 A 
HETATM    7  C   UNL     1      39.061 -15.647  -3.139  1.00  0.00     0.061 C 
HETATM    8  C   UNL     1      40.492 -15.527  -2.572  1.00  0.00     0.132 C 
HETATM    9  N   UNL     1      38.038 -12.224  -2.488  1.00  0.00    -0.357 N 
HETATM   10  H   UNL     1      38.124 -11.337  -2.010  1.00  0.00     0.166 HD
HETATM   11  C   UNL     1      37.049 -12.525  -3.401  1.00  0.00     0.043 A 
HETATM   12  C   UNL     1      37.254 -13.844  -3.820  1.00  0.00    -0.001 A 
HETATM   13  C   UNL     1      35.992 -11.740  -3.877  1.00  0.00     0.030 A 
HETATM   14  C   UNL     1      35.123 -12.316  -4.808  1.00  0.00     0.002 A 
HETATM   15  C   UNL     1      35.304 -13.627  -5.244  1.00  0.00     0.001 A 
HETATM   16  C   UNL     1      36.364 -14.401  -4.758  1.00  0.00     0.014 A 
HETATM   17  O   UNL     1      41.281 -14.253   0.787  1.00  0.00    -0.247 OA
HETATM   18  H   UNL     1      42.118 -16.642  -1.051  1.00  0.00     0.170 HD
ENDROOT
BRANCH   1  19
HETATM   19  C   UNL     1      42.416 -16.939   0.959  1.00  0.00     0.038 A 
HETATM   20  C   UNL     1      41.745 -17.124   2.167  1.00  0.00     0.056 A 
HETATM   21  C   UNL     1      42.348 -17.837   3.211  1.00  0.00     0.069 A 
HETATM   22  C   UNL     1      43.626 -18.395   3.059  1.00  0.00     0.090 A 
HETATM   23 CL   UNL     1      41.458 -18.029   4.684  1.00  0.00    -0.081 Cl
HETATM   24  C   UNL     1      44.299 -18.205   1.851  1.00  0.00     0.041 A 
HETATM   25  C   UNL     1      43.695 -17.486   0.811  1.00  0.00     0.032 A 
BRANCH  22  26
HETATM   26  O   UNL     1      44.138 -19.082   4.128  1.00  0.00    -0.350 OA
BRANCH  26  27
HETATM   27  C   UNL     1      44.583 -20.418   3.904  1.00  0.00     0.171 C 
HETATM   28  C   UNL     1      44.659 -21.116   5.250  1.00  0.00     0.034 C 
ENDBRANCH  26  27
ENDBRANCH  22  26
ENDBRANCH   1  19
TORSDOF 3
ENDMDL
MODEL 6
REMARK VINA RESULT:      -7.7      3.177      3.552
REMARK  3 active torsions:
REMARK  status: ('A' for Active; 'I' for Inactive)
REMARK    1  A    between atoms: C_2  and  O_3 
REMARK    2  A    between atoms: O_3  and  C_4 
REMARK    3  A    between atoms: C_8  and  N_9 
REMARK       I    between atoms: N_9  and  C_10 
REMARK       I    between atoms: C_10  and  N_11 
ROOT
HETATM    1  N   UNL     1      40.585 -15.246  -0.654  1.00  0.00    -0.309 N 
HETATM    2  C   UNL     1      40.531 -15.029   0.703  1.00  0.00     0.323 C 
HETATM    3  N   UNL     1      40.854 -16.125   1.500  1.00  0.00    -0.328 N 
HETATM    4  C   UNL     1      40.648 -15.945   2.948  1.00  0.00     0.185 C 
HETATM    5  C   UNL     1      41.556 -16.848   3.704  1.00  0.00     0.035 A 
HETATM    6  C   UNL     1      42.365 -17.837   3.191  1.00  0.00    -0.020 A 
HETATM    7  C   UNL     1      42.426 -18.092   1.731  1.00  0.00     0.061 C 
HETATM    8  C   UNL     1      41.181 -17.497   1.038  1.00  0.00     0.132 C 
HETATM    9  N   UNL     1      41.731 -16.819   5.060  1.00  0.00    -0.357 N 
HETATM   10  H   UNL     1      41.277 -16.181   5.700  1.00  0.00     0.166 HD
HETATM   11  C   UNL     1      42.643 -17.783   5.435  1.00  0.00     0.043 A 
HETATM   12  C   UNL     1      43.058 -18.441   4.273  1.00  0.00    -0.001 A 
HETATM   13  C   UNL     1      43.134 -18.114   6.704  1.00  0.00     0.030 A 
HETATM   14  C   UNL     1      44.072 -19.147   6.787  1.00  0.00     0.002 A 
HETATM   15  C   UNL     1      44.503 -19.819   5.646  1.00  0.00     0.001 A 
HETATM   16  C   UNL     1      44.005 -19.477   4.384  1.00  0.00     0.014 A 
HETATM   17  O   UNL     1      40.224 -13.949   1.206  1.00  0.00    -0.247 OA
HETATM   18  H   UNL     1      40.460 -16.196  -0.959  1.00  0.00     0.170 HD
ENDROOT
BRANCH   1  19
HETATM   19  C   UNL     1      40.550 -14.275  -1.678  1.00  0.00     0.038 A 
HETATM   20  C   UNL     1      39.377 -13.726  -2.195  1.00  0.00     0.056 A 
HETATM   21  C   UNL     1      39.433 -12.740  -3.189  1.00  0.00     0.069 A 
HETATM   22  C   UNL     1      40.664 -12.271  -3.672  1.00  0.00     0.090 A 
HETATM   23 CL   UNL     1      37.938 -12.103  -3.786  1.00  0.00    -0.081 Cl
HETATM   24  C   UNL     1      41.838 -12.825  -3.157  1.00  0.00     0.041 A 
HETATM   25  C   UNL     1      41.779 -13.815  -2.167  1.00  0.00     0.032 A 
BRANCH  22  26
HETATM   26  O   UNL     1      40.627 -11.302  -4.638  1.00  0.00    -0.350 OA
BRANCH  26  27
HETATM   27  C   UNL     1      41.863 -10.708  -5.028  1.00  0.00     0.171 C 
HETATM   28  C   UNL     1      41.820  -9.242  -4.634  1.00  0.00     0.034 C 
ENDBRANCH  26  27
ENDBRANCH  22  26
ENDBRANCH   1  19
TORSDOF 3
ENDMDL
MODEL 7
REMARK VINA RESULT:      -7.7      6.992      8.581
REMARK  3 active torsions:
REMARK  status: ('A' for Active; 'I' for Inactive)
REMARK    1  A    between atoms: C_2  and  O_3 
REMARK    2  A    between atoms: O_3  and  C_4 
REMARK    3  A    between atoms: C_8  and  N_9 
REMARK       I    between atoms: N_9  and  C_10 
REMARK       I    between atoms: C_10  and  N_11 
ROOT
HETATM    1  N   UNL     1      43.662 -11.939   8.624  1.00  0.00    -0.309 N 
HETATM    2  C   UNL     1      42.988 -12.158   7.445  1.00  0.00     0.323 C 
HETATM    3  N   UNL     1      43.479 -13.196   6.656  1.00  0.00    -0.328 N 
HETATM    4  C   UNL     1      42.861 -13.334   5.326  1.00  0.00     0.185 C 
HETATM    5  C   UNL     1      42.977 -14.741   4.858  1.00  0.00     0.035 A 
HETATM    6  C   UNL     1      43.685 -15.762   5.454  1.00  0.00    -0.020 A 
HETATM    7  C   UNL     1      44.427 -15.539   6.719  1.00  0.00     0.061 C 
HETATM    8  C   UNL     1      44.677 -14.030   6.926  1.00  0.00     0.132 C 
HETATM    9  N   UNL     1      42.371 -15.242   3.740  1.00  0.00    -0.357 N 
HETATM   10  H   UNL     1      41.772 -14.724   3.111  1.00  0.00     0.166 HD
HETATM   11  C   UNL     1      42.681 -16.579   3.598  1.00  0.00     0.043 A 
HETATM   12  C   UNL     1      43.510 -16.931   4.668  1.00  0.00    -0.001 A 
HETATM   13  C   UNL     1      42.286 -17.496   2.618  1.00  0.00     0.030 A 
HETATM   14  C   UNL     1      42.754 -18.809   2.731  1.00  0.00     0.002 A 
HETATM   15  C   UNL     1      43.581 -19.188   3.786  1.00  0.00     0.001 A 
HETATM   16  C   UNL     1      43.967 -18.260   4.760  1.00  0.00     0.014 A 
HETATM   17  O   UNL     1      42.012 -11.499   7.089  1.00  0.00    -0.247 OA
HETATM   18  H   UNL     1      44.623 -12.233   8.649  1.00  0.00     0.170 HD
ENDROOT
BRANCH   1  19
HETATM   19  C   UNL     1      43.249 -11.138   9.711  1.00  0.00     0.038 A 
HETATM   20  C   UNL     1      41.940 -10.695   9.902  1.00  0.00     0.056 A 
HETATM   21  C   UNL     1      41.608  -9.930  11.027  1.00  0.00     0.069 A 
HETATM   22  C   UNL     1      42.573  -9.609  11.993  1.00  0.00     0.090 A 
HETATM   23 CL   UNL     1      39.964  -9.412  11.200  1.00  0.00    -0.081 Cl
HETATM   24  C   UNL     1      43.883 -10.050  11.799  1.00  0.00     0.041 A 
HETATM   25  C   UNL     1      44.215 -10.810  10.669  1.00  0.00     0.032 A 
BRANCH  22  26
HETATM   26  O   UNL     1      42.160  -8.863  13.065  1.00  0.00    -0.350 OA
BRANCH  26  27
HETATM   27  C   UNL     1      42.875  -9.012  14.289  1.00  0.00     0.171 C 
HETATM   28  C   UNL     1      42.041  -9.879  15.214  1.00  0.00     0.034 C 
ENDBRANCH  26  27
ENDBRANCH  22  26
ENDBRANCH   1  19
TORSDOF 3
ENDMDL
MODEL 8
REMARK VINA RESULT:      -7.6      3.754      4.463
REMARK  3 active torsions:
REMARK  status: ('A' for Active; 'I' for Inactive)
REMARK    1  A    between atoms: C_2  and  O_3 
REMARK    2  A    between atoms: O_3  and  C_4 
REMARK    3  A    between atoms: C_8  and  N_9 
REMARK       I    between atoms: N_9  and  C_10 
REMARK       I    between atoms: C_10  and  N_11 
ROOT
HETATM    1  N   UNL     1      42.227 -13.969   4.745  1.00  0.00    -0.309 N 
HETATM    2  C   UNL     1      42.406 -14.822   3.681  1.00  0.00     0.323 C 
HETATM    3  N   UNL     1      43.216 -15.928   3.928  1.00  0.00    -0.328 N 
HETATM    4  C   UNL     1      43.537 -16.760   2.754  1.00  0.00     0.185 C 
HETATM    5  C   UNL     1      43.834 -18.151   3.188  1.00  0.00     0.035 A 
HETATM    6  C   UNL     1      43.967 -18.613   4.478  1.00  0.00    -0.020 A 
HETATM    7  C   UNL     1      43.789 -17.702   5.636  1.00  0.00     0.061 C 
HETATM    8  C   UNL     1      43.947 -16.235   5.184  1.00  0.00     0.132 C 
HETATM    9  N   UNL     1      44.013 -19.209   2.339  1.00  0.00    -0.357 N 
HETATM   10  H   UNL     1      43.956 -19.173   1.330  1.00  0.00     0.166 HD
HETATM   11  C   UNL     1      44.266 -20.354   3.065  1.00  0.00     0.043 A 
HETATM   12  C   UNL     1      44.243 -20.004   4.419  1.00  0.00    -0.001 A 
HETATM   13  C   UNL     1      44.503 -21.663   2.630  1.00  0.00     0.030 A 
HETATM   14  C   UNL     1      44.725 -22.641   3.604  1.00  0.00     0.002 A 
HETATM   15  C   UNL     1      44.709 -22.320   4.960  1.00  0.00     0.001 A 
HETATM   16  C   UNL     1      44.469 -21.008   5.381  1.00  0.00     0.014 A 
HETATM   17  O   UNL     1      41.894 -14.647   2.577  1.00  0.00    -0.247 OA
HETATM   18  H   UNL     1      42.952 -13.967   5.441  1.00  0.00     0.170 HD
ENDROOT
BRANCH   1  19
HETATM   19  C   UNL     1      41.282 -12.926   4.856  1.00  0.00     0.038 A 
HETATM   20  C   UNL     1      41.570 -11.582   4.622  1.00  0.00     0.056 A 
HETATM   21  C   UNL     1      40.563 -10.613   4.721  1.00  0.00     0.069 A 
HETATM   22  C   UNL     1      39.245 -10.972   5.038  1.00  0.00     0.090 A 
HETATM   23 CL   UNL     1      40.991  -8.963   4.419  1.00  0.00    -0.081 Cl
HETATM   24  C   UNL     1      38.958 -12.318   5.276  1.00  0.00     0.041 A 
HETATM   25  C   UNL     1      39.969 -13.284   5.182  1.00  0.00     0.032 A 
BRANCH  22  26
HETATM   26  O   UNL     1      38.322  -9.962   5.108  1.00  0.00    -0.350 OA
BRANCH  26  27
HETATM   27  C   UNL     1      37.581  -9.660   3.928  1.00  0.00     0.171 C 
HETATM   28  C   UNL     1      37.308  -8.167   3.918  1.00  0.00     0.034 C 
ENDBRANCH  26  27
ENDBRANCH  22  26
ENDBRANCH   1  19
TORSDOF 3
ENDMDL
MODEL 9
REMARK VINA RESULT:      -7.6      6.101      7.457
REMARK  3 active torsions:
REMARK  status: ('A' for Active; 'I' for Inactive)
REMARK    1  A    between atoms: C_2  and  O_3 
REMARK    2  A    between atoms: O_3  and  C_4 
REMARK    3  A    between atoms: C_8  and  N_9 
REMARK       I    between atoms: N_9  and  C_10 
REMARK       I    between atoms: C_10  and  N_11 
ROOT
HETATM    1  N   UNL     1      41.842 -11.722   7.315  1.00  0.00    -0.309 N 
HETATM    2  C   UNL     1      41.765 -11.938   5.958  1.00  0.00     0.323 C 
HETATM    3  N   UNL     1      42.545 -12.985   5.471  1.00  0.00    -0.328 N 
HETATM    4  C   UNL     1      42.588 -13.122   4.005  1.00  0.00     0.185 C 
HETATM    5  C   UNL     1      42.884 -14.532   3.638  1.00  0.00     0.035 A 
HETATM    6  C   UNL     1      43.238 -15.558   4.486  1.00  0.00    -0.020 A 
HETATM    7  C   UNL     1      43.337 -15.338   5.949  1.00  0.00     0.061 C 
HETATM    8  C   UNL     1      43.486 -13.831   6.249  1.00  0.00     0.132 C 
HETATM    9  N   UNL     1      42.837 -15.032   2.365  1.00  0.00    -0.357 N 
HETATM   10  H   UNL     1      42.590 -14.510   1.536  1.00  0.00     0.166 HD
HETATM   11  C   UNL     1      43.162 -16.372   2.377  1.00  0.00     0.043 A 
HETATM   12  C   UNL     1      43.420 -16.729   3.704  1.00  0.00    -0.001 A 
HETATM   13  C   UNL     1      43.238 -17.289   1.322  1.00  0.00     0.030 A 
HETATM   14  C   UNL     1      43.590 -18.607   1.632  1.00  0.00     0.002 A 
HETATM   15  C   UNL     1      43.852 -18.990   2.945  1.00  0.00     0.001 A 
HETATM   16  C   UNL     1      43.772 -18.062   3.989  1.00  0.00     0.014 A 
HETATM   17  O   UNL     1      41.060 -11.271   5.204  1.00  0.00    -0.247 OA
HETATM   18  H   UNL     1      42.687 -12.026   7.767  1.00  0.00     0.170 HD
ENDROOT
BRANCH   1  19
HETATM   19  C   UNL     1      40.995 -10.912   8.102  1.00  0.00     0.038 A 
HETATM   20  C   UNL     1      41.405  -9.742   8.741  1.00  0.00     0.056 A 
HETATM   21  C   UNL     1      40.490  -8.978   9.476  1.00  0.00     0.069 A 
HETATM   22  C   UNL     1      39.144  -9.358   9.570  1.00  0.00     0.090 A 
HETATM   23 CL   UNL     1      41.068  -7.538  10.245  1.00  0.00    -0.081 Cl
HETATM   24  C   UNL     1      38.735 -10.531   8.933  1.00  0.00     0.041 A 
HETATM   25  C   UNL     1      39.653 -11.297   8.203  1.00  0.00     0.032 A 
BRANCH  22  26
HETATM   26  O   UNL     1      38.316  -8.549  10.303  1.00  0.00    -0.350 OA
BRANCH  26  27
HETATM   27  C   UNL     1      37.936  -8.995  11.603  1.00  0.00     0.171 C 
HETATM   28  C   UNL     1      38.054  -7.817  12.553  1.00  0.00     0.034 C 
ENDBRANCH  26  27
ENDBRANCH  22  26
ENDBRANCH   1  19
TORSDOF 3
ENDMDL
MODEL 10
REMARK VINA RESULT:      -7.5      3.872      4.703
REMARK  3 active torsions:
REMARK  status: ('A' for Active; 'I' for Inactive)
REMARK    1  A    between atoms: C_2  and  O_3 
REMARK    2  A    between atoms: O_3  and  C_4 
REMARK    3  A    between atoms: C_8  and  N_9 
REMARK       I    between atoms: N_9  and  C_10 
REMARK       I    between atoms: C_10  and  N_11 
ROOT
HETATM    1  N   UNL     1      41.570 -13.402   5.668  1.00  0.00    -0.309 N 
HETATM    2  C   UNL     1      42.605 -14.257   5.968  1.00  0.00     0.323 C 
HETATM    3  N   UNL     1      42.458 -15.564   5.507  1.00  0.00    -0.328 N 
HETATM    4  C   UNL     1      43.485 -16.520   5.957  1.00  0.00     0.185 C 
HETATM    5  C   UNL     1      43.605 -17.631   4.975  1.00  0.00     0.035 A 
HETATM    6  C   UNL     1      42.797 -17.872   3.886  1.00  0.00    -0.020 A 
HETATM    7  C   UNL     1      41.670 -16.966   3.557  1.00  0.00     0.061 C 
HETATM    8  C   UNL     1      41.284 -16.130   4.795  1.00  0.00     0.132 C 
HETATM    9  N   UNL     1      44.571 -18.598   5.009  1.00  0.00    -0.357 N 
HETATM   10  H   UNL     1      45.315 -18.666   5.691  1.00  0.00     0.166 HD
HETATM   11  C   UNL     1      44.397 -19.470   3.954  1.00  0.00     0.043 A 
HETATM   12  C   UNL     1      43.283 -19.034   3.230  1.00  0.00    -0.001 A 
HETATM   13  C   UNL     1      45.141 -20.596   3.585  1.00  0.00     0.030 A 
HETATM   14  C   UNL     1      44.734 -21.299   2.447  1.00  0.00     0.002 A 
HETATM   15  C   UNL     1      43.628 -20.887   1.707  1.00  0.00     0.001 A 
HETATM   16  C   UNL     1      42.894 -19.758   2.087  1.00  0.00     0.014 A 
HETATM   17  O   UNL     1      43.607 -13.917   6.596  1.00  0.00    -0.247 OA
HETATM   18  H   UNL     1      40.672 -13.826   5.515  1.00  0.00     0.170 HD
ENDROOT
BRANCH   1  19
HETATM   19  C   UNL     1      41.560 -11.995   5.790  1.00  0.00     0.038 A 
HETATM   20  C   UNL     1      41.394 -11.119   4.718  1.00  0.00     0.056 A 
HETATM   21  C   UNL     1      41.362  -9.735   4.931  1.00  0.00     0.069 A 
HETATM   22  C   UNL     1      41.477  -9.202   6.223  1.00  0.00     0.090 A 
HETATM   23 CL   UNL     1      41.154  -8.706   3.554  1.00  0.00    -0.081 Cl
HETATM   24  C   UNL     1      41.648 -10.079   7.295  1.00  0.00     0.041 A 
HETATM   25  C   UNL     1      41.685 -11.463   7.079  1.00  0.00     0.032 A 
BRANCH  22  26
HETATM   26  O   UNL     1      41.429  -7.837   6.342  1.00  0.00    -0.350 OA
BRANCH  26  27
HETATM   27  C   UNL     1      40.544  -7.289   7.315  1.00  0.00     0.171 C 
HETATM   28  C   UNL     1      39.135  -7.354   6.753  1.00  0.00     0.034 C 
ENDBRANCH  26  27
ENDBRANCH  22  26
ENDBRANCH   1  19
TORSDOF 3
ENDMDL
