MODEL 1
REMARK VINA RESULT:      -9.5      0.000      0.000
REMARK  6 active torsions:
REMARK  status: ('A' for Active; 'I' for Inactive)
REMARK    1  A    between atoms: C_5  and  C_6 
REMARK    2  A    between atoms: C_11  and  C_12 
REMARK       I    between atoms: C_12  and  N_13 
REMARK    3  A    between atoms: N_13  and  C_14 
REMARK    4  A    between atoms: C_16  and  C_17 
REMARK    5  A    between atoms: C_17  and  O_18 
REMARK    6  A    between atoms: C_25  and  C_26 
ROOT
HETATM    1  C   UNL     1      42.742 -17.375   3.204  1.00  0.00     0.118 C 
HETATM    2  N   UNL     1      43.561 -16.219   3.583  1.00  0.00    -0.366 N 
HETATM    3  C   UNL     1      43.063 -15.201   4.313  1.00  0.00     0.123 A 
HETATM    4  N   UNL     1      41.717 -14.999   4.412  1.00  0.00    -0.240 N 
HETATM    5  N   UNL     1      41.366 -14.042   5.291  1.00  0.00    -0.165 NA
HETATM    6  C   UNL     1      42.559 -13.556   5.711  1.00  0.00     0.148 A 
HETATM    7  C   UNL     1      43.645 -14.230   5.083  1.00  0.00     0.089 A 
HETATM    8  C   UNL     1      40.749 -15.876   3.785  1.00  0.00     0.221 C 
HETATM    9  C   UNL     1      41.315 -17.303   3.789  1.00  0.00     0.066 C 
HETATM   10  H   UNL     1      44.568 -16.379   3.538  1.00  0.00     0.161 HD
ENDROOT
BRANCH   6  11
HETATM   11  C   UNL     1      42.662 -12.505   6.738  1.00  0.00     0.276 C 
HETATM   12  N   UNL     1      43.594 -12.823   7.707  1.00  0.00    -0.322 N 
HETATM   13  H   UNL     1      44.002 -13.748   7.587  1.00  0.00     0.169 HD
HETATM   14  O   UNL     1      41.985 -11.485   6.677  1.00  0.00    -0.266 OA
BRANCH  12  15
HETATM   15  C   UNL     1      44.047 -12.032   8.775  1.00  0.00     0.035 A 
HETATM   16  C   UNL     1      43.198 -11.427   9.706  1.00  0.00     0.039 A 
HETATM   17  C   UNL     1      43.707 -10.624  10.743  1.00  0.00    -0.028 A 
HETATM   18  C   UNL     1      45.094 -10.449  10.840  1.00  0.00     0.010 A 
HETATM   19  C   UNL     1      45.948 -11.047   9.915  1.00  0.00     0.003 A 
HETATM   20  C   UNL     1      45.426 -11.830   8.884  1.00  0.00     0.029 A 
BRANCH  17  21
HETATM   21  C   UNL     1      42.746  -9.992  11.728  1.00  0.00     0.147 C 
HETATM   22  C   UNL     1      43.451  -9.590  13.019  1.00  0.00     0.044 C 
BRANCH  21  23
HETATM   23  O   UNL     1      42.126  -8.838  11.161  1.00  0.00    -0.391 OA
HETATM   24  H   UNL     1      41.343  -9.149  10.677  1.00  0.00     0.210 HD
ENDBRANCH  21  23
ENDBRANCH  17  21
ENDBRANCH  12  15
ENDBRANCH   6  11
BRANCH   8  25
HETATM   25  C   UNL     1      40.409 -15.380   2.399  1.00  0.00     0.409 C 
HETATM   26  F   UNL     1      41.333 -14.516   1.923  1.00  0.00    -0.169 F 
HETATM   27  F   UNL     1      40.256 -16.364   1.490  1.00  0.00    -0.169 F 
HETATM   28  F   UNL     1      39.230 -14.703   2.435  1.00  0.00    -0.169 F 
ENDBRANCH   8  25
BRANCH   1  29
HETATM   29  C   UNL     1      43.434 -18.649   3.661  1.00  0.00    -0.035 A 
HETATM   30  C   UNL     1      43.678 -18.890   5.025  1.00  0.00     0.010 A 
HETATM   31  C   UNL     1      44.302 -20.066   5.446  1.00  0.00     0.007 A 
HETATM   32  C   UNL     1      44.700 -21.026   4.514  1.00  0.00    -0.062 A 
HETATM   33  C   UNL     1      45.339 -22.304   4.969  1.00  0.00     0.048 C 
HETATM   34  C   UNL     1      44.440 -20.803   3.155  1.00  0.00     0.007 A 
HETATM   35  C   UNL     1      43.818 -19.625   2.732  1.00  0.00     0.010 A 
ENDBRANCH   1  29
TORSDOF 6
ENDMDL
MODEL 2
REMARK VINA RESULT:      -9.3      1.725      2.264
REMARK  6 active torsions:
REMARK  status: ('A' for Active; 'I' for Inactive)
REMARK    1  A    between atoms: C_5  and  C_6 
REMARK    2  A    between atoms: C_11  and  C_12 
REMARK       I    between atoms: C_12  and  N_13 
REMARK    3  A    between atoms: N_13  and  C_14 
REMARK    4  A    between atoms: C_16  and  C_17 
REMARK    5  A    between atoms: C_17  and  O_18 
REMARK    6  A    between atoms: C_25  and  C_26 
ROOT
HETATM    1  C   UNL     1      43.093 -17.254   1.996  1.00  0.00     0.118 C 
HETATM    2  N   UNL     1      43.741 -16.040   2.502  1.00  0.00    -0.366 N 
HETATM    3  C   UNL     1      43.031 -14.990   2.961  1.00  0.00     0.123 A 
HETATM    4  N   UNL     1      41.714 -14.835   2.634  1.00  0.00    -0.240 N 
HETATM    5  N   UNL     1      41.100 -13.829   3.283  1.00  0.00    -0.165 NA
HETATM    6  C   UNL     1      42.104 -13.265   3.997  1.00  0.00     0.148 A 
HETATM    7  C   UNL     1      43.339 -13.941   3.783  1.00  0.00     0.089 A 
HETATM    8  C   UNL     1      40.995 -15.797   1.824  1.00  0.00     0.221 C 
HETATM    9  C   UNL     1      41.554 -17.195   2.119  1.00  0.00     0.066 C 
HETATM   10  H   UNL     1      44.718 -16.163   2.774  1.00  0.00     0.161 HD
ENDROOT
BRANCH   6  11
HETATM   11  C   UNL     1      41.876 -12.134   4.915  1.00  0.00     0.276 C 
HETATM   12  N   UNL     1      42.162 -12.469   6.224  1.00  0.00    -0.322 N 
HETATM   13  H   UNL     1      42.416 -13.448   6.344  1.00  0.00     0.169 HD
HETATM   14  O   UNL     1      41.493 -11.045   4.503  1.00  0.00    -0.266 OA
BRANCH  12  15
HETATM   15  C   UNL     1      42.172 -11.638   7.355  1.00  0.00     0.035 A 
HETATM   16  C   UNL     1      43.246 -11.552   8.245  1.00  0.00     0.039 A 
HETATM   17  C   UNL     1      43.191 -10.718   9.377  1.00  0.00    -0.028 A 
HETATM   18  C   UNL     1      42.036  -9.954   9.594  1.00  0.00     0.010 A 
HETATM   19  C   UNL     1      40.959 -10.035   8.713  1.00  0.00     0.003 A 
HETATM   20  C   UNL     1      41.025 -10.877   7.602  1.00  0.00     0.029 A 
BRANCH  17  21
HETATM   21  C   UNL     1      44.382 -10.658  10.310  1.00  0.00     0.147 C 
HETATM   22  C   UNL     1      44.572 -11.970  11.062  1.00  0.00     0.044 C 
BRANCH  21  23
HETATM   23  O   UNL     1      45.576 -10.362   9.585  1.00  0.00    -0.391 OA
HETATM   24  H   UNL     1      45.683  -9.397   9.600  1.00  0.00     0.210 HD
ENDBRANCH  21  23
ENDBRANCH  17  21
ENDBRANCH  12  15
ENDBRANCH   6  11
BRANCH   8  25
HETATM   25  C   UNL     1      41.081 -15.423   0.363  1.00  0.00     0.409 C 
HETATM   26  F   UNL     1      42.071 -14.537   0.118  1.00  0.00    -0.169 F 
HETATM   27  F   UNL     1      41.256 -16.476  -0.461  1.00  0.00    -0.169 F 
HETATM   28  F   UNL     1      39.923 -14.823  -0.023  1.00  0.00    -0.169 F 
ENDBRANCH   8  25
BRANCH   1  29
HETATM   29  C   UNL     1      43.634 -18.460   2.746  1.00  0.00    -0.035 A 
HETATM   30  C   UNL     1      43.917 -18.389   4.122  1.00  0.00     0.010 A 
HETATM   31  C   UNL     1      44.401 -19.500   4.814  1.00  0.00     0.007 A 
HETATM   32  C   UNL     1      44.619 -20.707   4.146  1.00  0.00    -0.062 A 
HETATM   33  C   UNL     1      45.107 -21.911   4.897  1.00  0.00     0.048 C 
HETATM   34  C   UNL     1      44.319 -20.793   2.781  1.00  0.00     0.007 A 
HETATM   35  C   UNL     1      43.835 -19.680   2.086  1.00  0.00     0.010 A 
ENDBRANCH   1  29
TORSDOF 6
ENDMDL
MODEL 3
REMARK VINA RESULT:      -9.3      4.900      9.263
REMARK  6 active torsions:
REMARK  status: ('A' for Active; 'I' for Inactive)
REMARK    1  A    between atoms: C_5  and  C_6 
REMARK    2  A    between atoms: C_11  and  C_12 
REMARK       I    between atoms: C_12  and  N_13 
REMARK    3  A    between atoms: N_13  and  C_14 
REMARK    4  A    between atoms: C_16  and  C_17 
REMARK    5  A    between atoms: C_17  and  O_18 
REMARK    6  A    between atoms: C_25  and  C_26 
ROOT
HETATM    1  C   UNL     1      42.757 -17.000   3.867  1.00  0.00     0.118 C 
HETATM    2  N   UNL     1      41.305 -16.953   3.671  1.00  0.00    -0.366 N 
HETATM    3  C   UNL     1      40.712 -15.969   2.965  1.00  0.00     0.123 A 
HETATM    4  N   UNL     1      41.355 -14.789   2.727  1.00  0.00    -0.240 N 
HETATM    5  N   UNL     1      40.702 -13.965   1.886  1.00  0.00    -0.165 NA
HETATM    6  C   UNL     1      39.544 -14.627   1.644  1.00  0.00     0.148 A 
HETATM    7  C   UNL     1      39.498 -15.868   2.341  1.00  0.00     0.089 A 
HETATM    8  C   UNL     1      42.710 -14.536   3.173  1.00  0.00     0.221 C 
HETATM    9  C   UNL     1      43.489 -15.858   3.129  1.00  0.00     0.066 C 
HETATM   10  H   UNL     1      40.828 -17.843   3.820  1.00  0.00     0.161 HD
ENDROOT
BRANCH   6  11
HETATM   11  C   UNL     1      38.524 -14.110   0.715  1.00  0.00     0.276 C 
HETATM   12  N   UNL     1      39.088 -13.619  -0.447  1.00  0.00    -0.322 N 
HETATM   13  H   UNL     1      40.105 -13.635  -0.439  1.00  0.00     0.169 HD
HETATM   14  O   UNL     1      37.330 -14.152   0.991  1.00  0.00    -0.266 OA
BRANCH  12  15
HETATM   15  C   UNL     1      38.440 -13.149  -1.600  1.00  0.00     0.035 A 
HETATM   16  C   UNL     1      37.788 -13.979  -2.516  1.00  0.00     0.039 A 
HETATM   17  C   UNL     1      37.176 -13.455  -3.669  1.00  0.00    -0.028 A 
HETATM   18  C   UNL     1      37.216 -12.071  -3.881  1.00  0.00     0.010 A 
HETATM   19  C   UNL     1      37.865 -11.235  -2.974  1.00  0.00     0.003 A 
HETATM   20  C   UNL     1      38.479 -11.772  -1.842  1.00  0.00     0.029 A 
BRANCH  17  21
HETATM   21  C   UNL     1      36.481 -14.396  -4.630  1.00  0.00     0.147 C 
HETATM   22  C   UNL     1      35.580 -13.641  -5.601  1.00  0.00     0.044 C 
BRANCH  21  23
HETATM   23  O   UNL     1      37.435 -15.152  -5.376  1.00  0.00    -0.391 OA
HETATM   24  H   UNL     1      37.136 -15.147  -6.300  1.00  0.00     0.210 HD
ENDBRANCH  21  23
ENDBRANCH  17  21
ENDBRANCH  12  15
ENDBRANCH   6  11
BRANCH   8  25
HETATM   25  C   UNL     1      42.704 -13.900   4.543  1.00  0.00     0.409 C 
HETATM   26  F   UNL     1      41.601 -14.225   5.254  1.00  0.00    -0.169 F 
HETATM   27  F   UNL     1      43.783 -14.206   5.291  1.00  0.00    -0.169 F 
HETATM   28  F   UNL     1      42.696 -12.546   4.416  1.00  0.00    -0.169 F 
ENDBRANCH   8  25
BRANCH   1  29
HETATM   29  C   UNL     1      43.281 -18.349   3.400  1.00  0.00    -0.035 A 
HETATM   30  C   UNL     1      44.164 -19.098   4.200  1.00  0.00     0.010 A 
HETATM   31  C   UNL     1      44.634 -20.342   3.777  1.00  0.00     0.007 A 
HETATM   32  C   UNL     1      44.238 -20.864   2.544  1.00  0.00    -0.062 A 
HETATM   33  C   UNL     1      44.717 -22.217   2.105  1.00  0.00     0.048 C 
HETATM   34  C   UNL     1      43.342 -20.134   1.752  1.00  0.00     0.007 A 
HETATM   35  C   UNL     1      42.872 -18.887   2.173  1.00  0.00     0.010 A 
ENDBRANCH   1  29
TORSDOF 6
ENDMDL
MODEL 4
REMARK VINA RESULT:      -9.1      5.685      9.308
REMARK  6 active torsions:
REMARK  status: ('A' for Active; 'I' for Inactive)
REMARK    1  A    between atoms: C_5  and  C_6 
REMARK    2  A    between atoms: C_11  and  C_12 
REMARK       I    between atoms: C_12  and  N_13 
REMARK    3  A    between atoms: N_13  and  C_14 
REMARK    4  A    between atoms: C_16  and  C_17 
REMARK    5  A    between atoms: C_17  and  O_18 
REMARK    6  A    between atoms: C_25  and  C_26 
ROOT
HETATM    1  C   UNL     1      40.999 -12.649  -1.969  1.00  0.00     0.118 C 
HETATM    2  N   UNL     1      40.552 -13.064  -0.635  1.00  0.00    -0.366 N 
HETATM    3  C   UNL     1      40.768 -14.309  -0.165  1.00  0.00     0.123 A 
HETATM    4  N   UNL     1      41.057 -15.340  -1.012  1.00  0.00    -0.240 N 
HETATM    5  N   UNL     1      41.394 -16.485  -0.392  1.00  0.00    -0.165 NA
HETATM    6  C   UNL     1      41.230 -16.185   0.919  1.00  0.00     0.148 A 
HETATM    7  C   UNL     1      40.795 -14.841   1.095  1.00  0.00     0.089 A 
HETATM    8  C   UNL     1      41.191 -15.158  -2.444  1.00  0.00     0.221 C 
HETATM    9  C   UNL     1      41.778 -13.764  -2.703  1.00  0.00     0.066 C 
HETATM   10  H   UNL     1      40.366 -12.293   0.008  1.00  0.00     0.161 HD
ENDROOT
BRANCH   6  11
HETATM   11  C   UNL     1      41.541 -17.148   1.991  1.00  0.00     0.276 C 
HETATM   12  N   UNL     1      42.660 -17.903   1.694  1.00  0.00    -0.322 N 
HETATM   13  H   UNL     1      43.039 -17.717   0.768  1.00  0.00     0.169 HD
HETATM   14  O   UNL     1      40.860 -17.213   3.007  1.00  0.00    -0.266 OA
BRANCH  12  15
HETATM   15  C   UNL     1      43.323 -18.837   2.507  1.00  0.00     0.035 A 
HETATM   16  C   UNL     1      43.661 -18.600   3.841  1.00  0.00     0.039 A 
HETATM   17  C   UNL     1      44.349 -19.565   4.601  1.00  0.00    -0.028 A 
HETATM   18  C   UNL     1      44.678 -20.786   3.999  1.00  0.00     0.010 A 
HETATM   19  C   UNL     1      44.346 -21.030   2.667  1.00  0.00     0.003 A 
HETATM   20  C   UNL     1      43.676 -20.057   1.923  1.00  0.00     0.029 A 
BRANCH  17  21
HETATM   21  C   UNL     1      44.691 -19.262   6.045  1.00  0.00     0.147 C 
HETATM   22  C   UNL     1      45.054 -17.794   6.239  1.00  0.00     0.044 C 
BRANCH  21  23
HETATM   23  O   UNL     1      43.596 -19.586   6.902  1.00  0.00    -0.391 OA
HETATM   24  H   UNL     1      43.007 -18.814   6.910  1.00  0.00     0.210 HD
ENDBRANCH  21  23
ENDBRANCH  17  21
ENDBRANCH  12  15
ENDBRANCH   6  11
BRANCH   8  25
HETATM   25  C   UNL     1      39.862 -15.375  -3.129  1.00  0.00     0.409 C 
HETATM   26  F   UNL     1      39.686 -16.659  -3.511  1.00  0.00    -0.169 F 
HETATM   27  F   UNL     1      38.798 -15.018  -2.381  1.00  0.00    -0.169 F 
HETATM   28  F   UNL     1      39.805 -14.625  -4.261  1.00  0.00    -0.169 F 
ENDBRANCH   8  25
BRANCH   1  29
HETATM   29  C   UNL     1      41.860 -11.402  -1.843  1.00  0.00    -0.035 A 
HETATM   30  C   UNL     1      42.067 -10.552  -2.945  1.00  0.00     0.010 A 
HETATM   31  C   UNL     1      42.846  -9.401  -2.826  1.00  0.00     0.007 A 
HETATM   32  C   UNL     1      43.441  -9.074  -1.605  1.00  0.00    -0.062 A 
HETATM   33  C   UNL     1      44.250  -7.818  -1.469  1.00  0.00     0.048 C 
HETATM   34  C   UNL     1      43.221  -9.903  -0.498  1.00  0.00     0.007 A 
HETATM   35  C   UNL     1      42.442 -11.059  -0.616  1.00  0.00     0.010 A 
ENDBRANCH   1  29
TORSDOF 6
ENDMDL
MODEL 5
REMARK VINA RESULT:      -9.0      4.967      9.167
REMARK  6 active torsions:
REMARK  status: ('A' for Active; 'I' for Inactive)
REMARK    1  A    between atoms: C_5  and  C_6 
REMARK    2  A    between atoms: C_11  and  C_12 
REMARK       I    between atoms: C_12  and  N_13 
REMARK    3  A    between atoms: N_13  and  C_14 
REMARK    4  A    between atoms: C_16  and  C_17 
REMARK    5  A    between atoms: C_17  and  O_18 
REMARK    6  A    between atoms: C_25  and  C_26 
ROOT
HETATM    1  C   UNL     1      42.684 -16.814   3.609  1.00  0.00     0.118 C 
HETATM    2  N   UNL     1      41.225 -16.792   3.466  1.00  0.00    -0.366 N 
HETATM    3  C   UNL     1      40.596 -15.863   2.718  1.00  0.00     0.123 A 
HETATM    4  N   UNL     1      41.217 -14.696   2.376  1.00  0.00    -0.240 N 
HETATM    5  N   UNL     1      40.525 -13.937   1.506  1.00  0.00    -0.165 NA
HETATM    6  C   UNL     1      39.366 -14.623   1.354  1.00  0.00     0.148 A 
HETATM    7  C   UNL     1      39.359 -15.813   2.135  1.00  0.00     0.089 A 
HETATM    8  C   UNL     1      42.586 -14.404   2.751  1.00  0.00     0.221 C 
HETATM    9  C   UNL     1      43.376 -15.720   2.767  1.00  0.00     0.066 C 
HETATM   10  H   UNL     1      40.763 -17.673   3.693  1.00  0.00     0.161 HD
ENDROOT
BRANCH   6  11
HETATM   11  C   UNL     1      38.306 -14.177   0.432  1.00  0.00     0.276 C 
HETATM   12  N   UNL     1      38.754 -14.113  -0.874  1.00  0.00    -0.322 N 
HETATM   13  H   UNL     1      39.746 -14.318  -0.970  1.00  0.00     0.169 HD
HETATM   14  O   UNL     1      37.176 -13.924   0.833  1.00  0.00    -0.266 OA
BRANCH  12  15
HETATM   15  C   UNL     1      38.016 -13.841  -2.037  1.00  0.00     0.035 A 
HETATM   16  C   UNL     1      37.501 -12.581  -2.350  1.00  0.00     0.039 A 
HETATM   17  C   UNL     1      36.747 -12.372  -3.520  1.00  0.00    -0.028 A 
HETATM   18  C   UNL     1      36.531 -13.453  -4.384  1.00  0.00     0.010 A 
HETATM   19  C   UNL     1      37.040 -14.714  -4.078  1.00  0.00     0.003 A 
HETATM   20  C   UNL     1      37.775 -14.908  -2.907  1.00  0.00     0.029 A 
BRANCH  17  21
HETATM   21  C   UNL     1      36.212 -10.987  -3.816  1.00  0.00     0.147 C 
HETATM   22  C   UNL     1      36.159 -10.125  -2.560  1.00  0.00     0.044 C 
BRANCH  21  23
HETATM   23  O   UNL     1      37.020 -10.331  -4.794  1.00  0.00    -0.391 OA
HETATM   24  H   UNL     1      37.149 -10.962  -5.522  1.00  0.00     0.210 HD
ENDBRANCH  21  23
ENDBRANCH  17  21
ENDBRANCH  12  15
ENDBRANCH   6  11
BRANCH   8  25
HETATM   25  C   UNL     1      42.625 -13.676   4.074  1.00  0.00     0.409 C 
HETATM   26  F   UNL     1      41.616 -14.047   4.893  1.00  0.00    -0.169 F 
HETATM   27  F   UNL     1      43.783 -13.831   4.748  1.00  0.00    -0.169 F 
HETATM   28  F   UNL     1      42.479 -12.340   3.863  1.00  0.00    -0.169 F 
ENDBRANCH   8  25
BRANCH   1  29
HETATM   29  C   UNL     1      43.204 -18.188   3.215  1.00  0.00    -0.035 A 
HETATM   30  C   UNL     1      44.085 -18.895   4.052  1.00  0.00     0.010 A 
HETATM   31  C   UNL     1      44.551 -20.161   3.697  1.00  0.00     0.007 A 
HETATM   32  C   UNL     1      44.152 -20.748   2.494  1.00  0.00    -0.062 A 
HETATM   33  C   UNL     1      44.627 -22.124   2.129  1.00  0.00     0.048 C 
HETATM   34  C   UNL     1      43.258 -20.060   1.665  1.00  0.00     0.007 A 
HETATM   35  C   UNL     1      42.791 -18.790   2.019  1.00  0.00     0.010 A 
ENDBRANCH   1  29
TORSDOF 6
ENDMDL
MODEL 6
REMARK VINA RESULT:      -8.8      5.048      8.755
REMARK  6 active torsions:
REMARK  status: ('A' for Active; 'I' for Inactive)
REMARK    1  A    between atoms: C_5  and  C_6 
REMARK    2  A    between atoms: C_11  and  C_12 
REMARK       I    between atoms: C_12  and  N_13 
REMARK    3  A    between atoms: N_13  and  C_14 
REMARK    4  A    between atoms: C_16  and  C_17 
REMARK    5  A    between atoms: C_17  and  O_18 
REMARK    6  A    between atoms: C_25  and  C_26 
ROOT
HETATM    1  C   UNL     1      42.347 -17.134   3.822  1.00  0.00     0.118 C 
HETATM    2  N   UNL     1      41.552 -16.583   2.720  1.00  0.00    -0.366 N 
HETATM    3  C   UNL     1      41.755 -15.337   2.247  1.00  0.00     0.123 A 
HETATM    4  N   UNL     1      42.420 -14.403   2.989  1.00  0.00    -0.240 N 
HETATM    5  N   UNL     1      42.677 -13.258   2.331  1.00  0.00    -0.165 NA
HETATM    6  C   UNL     1      42.069 -13.447   1.135  1.00  0.00     0.148 A 
HETATM    7  C   UNL     1      41.442 -14.723   1.065  1.00  0.00     0.089 A 
HETATM    8  C   UNL     1      42.980 -14.698   4.292  1.00  0.00     0.221 C 
HETATM    9  C   UNL     1      43.447 -16.160   4.300  1.00  0.00     0.066 C 
HETATM   10  H   UNL     1      41.079 -17.283   2.148  1.00  0.00     0.161 HD
ENDROOT
BRANCH   6  11
HETATM   11  C   UNL     1      42.136 -12.448   0.053  1.00  0.00     0.276 C 
HETATM   12  N   UNL     1      41.575 -12.919  -1.118  1.00  0.00    -0.322 N 
HETATM   13  H   UNL     1      41.272 -13.889  -1.058  1.00  0.00     0.169 HD
HETATM   14  O   UNL     1      42.630 -11.341   0.237  1.00  0.00    -0.266 OA
BRANCH  12  15
HETATM   15  C   UNL     1      41.355 -12.229  -2.320  1.00  0.00     0.035 A 
HETATM   16  C   UNL     1      40.090 -11.855  -2.780  1.00  0.00     0.039 A 
HETATM   17  C   UNL     1      39.929 -11.184  -4.007  1.00  0.00    -0.028 A 
HETATM   18  C   UNL     1      41.068 -10.880  -4.762  1.00  0.00     0.010 A 
HETATM   19  C   UNL     1      42.334 -11.251  -4.312  1.00  0.00     0.003 A 
HETATM   20  C   UNL     1      42.477 -11.927  -3.100  1.00  0.00     0.029 A 
BRANCH  17  21
HETATM   21  C   UNL     1      38.536 -10.798  -4.460  1.00  0.00     0.147 C 
HETATM   22  C   UNL     1      38.568 -10.038  -5.781  1.00  0.00     0.044 C 
BRANCH  21  23
HETATM   23  O   UNL     1      37.715 -11.956  -4.611  1.00  0.00    -0.391 OA
HETATM   24  H   UNL     1      36.797 -11.644  -4.673  1.00  0.00     0.210 HD
ENDBRANCH  21  23
ENDBRANCH  17  21
ENDBRANCH  12  15
ENDBRANCH   6  11
BRANCH   8  25
HETATM   25  C   UNL     1      41.975 -14.393   5.378  1.00  0.00     0.409 C 
HETATM   26  F   UNL     1      42.198 -13.195   5.962  1.00  0.00    -0.169 F 
HETATM   27  F   UNL     1      40.694 -14.415   4.958  1.00  0.00    -0.169 F 
HETATM   28  F   UNL     1      42.072 -15.326   6.363  1.00  0.00    -0.169 F 
ENDBRANCH   8  25
BRANCH   1  29
HETATM   29  C   UNL     1      42.966 -18.451   3.383  1.00  0.00    -0.035 A 
HETATM   30  C   UNL     1      42.661 -19.010   2.129  1.00  0.00     0.010 A 
HETATM   31  C   UNL     1      43.240 -20.213   1.720  1.00  0.00     0.007 A 
HETATM   32  C   UNL     1      44.133 -20.887   2.555  1.00  0.00    -0.062 A 
HETATM   33  C   UNL     1      44.781 -22.161   2.101  1.00  0.00     0.048 C 
HETATM   34  C   UNL     1      44.459 -20.325   3.796  1.00  0.00     0.007 A 
HETATM   35  C   UNL     1      43.878 -19.121   4.209  1.00  0.00     0.010 A 
ENDBRANCH   1  29
TORSDOF 6
ENDMDL
MODEL 7
REMARK VINA RESULT:      -8.8      1.492      2.018
REMARK  6 active torsions:
REMARK  status: ('A' for Active; 'I' for Inactive)
REMARK    1  A    between atoms: C_5  and  C_6 
REMARK    2  A    between atoms: C_11  and  C_12 
REMARK       I    between atoms: C_12  and  N_13 
REMARK    3  A    between atoms: N_13  and  C_14 
REMARK    4  A    between atoms: C_16  and  C_17 
REMARK    5  A    between atoms: C_17  and  O_18 
REMARK    6  A    between atoms: C_25  and  C_26 
ROOT
HETATM    1  C   UNL     1      42.451 -16.406   3.039  1.00  0.00     0.118 C 
HETATM    2  N   UNL     1      43.535 -15.541   3.515  1.00  0.00    -0.366 N 
HETATM    3  C   UNL     1      43.406 -14.776   4.617  1.00  0.00     0.123 A 
HETATM    4  N   UNL     1      42.174 -14.470   5.120  1.00  0.00    -0.240 N 
HETATM    5  N   UNL     1      42.205 -13.829   6.303  1.00  0.00    -0.165 NA
HETATM    6  C   UNL     1      43.530 -13.647   6.519  1.00  0.00     0.148 A 
HETATM    7  C   UNL     1      44.311 -14.189   5.459  1.00  0.00     0.089 A 
HETATM    8  C   UNL     1      40.947 -14.975   4.538  1.00  0.00     0.221 C 
HETATM    9  C   UNL     1      41.220 -16.375   3.971  1.00  0.00     0.066 C 
HETATM   10  H   UNL     1      44.460 -15.788   3.162  1.00  0.00     0.161 HD
ENDROOT
BRANCH   6  11
HETATM   11  C   UNL     1      44.046 -13.016   7.748  1.00  0.00     0.276 C 
HETATM   12  N   UNL     1      43.210 -12.014   8.201  1.00  0.00    -0.322 N 
HETATM   13  H   UNL     1      42.422 -11.835   7.583  1.00  0.00     0.169 HD
HETATM   14  O   UNL     1      45.091 -13.392   8.267  1.00  0.00    -0.266 OA
BRANCH  12  15
HETATM   15  C   UNL     1      43.306 -11.268   9.386  1.00  0.00     0.035 A 
HETATM   16  C   UNL     1      42.233 -10.579   9.958  1.00  0.00     0.039 A 
HETATM   17  C   UNL     1      42.394  -9.825  11.135  1.00  0.00    -0.028 A 
HETATM   18  C   UNL     1      43.656  -9.788  11.743  1.00  0.00     0.010 A 
HETATM   19  C   UNL     1      44.732 -10.471  11.179  1.00  0.00     0.003 A 
HETATM   20  C   UNL     1      44.559 -11.203  10.003  1.00  0.00     0.029 A 
BRANCH  17  21
HETATM   21  C   UNL     1      41.200  -9.099  11.717  1.00  0.00     0.147 C 
HETATM   22  C   UNL     1      40.036  -9.057  10.734  1.00  0.00     0.044 C 
BRANCH  21  23
HETATM   23  O   UNL     1      40.764  -9.726  12.923  1.00  0.00    -0.391 OA
HETATM   24  H   UNL     1      41.399  -9.477  13.615  1.00  0.00     0.210 HD
ENDBRANCH  21  23
ENDBRANCH  17  21
ENDBRANCH  12  15
ENDBRANCH   6  11
BRANCH   8  25
HETATM   25  C   UNL     1      40.421 -14.011   3.501  1.00  0.00     0.409 C 
HETATM   26  F   UNL     1      41.397 -13.233   2.982  1.00  0.00    -0.169 F 
HETATM   27  F   UNL     1      39.780 -14.609   2.475  1.00  0.00    -0.169 F 
HETATM   28  F   UNL     1      39.522 -13.169   4.077  1.00  0.00    -0.169 F 
ENDBRANCH   8  25
BRANCH   1  29
HETATM   29  C   UNL     1      42.970 -17.828   2.900  1.00  0.00    -0.035 A 
HETATM   30  C   UNL     1      42.582 -18.637   1.817  1.00  0.00     0.010 A 
HETATM   31  C   UNL     1      43.069 -19.938   1.683  1.00  0.00     0.007 A 
HETATM   32  C   UNL     1      43.951 -20.463   2.630  1.00  0.00    -0.062 A 
HETATM   33  C   UNL     1      44.501 -21.849   2.467  1.00  0.00     0.048 C 
HETATM   34  C   UNL     1      44.359 -19.656   3.700  1.00  0.00     0.007 A 
HETATM   35  C   UNL     1      43.871 -18.353   3.837  1.00  0.00     0.010 A 
ENDBRANCH   1  29
TORSDOF 6
ENDMDL
MODEL 8
REMARK VINA RESULT:      -8.7      2.161      2.722
REMARK  6 active torsions:
REMARK  status: ('A' for Active; 'I' for Inactive)
REMARK    1  A    between atoms: C_5  and  C_6 
REMARK    2  A    between atoms: C_11  and  C_12 
REMARK       I    between atoms: C_12  and  N_13 
REMARK    3  A    between atoms: N_13  and  C_14 
REMARK    4  A    between atoms: C_16  and  C_17 
REMARK    5  A    between atoms: C_17  and  O_18 
REMARK    6  A    between atoms: C_25  and  C_26 
ROOT
HETATM    1  C   UNL     1      43.001 -16.935   2.051  1.00  0.00     0.118 C 
HETATM    2  N   UNL     1      43.625 -15.722   2.590  1.00  0.00    -0.366 N 
HETATM    3  C   UNL     1      42.894 -14.689   3.055  1.00  0.00     0.123 A 
HETATM    4  N   UNL     1      41.581 -14.546   2.709  1.00  0.00    -0.240 N 
HETATM    5  N   UNL     1      40.943 -13.559   3.365  1.00  0.00    -0.165 NA
HETATM    6  C   UNL     1      41.928 -12.995   4.106  1.00  0.00     0.148 A 
HETATM    7  C   UNL     1      43.175 -13.651   3.901  1.00  0.00     0.089 A 
HETATM    8  C   UNL     1      40.887 -15.501   1.870  1.00  0.00     0.221 C 
HETATM    9  C   UNL     1      41.460 -16.898   2.149  1.00  0.00     0.066 C 
HETATM   10  H   UNL     1      44.599 -15.838   2.876  1.00  0.00     0.161 HD
ENDROOT
BRANCH   6  11
HETATM   11  C   UNL     1      41.670 -11.884   5.040  1.00  0.00     0.276 C 
HETATM   12  N   UNL     1      41.753 -12.290   6.357  1.00  0.00    -0.322 N 
HETATM   13  H   UNL     1      41.910 -13.290   6.462  1.00  0.00     0.169 HD
HETATM   14  O   UNL     1      41.432 -10.752   4.634  1.00  0.00    -0.266 OA
BRANCH  12  15
HETATM   15  C   UNL     1      41.678 -11.505   7.519  1.00  0.00     0.035 A 
HETATM   16  C   UNL     1      40.493 -10.948   8.003  1.00  0.00     0.039 A 
HETATM   17  C   UNL     1      40.482 -10.147   9.161  1.00  0.00    -0.028 A 
HETATM   18  C   UNL     1      41.689  -9.928   9.838  1.00  0.00     0.010 A 
HETATM   19  C   UNL     1      42.878 -10.478   9.360  1.00  0.00     0.003 A 
HETATM   20  C   UNL     1      42.873 -11.259   8.203  1.00  0.00     0.029 A 
BRANCH  17  21
HETATM   21  C   UNL     1      39.171  -9.568   9.647  1.00  0.00     0.147 C 
HETATM   22  C   UNL     1      38.903  -8.197   9.037  1.00  0.00     0.044 C 
BRANCH  21  23
HETATM   23  O   UNL     1      38.085 -10.438   9.327  1.00  0.00    -0.391 OA
HETATM   24  H   UNL     1      38.251 -11.276   9.787  1.00  0.00     0.210 HD
ENDBRANCH  21  23
ENDBRANCH  17  21
ENDBRANCH  12  15
ENDBRANCH   6  11
BRANCH   8  25
HETATM   25  C   UNL     1      40.993 -15.100   0.417  1.00  0.00     0.409 C 
HETATM   26  F   UNL     1      41.255 -16.153  -0.388  1.00  0.00    -0.169 F 
HETATM   27  F   UNL     1      39.894 -14.479  -0.059  1.00  0.00    -0.169 F 
HETATM   28  F   UNL     1      42.025 -14.229   0.260  1.00  0.00    -0.169 F 
ENDBRANCH   8  25
BRANCH   1  29
HETATM   29  C   UNL     1      43.545 -18.147   2.789  1.00  0.00    -0.035 A 
HETATM   30  C   UNL     1      43.788 -19.357   2.113  1.00  0.00     0.010 A 
HETATM   31  C   UNL     1      44.301 -20.466   2.787  1.00  0.00     0.007 A 
HETATM   32  C   UNL     1      44.578 -20.394   4.154  1.00  0.00    -0.062 A 
HETATM   33  C   UNL     1      45.161 -21.576   4.871  1.00  0.00     0.048 C 
HETATM   34  C   UNL     1      44.360 -19.187   4.830  1.00  0.00     0.007 A 
HETATM   35  C   UNL     1      43.844 -18.076   4.156  1.00  0.00     0.010 A 
ENDBRANCH   1  29
TORSDOF 6
ENDMDL
MODEL 9
REMARK VINA RESULT:      -8.6      4.888      9.216
REMARK  6 active torsions:
REMARK  status: ('A' for Active; 'I' for Inactive)
REMARK    1  A    between atoms: C_5  and  C_6 
REMARK    2  A    between atoms: C_11  and  C_12 
REMARK       I    between atoms: C_12  and  N_13 
REMARK    3  A    between atoms: N_13  and  C_14 
REMARK    4  A    between atoms: C_16  and  C_17 
REMARK    5  A    between atoms: C_17  and  O_18 
REMARK    6  A    between atoms: C_25  and  C_26 
ROOT
HETATM    1  C   UNL     1      42.626 -16.948   3.621  1.00  0.00     0.118 C 
HETATM    2  N   UNL     1      41.347 -16.749   2.931  1.00  0.00    -0.366 N 
HETATM    3  C   UNL     1      41.126 -15.688   2.129  1.00  0.00     0.123 A 
HETATM    4  N   UNL     1      41.906 -14.571   2.211  1.00  0.00    -0.240 N 
HETATM    5  N   UNL     1      41.664 -13.658   1.252  1.00  0.00    -0.165 NA
HETATM    6  C   UNL     1      40.619 -14.193   0.575  1.00  0.00     0.148 A 
HETATM    7  C   UNL     1      40.227 -15.445   1.127  1.00  0.00     0.089 A 
HETATM    8  C   UNL     1      43.030 -14.470   3.120  1.00  0.00     0.221 C 
HETATM    9  C   UNL     1      43.663 -15.860   3.264  1.00  0.00     0.066 C 
HETATM   10  H   UNL     1      40.778 -17.592   2.843  1.00  0.00     0.161 HD
ENDROOT
BRANCH   6  11
HETATM   11  C   UNL     1      40.041 -13.545  -0.617  1.00  0.00     0.276 C 
HETATM   12  N   UNL     1      38.995 -14.278  -1.144  1.00  0.00    -0.322 N 
HETATM   13  H   UNL     1      38.843 -15.165  -0.667  1.00  0.00     0.169 HD
HETATM   14  O   UNL     1      40.471 -12.476  -1.033  1.00  0.00    -0.266 OA
BRANCH  12  15
HETATM   15  C   UNL     1      38.135 -13.936  -2.199  1.00  0.00     0.035 A 
HETATM   16  C   UNL     1      37.565 -12.670  -2.356  1.00  0.00     0.039 A 
HETATM   17  C   UNL     1      36.689 -12.391  -3.421  1.00  0.00    -0.028 A 
HETATM   18  C   UNL     1      36.404 -13.408  -4.342  1.00  0.00     0.010 A 
HETATM   19  C   UNL     1      36.966 -14.675  -4.192  1.00  0.00     0.003 A 
HETATM   20  C   UNL     1      37.823 -14.939  -3.122  1.00  0.00     0.029 A 
BRANCH  17  21
HETATM   21  C   UNL     1      36.100 -11.003  -3.549  1.00  0.00     0.147 C 
HETATM   22  C   UNL     1      34.821 -11.010  -4.379  1.00  0.00     0.044 C 
BRANCH  21  23
HETATM   23  O   UNL     1      35.813 -10.455  -2.262  1.00  0.00    -0.391 OA
HETATM   24  H   UNL     1      36.665 -10.328  -1.814  1.00  0.00     0.210 HD
ENDBRANCH  21  23
ENDBRANCH  17  21
ENDBRANCH  12  15
ENDBRANCH   6  11
BRANCH   8  25
HETATM   25  C   UNL     1      42.588 -13.882   4.440  1.00  0.00     0.409 C 
HETATM   26  F   UNL     1      41.279 -14.108   4.689  1.00  0.00    -0.169 F 
HETATM   27  F   UNL     1      43.294 -14.329   5.499  1.00  0.00    -0.169 F 
HETATM   28  F   UNL     1      42.749 -12.532   4.413  1.00  0.00    -0.169 F 
ENDBRANCH   8  25
BRANCH   1  29
HETATM   29  C   UNL     1      43.170 -18.325   3.279  1.00  0.00    -0.035 A 
HETATM   30  C   UNL     1      44.007 -19.015   4.174  1.00  0.00     0.010 A 
HETATM   31  C   UNL     1      44.496 -20.286   3.866  1.00  0.00     0.007 A 
HETATM   32  C   UNL     1      44.164 -20.894   2.654  1.00  0.00    -0.062 A 
HETATM   33  C   UNL     1      44.662 -22.274   2.338  1.00  0.00     0.048 C 
HETATM   34  C   UNL     1      43.313 -20.223   1.767  1.00  0.00     0.007 A 
HETATM   35  C   UNL     1      42.824 -18.950   2.073  1.00  0.00     0.010 A 
ENDBRANCH   1  29
TORSDOF 6
ENDMDL
MODEL 10
REMARK VINA RESULT:      -8.6      4.908      7.997
REMARK  6 active torsions:
REMARK  status: ('A' for Active; 'I' for Inactive)
REMARK    1  A    between atoms: C_5  and  C_6 
REMARK    2  A    between atoms: C_11  and  C_12 
REMARK       I    between atoms: C_12  and  N_13 
REMARK    3  A    between atoms: N_13  and  C_14 
REMARK    4  A    between atoms: C_16  and  C_17 
REMARK    5  A    between atoms: C_17  and  O_18 
REMARK    6  A    between atoms: C_25  and  C_26 
ROOT
HETATM    1  C   UNL     1      42.418 -17.109   4.073  1.00  0.00     0.118 C 
HETATM    2  N   UNL     1      41.354 -16.677   3.161  1.00  0.00    -0.366 N 
HETATM    3  C   UNL     1      41.353 -15.453   2.595  1.00  0.00     0.123 A 
HETATM    4  N   UNL     1      42.100 -14.436   3.116  1.00  0.00    -0.240 N 
HETATM    5  N   UNL     1      42.117 -13.322   2.363  1.00  0.00    -0.165 NA
HETATM    6  C   UNL     1      41.266 -13.622   1.351  1.00  0.00     0.148 A 
HETATM    7  C   UNL     1      40.734 -14.935   1.490  1.00  0.00     0.089 A 
HETATM    8  C   UNL     1      42.964 -14.615   4.266  1.00  0.00     0.221 C 
HETATM    9  C   UNL     1      43.524 -16.043   4.235  1.00  0.00     0.066 C 
HETATM   10  H   UNL     1      40.814 -17.438   2.749  1.00  0.00     0.161 HD
ENDROOT
BRANCH   6  11
HETATM   11  C   UNL     1      41.011 -12.691   0.237  1.00  0.00     0.276 C 
HETATM   12  N   UNL     1      42.165 -12.402  -0.466  1.00  0.00    -0.322 N 
HETATM   13  H   UNL     1      42.999 -12.823  -0.063  1.00  0.00     0.169 HD
HETATM   14  O   UNL     1      39.884 -12.269   0.003  1.00  0.00    -0.266 OA
BRANCH  12  15
HETATM   15  C   UNL     1      42.304 -11.651  -1.644  1.00  0.00     0.035 A 
HETATM   16  C   UNL     1      42.470 -10.264  -1.664  1.00  0.00     0.039 A 
HETATM   17  C   UNL     1      42.579  -9.560  -2.878  1.00  0.00    -0.028 A 
HETATM   18  C   UNL     1      42.536 -10.280  -4.079  1.00  0.00     0.010 A 
HETATM   19  C   UNL     1      42.369 -11.664  -4.069  1.00  0.00     0.003 A 
HETATM   20  C   UNL     1      42.249 -12.346  -2.857  1.00  0.00     0.029 A 
BRANCH  17  21
HETATM   21  C   UNL     1      42.760  -8.057  -2.847  1.00  0.00     0.147 C 
HETATM   22  C   UNL     1      41.639  -7.343  -3.593  1.00  0.00     0.044 C 
BRANCH  21  23
HETATM   23  O   UNL     1      42.797  -7.581  -1.501  1.00  0.00    -0.391 OA
HETATM   24  H   UNL     1      42.820  -8.363  -0.926  1.00  0.00     0.210 HD
ENDBRANCH  21  23
ENDBRANCH  17  21
ENDBRANCH  12  15
ENDBRANCH   6  11
BRANCH   8  25
HETATM   25  C   UNL     1      42.215 -14.302   5.540  1.00  0.00     0.409 C 
HETATM   26  F   UNL     1      40.971 -13.832   5.302  1.00  0.00    -0.169 F 
HETATM   27  F   UNL     1      42.105 -15.352   6.380  1.00  0.00    -0.169 F 
HETATM   28  F   UNL     1      42.870 -13.328   6.227  1.00  0.00    -0.169 F 
ENDBRANCH   8  25
BRANCH   1  29
HETATM   29  C   UNL     1      43.014 -18.412   3.565  1.00  0.00    -0.035 A 
HETATM   30  C   UNL     1      42.678 -18.913   2.295  1.00  0.00     0.010 A 
HETATM   31  C   UNL     1      43.235 -20.103   1.822  1.00  0.00     0.007 A 
HETATM   32  C   UNL     1      44.136 -20.821   2.610  1.00  0.00    -0.062 A 
HETATM   33  C   UNL     1      44.761 -22.082   2.089  1.00  0.00     0.048 C 
HETATM   34  C   UNL     1      44.493 -20.317   3.867  1.00  0.00     0.007 A 
HETATM   35  C   UNL     1      43.934 -19.126   4.343  1.00  0.00     0.010 A 
ENDBRANCH   1  29
TORSDOF 6
ENDMDL
