MODEL 1
REMARK VINA RESULT:      -8.3      0.000      0.000
REMARK  5 active torsions:
REMARK  status: ('A' for Active; 'I' for Inactive)
REMARK    1  A    between atoms: C_3  and  N_4 
REMARK    2  A    between atoms: N_5  and  C_6 
REMARK    3  A    between atoms: C_6  and  C_7 
REMARK    4  A    between atoms: C_7  and  C_8 
REMARK    5  A    between atoms: C_19  and  C_20 
ROOT
HETATM    1  C   UNL     1      41.119 -17.745   5.142  1.00  0.00     0.175 C 
HETATM    2  N   UNL     1      41.897 -16.963   4.192  1.00  0.00    -0.186 N 
HETATM    3  C   UNL     1      41.712 -15.666   3.967  1.00  0.00     0.680 C 
HETATM    4  N   UNL     1      42.757 -15.191   3.299  1.00  0.00    -0.184 N 
HETATM    5  C   UNL     1      43.560 -16.264   2.940  1.00  0.00     0.140 C 
HETATM    6  C   UNL     1      42.991 -17.420   3.437  1.00  0.00     0.077 C 
ENDROOT
BRANCH   4   7
HETATM    7  C   UNL     1      43.090 -13.774   3.033  1.00  0.00     0.231 C 
BRANCH   7   8
HETATM    8  C   UNL     1      42.008 -13.014   2.273  1.00  0.00     0.178 C 
HETATM    9  O   UNL     1      41.285 -12.178   2.821  1.00  0.00    -0.290 OA
BRANCH   8  10
HETATM   10  C   UNL     1      41.862 -13.239   0.810  1.00  0.00     0.014 A 
HETATM   11  C   UNL     1      41.427 -14.466   0.293  1.00  0.00     0.055 A 
HETATM   12  C   UNL     1      41.362 -14.590  -1.080  1.00  0.00     0.106 A 
HETATM   13  C   UNL     1      41.701 -13.560  -1.926  1.00  0.00     0.105 A 
HETATM   14  O   UNL     1      40.979 -15.707  -1.753  1.00  0.00    -0.323 OA
HETATM   15  O   UNL     1      41.571 -13.900  -3.234  1.00  0.00    -0.323 OA
HETATM   16  C   UNL     1      42.132 -12.342  -1.448  1.00  0.00     0.040 A 
HETATM   17  C   UNL     1      41.141 -15.272  -3.123  1.00  0.00     0.352 A 
HETATM   18  C   UNL     1      42.219 -12.185  -0.062  1.00  0.00     0.018 A 
ENDBRANCH   8  10
ENDBRANCH   7   8
ENDBRANCH   4   7
BRANCH   3  19
HETATM   19  N   UNL     1      40.651 -14.976   4.372  1.00  0.00    -0.234 N 
HETATM   20  H   UNL     1      40.654 -14.437   5.222  1.00  0.00     0.174 HD
HETATM   21  H   UNL     1      39.737 -15.245   4.008  1.00  0.00     0.174 HD
ENDBRANCH   3  19
BRANCH   6  22
HETATM   22  C   UNL     1      43.492 -18.819   3.204  1.00  0.00    -0.007 A 
HETATM   23  C   UNL     1      44.352 -19.422   4.135  1.00  0.00     0.017 A 
HETATM   24  C   UNL     1      44.821 -20.722   3.916  1.00  0.00     0.043 A 
HETATM   25  C   UNL     1      44.446 -21.405   2.766  1.00  0.00     0.116 A 
HETATM   26  F   UNL     1      44.900 -22.647   2.558  1.00  0.00    -0.206 F 
HETATM   27  C   UNL     1      43.612 -20.814   1.828  1.00  0.00     0.043 A 
HETATM   28  C   UNL     1      43.136 -19.518   2.044  1.00  0.00     0.017 A 
ENDBRANCH   6  22
TORSDOF 5
ENDMDL
MODEL 2
REMARK VINA RESULT:      -8.3      1.588      2.238
REMARK  5 active torsions:
REMARK  status: ('A' for Active; 'I' for Inactive)
REMARK    1  A    between atoms: C_3  and  N_4 
REMARK    2  A    between atoms: N_5  and  C_6 
REMARK    3  A    between atoms: C_6  and  C_7 
REMARK    4  A    between atoms: C_7  and  C_8 
REMARK    5  A    between atoms: C_19  and  C_20 
ROOT
HETATM    1  C   UNL     1      41.358 -17.588   5.078  1.00  0.00     0.175 C 
HETATM    2  N   UNL     1      41.691 -17.057   3.765  1.00  0.00    -0.186 N 
HETATM    3  C   UNL     1      41.222 -15.909   3.284  1.00  0.00     0.680 C 
HETATM    4  N   UNL     1      41.941 -15.561   2.223  1.00  0.00    -0.184 N 
HETATM    5  C   UNL     1      42.792 -16.613   1.918  1.00  0.00     0.140 C 
HETATM    6  C   UNL     1      42.598 -17.615   2.847  1.00  0.00     0.077 C 
ENDROOT
BRANCH   4   7
HETATM    7  C   UNL     1      41.928 -14.264   1.512  1.00  0.00     0.231 C 
BRANCH   7   8
HETATM    8  C   UNL     1      40.576 -13.901   0.905  1.00  0.00     0.178 C 
HETATM    9  O   UNL     1      39.755 -13.204   1.505  1.00  0.00    -0.290 OA
BRANCH   8  10
HETATM   10  C   UNL     1      40.265 -14.347  -0.479  1.00  0.00     0.014 A 
HETATM   11  C   UNL     1      39.022 -14.094  -1.072  1.00  0.00     0.055 A 
HETATM   12  C   UNL     1      38.815 -14.583  -2.346  1.00  0.00     0.106 A 
HETATM   13  C   UNL     1      39.779 -15.289  -3.027  1.00  0.00     0.105 A 
HETATM   14  O   UNL     1      37.669 -14.448  -3.066  1.00  0.00    -0.323 OA
HETATM   15  O   UNL     1      39.363 -15.681  -4.258  1.00  0.00    -0.323 OA
HETATM   16  C   UNL     1      41.011 -15.553  -2.470  1.00  0.00     0.040 A 
HETATM   17  C   UNL     1      38.013 -15.172  -4.270  1.00  0.00     0.352 A 
HETATM   18  C   UNL     1      41.252 -15.080  -1.177  1.00  0.00     0.018 A 
ENDBRANCH   8  10
ENDBRANCH   7   8
ENDBRANCH   4   7
BRANCH   3  19
HETATM   19  N   UNL     1      40.208 -15.232   3.811  1.00  0.00    -0.234 N 
HETATM   20  H   UNL     1      40.020 -15.229   4.800  1.00  0.00     0.174 HD
HETATM   21  H   UNL     1      39.429 -14.983   3.200  1.00  0.00     0.174 HD
ENDBRANCH   3  19
BRANCH   6  22
HETATM   22  C   UNL     1      43.258 -18.967   2.836  1.00  0.00    -0.007 A 
HETATM   23  C   UNL     1      42.959 -19.887   1.818  1.00  0.00     0.017 A 
HETATM   24  C   UNL     1      43.569 -21.145   1.810  1.00  0.00     0.043 A 
HETATM   25  C   UNL     1      44.459 -21.487   2.821  1.00  0.00     0.116 A 
HETATM   26  F   UNL     1      45.038 -22.693   2.812  1.00  0.00    -0.206 F 
HETATM   27  C   UNL     1      44.748 -20.595   3.844  1.00  0.00     0.043 A 
HETATM   28  C   UNL     1      44.145 -19.334   3.855  1.00  0.00     0.017 A 
ENDBRANCH   6  22
TORSDOF 5
ENDMDL
MODEL 3
REMARK VINA RESULT:      -8.1      4.261      8.140
REMARK  5 active torsions:
REMARK  status: ('A' for Active; 'I' for Inactive)
REMARK    1  A    between atoms: C_3  and  N_4 
REMARK    2  A    between atoms: N_5  and  C_6 
REMARK    3  A    between atoms: C_6  and  C_7 
REMARK    4  A    between atoms: C_7  and  C_8 
REMARK    5  A    between atoms: C_19  and  C_20 
ROOT
HETATM    1  C   UNL     1      39.036 -13.528   0.565  1.00  0.00     0.175 C 
HETATM    2  N   UNL     1      40.160 -14.453   0.598  1.00  0.00    -0.186 N 
HETATM    3  C   UNL     1      40.257 -15.478   1.439  1.00  0.00     0.680 C 
HETATM    4  N   UNL     1      41.217 -16.292   1.016  1.00  0.00    -0.184 N 
HETATM    5  C   UNL     1      41.868 -15.674  -0.042  1.00  0.00     0.140 C 
HETATM    6  C   UNL     1      41.257 -14.461  -0.282  1.00  0.00     0.077 C 
ENDROOT
BRANCH   4   7
HETATM    7  C   UNL     1      41.522 -17.656   1.503  1.00  0.00     0.231 C 
BRANCH   7   8
HETATM    8  C   UNL     1      42.760 -17.737   2.390  1.00  0.00     0.178 C 
HETATM    9  O   UNL     1      43.291 -16.732   2.868  1.00  0.00    -0.290 OA
BRANCH   8  10
HETATM   10  C   UNL     1      43.306 -19.075   2.744  1.00  0.00     0.014 A 
HETATM   11  C   UNL     1      43.813 -19.349   4.020  1.00  0.00     0.055 A 
HETATM   12  C   UNL     1      44.334 -20.609   4.240  1.00  0.00     0.106 A 
HETATM   13  C   UNL     1      44.358 -21.573   3.260  1.00  0.00     0.105 A 
HETATM   14  O   UNL     1      44.881 -21.043   5.406  1.00  0.00    -0.323 OA
HETATM   15  O   UNL     1      44.919 -22.733   3.687  1.00  0.00    -0.323 OA
HETATM   16  C   UNL     1      43.866 -21.333   1.996  1.00  0.00     0.040 A 
HETATM   17  C   UNL     1      45.278 -22.385   5.041  1.00  0.00     0.352 A 
HETATM   18  C   UNL     1      43.339 -20.065   1.735  1.00  0.00     0.018 A 
ENDBRANCH   8  10
ENDBRANCH   7   8
ENDBRANCH   4   7
BRANCH   3  19
HETATM   19  N   UNL     1      39.492 -15.645   2.512  1.00  0.00    -0.234 N 
HETATM   20  H   UNL     1      39.437 -16.524   3.000  1.00  0.00     0.174 HD
HETATM   21  H   UNL     1      38.715 -14.999   2.653  1.00  0.00     0.174 HD
ENDBRANCH   3  19
BRANCH   6  22
HETATM   22  C   UNL     1      41.701 -13.434  -1.288  1.00  0.00    -0.007 A 
HETATM   23  C   UNL     1      42.400 -12.292  -0.865  1.00  0.00     0.017 A 
HETATM   24  C   UNL     1      42.809 -11.335  -1.800  1.00  0.00     0.043 A 
HETATM   25  C   UNL     1      42.507 -11.512  -3.144  1.00  0.00     0.116 A 
HETATM   26  F   UNL     1      42.897 -10.593  -4.036  1.00  0.00    -0.206 F 
HETATM   27  C   UNL     1      41.800 -12.626  -3.573  1.00  0.00     0.043 A 
HETATM   28  C   UNL     1      41.393 -13.588  -2.645  1.00  0.00     0.017 A 
ENDBRANCH   6  22
TORSDOF 5
ENDMDL
MODEL 4
REMARK VINA RESULT:      -8.1      1.969      2.827
REMARK  5 active torsions:
REMARK  status: ('A' for Active; 'I' for Inactive)
REMARK    1  A    between atoms: C_3  and  N_4 
REMARK    2  A    between atoms: N_5  and  C_6 
REMARK    3  A    between atoms: C_6  and  C_7 
REMARK    4  A    between atoms: C_7  and  C_8 
REMARK    5  A    between atoms: C_19  and  C_20 
ROOT
HETATM    1  C   UNL     1      45.266 -17.932   6.615  1.00  0.00     0.175 C 
HETATM    2  N   UNL     1      44.118 -17.306   5.976  1.00  0.00    -0.186 N 
HETATM    3  C   UNL     1      43.489 -16.238   6.455  1.00  0.00     0.680 C 
HETATM    4  N   UNL     1      42.707 -15.736   5.506  1.00  0.00    -0.184 N 
HETATM    5  C   UNL     1      42.713 -16.618   4.435  1.00  0.00     0.140 C 
HETATM    6  C   UNL     1      43.552 -17.671   4.742  1.00  0.00     0.077 C 
ENDROOT
BRANCH   4   7
HETATM    7  C   UNL     1      42.003 -14.435   5.512  1.00  0.00     0.231 C 
BRANCH   7   8
HETATM    8  C   UNL     1      40.757 -14.398   4.632  1.00  0.00     0.178 C 
HETATM    9  O   UNL     1      39.621 -14.512   5.099  1.00  0.00    -0.290 OA
BRANCH   8  10
HETATM   10  C   UNL     1      40.913 -14.153   3.174  1.00  0.00     0.014 A 
HETATM   11  C   UNL     1      41.766 -13.158   2.680  1.00  0.00     0.055 A 
HETATM   12  C   UNL     1      41.812 -12.981   1.312  1.00  0.00     0.106 A 
HETATM   13  C   UNL     1      41.061 -13.744   0.449  1.00  0.00     0.105 A 
HETATM   14  O   UNL     1      42.567 -12.056   0.662  1.00  0.00    -0.323 OA
HETATM   15  O   UNL     1      41.253 -13.398  -0.850  1.00  0.00    -0.323 OA
HETATM   16  C   UNL     1      40.214 -14.730   0.903  1.00  0.00     0.040 A 
HETATM   17  C   UNL     1      42.187 -12.307  -0.711  1.00  0.00     0.352 A 
HETATM   18  C   UNL     1      40.136 -14.931   2.285  1.00  0.00     0.018 A 
ENDBRANCH   8  10
ENDBRANCH   7   8
ENDBRANCH   4   7
BRANCH   3  19
HETATM   19  N   UNL     1      43.648 -15.760   7.685  1.00  0.00    -0.234 N 
HETATM   20  H   UNL     1      43.858 -14.791   7.861  1.00  0.00     0.174 HD
HETATM   21  H   UNL     1      43.884 -16.418   8.428  1.00  0.00     0.174 HD
ENDBRANCH   3  19
BRANCH   6  22
HETATM   22  C   UNL     1      43.780 -18.891   3.892  1.00  0.00    -0.007 A 
HETATM   23  C   UNL     1      44.465 -19.997   4.419  1.00  0.00     0.017 A 
HETATM   24  C   UNL     1      44.681 -21.130   3.628  1.00  0.00     0.043 A 
HETATM   25  C   UNL     1      44.230 -21.150   2.315  1.00  0.00     0.116 A 
HETATM   26  F   UNL     1      44.442 -22.234   1.559  1.00  0.00    -0.206 F 
HETATM   27  C   UNL     1      43.569 -20.056   1.774  1.00  0.00     0.043 A 
HETATM   28  C   UNL     1      43.345 -18.923   2.561  1.00  0.00     0.017 A 
ENDBRANCH   6  22
TORSDOF 5
ENDMDL
MODEL 5
REMARK VINA RESULT:      -8.0      2.749      3.273
REMARK  5 active torsions:
REMARK  status: ('A' for Active; 'I' for Inactive)
REMARK    1  A    between atoms: C_3  and  N_4 
REMARK    2  A    between atoms: N_5  and  C_6 
REMARK    3  A    between atoms: C_6  and  C_7 
REMARK    4  A    between atoms: C_7  and  C_8 
REMARK    5  A    between atoms: C_19  and  C_20 
ROOT
HETATM    1  C   UNL     1      45.107 -17.853   6.616  1.00  0.00     0.175 C 
HETATM    2  N   UNL     1      44.059 -17.234   5.818  1.00  0.00    -0.186 N 
HETATM    3  C   UNL     1      43.439 -16.105   6.148  1.00  0.00     0.680 C 
HETATM    4  N   UNL     1      42.779 -15.650   5.089  1.00  0.00    -0.184 N 
HETATM    5  C   UNL     1      42.846 -16.615   4.095  1.00  0.00     0.140 C 
HETATM    6  C   UNL     1      43.599 -17.673   4.564  1.00  0.00     0.077 C 
ENDROOT
BRANCH   4   7
HETATM    7  C   UNL     1      42.142 -14.324   4.925  1.00  0.00     0.231 C 
BRANCH   7   8
HETATM    8  C   UNL     1      42.116 -13.821   3.485  1.00  0.00     0.178 C 
HETATM    9  O   UNL     1      43.136 -13.446   2.903  1.00  0.00    -0.290 OA
BRANCH   8  10
HETATM   10  C   UNL     1      40.831 -13.845   2.737  1.00  0.00     0.014 A 
HETATM   11  C   UNL     1      40.189 -12.666   2.338  1.00  0.00     0.055 A 
HETATM   12  C   UNL     1      38.980 -12.791   1.683  1.00  0.00     0.106 A 
HETATM   13  C   UNL     1      38.413 -14.016   1.418  1.00  0.00     0.105 A 
HETATM   14  O   UNL     1      38.213 -11.760   1.240  1.00  0.00    -0.323 OA
HETATM   15  O   UNL     1      37.223 -13.908   0.774  1.00  0.00    -0.323 OA
HETATM   16  C   UNL     1      39.021 -15.192   1.797  1.00  0.00     0.040 A 
HETATM   17  C   UNL     1      37.083 -12.474   0.688  1.00  0.00     0.352 A 
HETATM   18  C   UNL     1      40.242 -15.103   2.471  1.00  0.00     0.018 A 
ENDBRANCH   8  10
ENDBRANCH   7   8
ENDBRANCH   4   7
BRANCH   3  19
HETATM   19  N   UNL     1      43.501 -15.536   7.347  1.00  0.00    -0.234 N 
HETATM   20  H   UNL     1      44.351 -15.135   7.708  1.00  0.00     0.174 HD
HETATM   21  H   UNL     1      42.791 -15.789   8.035  1.00  0.00     0.174 HD
ENDBRANCH   3  19
BRANCH   6  22
HETATM   22  C   UNL     1      43.849 -18.966   3.838  1.00  0.00    -0.007 A 
HETATM   23  C   UNL     1      44.515 -20.019   4.485  1.00  0.00     0.017 A 
HETATM   24  C   UNL     1      44.752 -21.220   3.808  1.00  0.00     0.043 A 
HETATM   25  C   UNL     1      44.339 -21.360   2.489  1.00  0.00     0.116 A 
HETATM   26  F   UNL     1      44.571 -22.509   1.843  1.00  0.00    -0.206 F 
HETATM   27  C   UNL     1      43.697 -20.321   1.831  1.00  0.00     0.043 A 
HETATM   28  C   UNL     1      43.453 -19.120   2.503  1.00  0.00     0.017 A 
ENDBRANCH   6  22
TORSDOF 5
ENDMDL
MODEL 6
REMARK VINA RESULT:      -7.9      4.439      7.935
REMARK  5 active torsions:
REMARK  status: ('A' for Active; 'I' for Inactive)
REMARK    1  A    between atoms: C_3  and  N_4 
REMARK    2  A    between atoms: N_5  and  C_6 
REMARK    3  A    between atoms: C_6  and  C_7 
REMARK    4  A    between atoms: C_7  and  C_8 
REMARK    5  A    between atoms: C_19  and  C_20 
ROOT
HETATM    1  C   UNL     1      41.839 -12.618   1.267  1.00  0.00     0.175 C 
HETATM    2  N   UNL     1      41.627 -13.983   1.725  1.00  0.00    -0.186 N 
HETATM    3  C   UNL     1      41.741 -15.057   0.949  1.00  0.00     0.680 C 
HETATM    4  N   UNL     1      41.795 -16.140   1.716  1.00  0.00    -0.184 N 
HETATM    5  C   UNL     1      41.538 -15.752   3.024  1.00  0.00     0.140 C 
HETATM    6  C   UNL     1      41.353 -14.385   3.045  1.00  0.00     0.077 C 
ENDROOT
BRANCH   4   7
HETATM    7  C   UNL     1      42.145 -17.518   1.307  1.00  0.00     0.231 C 
BRANCH   7   8
HETATM    8  C   UNL     1      43.583 -17.914   1.625  1.00  0.00     0.178 C 
HETATM    9  O   UNL     1      44.532 -17.151   1.431  1.00  0.00    -0.290 OA
BRANCH   8  10
HETATM   10  C   UNL     1      43.844 -19.239   2.249  1.00  0.00     0.014 A 
HETATM   11  C   UNL     1      44.278 -19.356   3.575  1.00  0.00     0.055 A 
HETATM   12  C   UNL     1      44.531 -20.626   4.052  1.00  0.00     0.106 A 
HETATM   13  C   UNL     1      44.365 -21.748   3.273  1.00  0.00     0.105 A 
HETATM   14  O   UNL     1      44.972 -20.926   5.302  1.00  0.00    -0.323 OA
HETATM   15  O   UNL     1      44.676 -22.890   3.936  1.00  0.00    -0.323 OA
HETATM   16  C   UNL     1      43.939 -21.665   1.966  1.00  0.00     0.040 A 
HETATM   17  C   UNL     1      45.090 -22.365   5.215  1.00  0.00     0.352 A 
HETATM   18  C   UNL     1      43.682 -20.392   1.448  1.00  0.00     0.018 A 
ENDBRANCH   8  10
ENDBRANCH   7   8
ENDBRANCH   4   7
BRANCH   3  19
HETATM   19  N   UNL     1      41.805 -15.022  -0.377  1.00  0.00    -0.234 N 
HETATM   20  H   UNL     1      41.670 -14.171  -0.899  1.00  0.00     0.174 HD
HETATM   21  H   UNL     1      41.663 -15.894  -0.887  1.00  0.00     0.174 HD
ENDBRANCH   3  19
BRANCH   6  22
HETATM   22  C   UNL     1      40.967 -13.567   4.247  1.00  0.00    -0.007 A 
HETATM   23  C   UNL     1      39.630 -13.529   4.673  1.00  0.00     0.017 A 
HETATM   24  C   UNL     1      39.271 -12.765   5.788  1.00  0.00     0.043 A 
HETATM   25  C   UNL     1      40.239 -12.032   6.462  1.00  0.00     0.116 A 
HETATM   26  F   UNL     1      39.891 -11.299   7.526  1.00  0.00    -0.206 F 
HETATM   27  C   UNL     1      41.561 -12.044   6.040  1.00  0.00     0.043 A 
HETATM   28  C   UNL     1      41.927 -12.809   4.929  1.00  0.00     0.017 A 
ENDBRANCH   6  22
TORSDOF 5
ENDMDL
MODEL 7
REMARK VINA RESULT:      -7.8      1.843      2.433
REMARK  5 active torsions:
REMARK  status: ('A' for Active; 'I' for Inactive)
REMARK    1  A    between atoms: C_3  and  N_4 
REMARK    2  A    between atoms: N_5  and  C_6 
REMARK    3  A    between atoms: C_6  and  C_7 
REMARK    4  A    between atoms: C_7  and  C_8 
REMARK    5  A    between atoms: C_19  and  C_20 
ROOT
HETATM    1  C   UNL     1      44.517 -17.905   6.646  1.00  0.00     0.175 C 
HETATM    2  N   UNL     1      43.696 -17.271   5.625  1.00  0.00    -0.186 N 
HETATM    3  C   UNL     1      43.080 -16.103   5.783  1.00  0.00     0.680 C 
HETATM    4  N   UNL     1      42.685 -15.660   4.595  1.00  0.00    -0.184 N 
HETATM    5  C   UNL     1      42.910 -16.666   3.666  1.00  0.00     0.140 C 
HETATM    6  C   UNL     1      43.489 -17.738   4.315  1.00  0.00     0.077 C 
ENDROOT
BRANCH   4   7
HETATM    7  C   UNL     1      42.168 -14.314   4.260  1.00  0.00     0.231 C 
BRANCH   7   8
HETATM    8  C   UNL     1      40.701 -14.299   3.843  1.00  0.00     0.178 C 
HETATM    9  O   UNL     1      39.785 -14.277   4.667  1.00  0.00    -0.290 OA
BRANCH   8  10
HETATM   10  C   UNL     1      40.365 -14.243   2.395  1.00  0.00     0.014 A 
HETATM   11  C   UNL     1      41.356 -14.151   1.411  1.00  0.00     0.055 A 
HETATM   12  C   UNL     1      40.942 -14.065   0.097  1.00  0.00     0.106 A 
HETATM   13  C   UNL     1      39.613 -14.073  -0.255  1.00  0.00     0.105 A 
HETATM   14  O   UNL     1      41.761 -13.954  -0.982  1.00  0.00    -0.323 OA
HETATM   15  O   UNL     1      39.430 -13.971  -1.596  1.00  0.00    -0.323 OA
HETATM   16  C   UNL     1      38.614 -14.163   0.690  1.00  0.00     0.040 A 
HETATM   17  C   UNL     1      40.795 -13.867  -2.054  1.00  0.00     0.352 A 
HETATM   18  C   UNL     1      38.998 -14.242   2.032  1.00  0.00     0.018 A 
ENDBRANCH   8  10
ENDBRANCH   7   8
ENDBRANCH   4   7
BRANCH   3  19
HETATM   19  N   UNL     1      42.917 -15.491   6.950  1.00  0.00    -0.234 N 
HETATM   20  H   UNL     1      42.030 -15.471   7.426  1.00  0.00     0.174 HD
HETATM   21  H   UNL     1      43.588 -14.767   7.211  1.00  0.00     0.174 HD
ENDBRANCH   3  19
BRANCH   6  22
HETATM   22  C   UNL     1      43.819 -19.068   3.696  1.00  0.00    -0.007 A 
HETATM   23  C   UNL     1      43.293 -19.410   2.440  1.00  0.00     0.017 A 
HETATM   24  C   UNL     1      43.596 -20.650   1.867  1.00  0.00     0.043 A 
HETATM   25  C   UNL     1      44.406 -21.546   2.552  1.00  0.00     0.116 A 
HETATM   26  F   UNL     1      44.691 -22.733   2.003  1.00  0.00    -0.206 F 
HETATM   27  C   UNL     1      44.917 -21.229   3.803  1.00  0.00     0.043 A 
HETATM   28  C   UNL     1      44.622 -19.991   4.379  1.00  0.00     0.017 A 
ENDBRANCH   6  22
TORSDOF 5
ENDMDL
MODEL 8
REMARK VINA RESULT:      -7.7      1.464      2.293
REMARK  5 active torsions:
REMARK  status: ('A' for Active; 'I' for Inactive)
REMARK    1  A    between atoms: C_3  and  N_4 
REMARK    2  A    between atoms: N_5  and  C_6 
REMARK    3  A    between atoms: C_6  and  C_7 
REMARK    4  A    between atoms: C_7  and  C_8 
REMARK    5  A    between atoms: C_19  and  C_20 
ROOT
HETATM    1  C   UNL     1      41.626 -17.543   5.080  1.00  0.00     0.175 C 
HETATM    2  N   UNL     1      41.931 -17.090   3.731  1.00  0.00    -0.186 N 
HETATM    3  C   UNL     1      41.495 -15.947   3.212  1.00  0.00     0.680 C 
HETATM    4  N   UNL     1      42.187 -15.682   2.110  1.00  0.00    -0.184 N 
HETATM    5  C   UNL     1      42.980 -16.785   1.826  1.00  0.00     0.140 C 
HETATM    6  C   UNL     1      42.778 -17.732   2.810  1.00  0.00     0.077 C 
ENDROOT
BRANCH   4   7
HETATM    7  C   UNL     1      42.204 -14.420   1.337  1.00  0.00     0.231 C 
BRANCH   7   8
HETATM    8  C   UNL     1      41.119 -14.332   0.268  1.00  0.00     0.178 C 
HETATM    9  O   UNL     1      39.988 -14.792   0.442  1.00  0.00    -0.290 OA
BRANCH   8  10
HETATM   10  C   UNL     1      41.413 -13.611  -0.999  1.00  0.00     0.014 A 
HETATM   11  C   UNL     1      42.107 -12.395  -1.012  1.00  0.00     0.055 A 
HETATM   12  C   UNL     1      42.296 -11.784  -2.235  1.00  0.00     0.106 A 
HETATM   13  C   UNL     1      41.834 -12.333  -3.408  1.00  0.00     0.105 A 
HETATM   14  O   UNL     1      42.931 -10.598  -2.434  1.00  0.00    -0.323 OA
HETATM   15  O   UNL     1      42.123 -11.565  -4.489  1.00  0.00    -0.323 OA
HETATM   16  C   UNL     1      41.149 -13.528  -3.428  1.00  0.00     0.040 A 
HETATM   17  C   UNL     1      42.793 -10.449  -3.866  1.00  0.00     0.352 A 
HETATM   18  C   UNL     1      40.931 -14.170  -2.206  1.00  0.00     0.018 A 
ENDBRANCH   8  10
ENDBRANCH   7   8
ENDBRANCH   4   7
BRANCH   3  19
HETATM   19  N   UNL     1      40.532 -15.200   3.741  1.00  0.00    -0.234 N 
HETATM   20  H   UNL     1      40.595 -14.196   3.787  1.00  0.00     0.174 HD
HETATM   21  H   UNL     1      39.883 -15.644   4.391  1.00  0.00     0.174 HD
ENDBRANCH   3  19
BRANCH   6  22
HETATM   22  C   UNL     1      43.377 -19.111   2.841  1.00  0.00    -0.007 A 
HETATM   23  C   UNL     1      44.323 -19.446   3.823  1.00  0.00     0.017 A 
HETATM   24  C   UNL     1      44.883 -20.727   3.849  1.00  0.00     0.043 A 
HETATM   25  C   UNL     1      44.513 -21.660   2.890  1.00  0.00     0.116 A 
HETATM   26  F   UNL     1      45.054 -22.884   2.915  1.00  0.00    -0.206 F 
HETATM   27  C   UNL     1      43.595 -21.337   1.900  1.00  0.00     0.043 A 
HETATM   28  C   UNL     1      43.027 -20.060   1.872  1.00  0.00     0.017 A 
ENDBRANCH   6  22
TORSDOF 5
ENDMDL
MODEL 9
REMARK VINA RESULT:      -7.7      3.930      8.004
REMARK  5 active torsions:
REMARK  status: ('A' for Active; 'I' for Inactive)
REMARK    1  A    between atoms: C_3  and  N_4 
REMARK    2  A    between atoms: N_5  and  C_6 
REMARK    3  A    between atoms: C_6  and  C_7 
REMARK    4  A    between atoms: C_7  and  C_8 
REMARK    5  A    between atoms: C_19  and  C_20 
ROOT
HETATM    1  C   UNL     1      38.948 -13.538   0.534  1.00  0.00     0.175 C 
HETATM    2  N   UNL     1      40.033 -14.508   0.515  1.00  0.00    -0.186 N 
HETATM    3  C   UNL     1      40.115 -15.550   1.336  1.00  0.00     0.680 C 
HETATM    4  N   UNL     1      41.027 -16.396   0.870  1.00  0.00    -0.184 N 
HETATM    5  C   UNL     1      41.668 -15.788  -0.200  1.00  0.00     0.140 C 
HETATM    6  C   UNL     1      41.099 -14.546  -0.401  1.00  0.00     0.077 C 
ENDROOT
BRANCH   4   7
HETATM    7  C   UNL     1      41.291 -17.779   1.325  1.00  0.00     0.231 C 
BRANCH   7   8
HETATM    8  C   UNL     1      42.717 -18.011   1.812  1.00  0.00     0.178 C 
HETATM    9  O   UNL     1      43.680 -18.019   1.042  1.00  0.00    -0.290 OA
BRANCH   8  10
HETATM   10  C   UNL     1      42.964 -18.169   3.271  1.00  0.00     0.014 A 
HETATM   11  C   UNL     1      42.317 -17.367   4.218  1.00  0.00     0.055 A 
HETATM   12  C   UNL     1      42.641 -17.563   5.546  1.00  0.00     0.106 A 
HETATM   13  C   UNL     1      43.558 -18.508   5.944  1.00  0.00     0.105 A 
HETATM   14  O   UNL     1      42.127 -16.867   6.594  1.00  0.00    -0.323 OA
HETATM   15  O   UNL     1      43.731 -18.527   7.290  1.00  0.00    -0.323 OA
HETATM   16  C   UNL     1      44.210 -19.312   5.036  1.00  0.00     0.040 A 
HETATM   17  C   UNL     1      42.844 -17.465   7.699  1.00  0.00     0.352 A 
HETATM   18  C   UNL     1      43.912 -19.134   3.682  1.00  0.00     0.018 A 
ENDBRANCH   8  10
ENDBRANCH   7   8
ENDBRANCH   4   7
BRANCH   3  19
HETATM   19  N   UNL     1      39.379 -15.704   2.432  1.00  0.00    -0.234 N 
HETATM   20  H   UNL     1      39.788 -15.748   3.351  1.00  0.00     0.174 HD
HETATM   21  H   UNL     1      38.446 -16.105   2.331  1.00  0.00     0.174 HD
ENDBRANCH   3  19
BRANCH   6  22
HETATM   22  C   UNL     1      41.552 -13.522  -1.405  1.00  0.00    -0.007 A 
HETATM   23  C   UNL     1      42.341 -12.435  -0.995  1.00  0.00     0.017 A 
HETATM   24  C   UNL     1      42.758 -11.481  -1.928  1.00  0.00     0.043 A 
HETATM   25  C   UNL     1      42.376 -11.603  -3.257  1.00  0.00     0.116 A 
HETATM   26  F   UNL     1      42.774 -10.686  -4.147  1.00  0.00    -0.206 F 
HETATM   27  C   UNL     1      41.580 -12.661  -3.673  1.00  0.00     0.043 A 
HETATM   28  C   UNL     1      41.163 -13.621  -2.747  1.00  0.00     0.017 A 
ENDBRANCH   6  22
TORSDOF 5
ENDMDL
MODEL 10
REMARK VINA RESULT:      -7.6      2.931      5.412
REMARK  5 active torsions:
REMARK  status: ('A' for Active; 'I' for Inactive)
REMARK    1  A    between atoms: C_3  and  N_4 
REMARK    2  A    between atoms: N_5  and  C_6 
REMARK    3  A    between atoms: C_6  and  C_7 
REMARK    4  A    between atoms: C_7  and  C_8 
REMARK    5  A    between atoms: C_19  and  C_20 
ROOT
HETATM    1  C   UNL     1      40.686 -17.868   1.151  1.00  0.00     0.175 C 
HETATM    2  N   UNL     1      41.763 -17.001   1.606  1.00  0.00    -0.186 N 
HETATM    3  C   UNL     1      41.760 -15.678   1.476  1.00  0.00     0.680 C 
HETATM    4  N   UNL     1      42.709 -15.167   2.252  1.00  0.00    -0.184 N 
HETATM    5  C   UNL     1      43.454 -16.218   2.767  1.00  0.00     0.140 C 
HETATM    6  C   UNL     1      42.913 -17.402   2.308  1.00  0.00     0.077 C 
ENDROOT
BRANCH   4   7
HETATM    7  C   UNL     1      42.921 -13.744   2.599  1.00  0.00     0.231 C 
BRANCH   7   8
HETATM    8  C   UNL     1      42.494 -13.380   4.016  1.00  0.00     0.178 C 
HETATM    9  O   UNL     1      42.176 -12.230   4.331  1.00  0.00    -0.290 OA
BRANCH   8  10
HETATM   10  C   UNL     1      42.395 -14.456   5.038  1.00  0.00     0.014 A 
HETATM   11  C   UNL     1      43.505 -14.865   5.788  1.00  0.00     0.055 A 
HETATM   12  C   UNL     1      43.321 -15.898   6.684  1.00  0.00     0.106 A 
HETATM   13  C   UNL     1      42.102 -16.513   6.853  1.00  0.00     0.105 A 
HETATM   14  O   UNL     1      44.285 -16.433   7.479  1.00  0.00    -0.323 OA
HETATM   15  O   UNL     1      42.147 -17.507   7.777  1.00  0.00    -0.323 OA
HETATM   16  C   UNL     1      40.992 -16.133   6.132  1.00  0.00     0.040 A 
HETATM   17  C   UNL     1      43.540 -17.475   8.152  1.00  0.00     0.352 A 
HETATM   18  C   UNL     1      41.145 -15.095   5.208  1.00  0.00     0.018 A 
ENDBRANCH   8  10
ENDBRANCH   7   8
ENDBRANCH   4   7
BRANCH   3  19
HETATM   19  N   UNL     1      40.921 -15.000   0.701  1.00  0.00    -0.234 N 
HETATM   20  H   UNL     1      41.003 -14.994  -0.303  1.00  0.00     0.174 HD
HETATM   21  H   UNL     1      40.399 -14.229   1.118  1.00  0.00     0.174 HD
ENDBRANCH   3  19
BRANCH   6  22
HETATM   22  C   UNL     1      43.466 -18.778   2.558  1.00  0.00    -0.007 A 
HETATM   23  C   UNL     1      43.300 -19.789   1.598  1.00  0.00     0.017 A 
HETATM   24  C   UNL     1      43.810 -21.070   1.833  1.00  0.00     0.043 A 
HETATM   25  C   UNL     1      44.468 -21.342   3.025  1.00  0.00     0.116 A 
HETATM   26  F   UNL     1      44.952 -22.569   3.248  1.00  0.00    -0.206 F 
HETATM   27  C   UNL     1      44.623 -20.358   3.992  1.00  0.00     0.043 A 
HETATM   28  C   UNL     1      44.119 -19.074   3.761  1.00  0.00     0.017 A 
ENDBRANCH   6  22
TORSDOF 5
ENDMDL
