MODEL 1
REMARK VINA RESULT:      -9.1      0.000      0.000
REMARK  5 active torsions:
REMARK  status: ('A' for Active; 'I' for Inactive)
REMARK    1  A    between atoms: C_9  and  N_10 
REMARK       I    between atoms: N_10  and  C_11 
REMARK    2  A    between atoms: C_11  and  C_12 
REMARK    3  A    between atoms: C_16  and  C_17 
REMARK    4  A    between atoms: C_17  and  O_18 
REMARK    5  A    between atoms: O_18  and  C_19 
ROOT
HETATM    1  C   UNL     1      43.604 -18.421   2.988  1.00  0.00     0.153 A 
HETATM    2  O   UNL     1      43.674 -19.539   2.198  1.00  0.00    -0.304 OA
HETATM    3  C   UNL     1      44.110 -20.562   2.980  1.00  0.00     0.087 A 
HETATM    4  C   UNL     1      44.308 -20.123   4.284  1.00  0.00     0.009 A 
HETATM    5  C   UNL     1      43.975 -18.733   4.289  1.00  0.00     0.018 A 
HETATM    6  C   UNL     1      44.331 -21.867   2.548  1.00  0.00     0.038 A 
HETATM    7  C   UNL     1      44.779 -22.776   3.510  1.00  0.00     0.003 A 
HETATM    8  C   UNL     1      44.986 -22.381   4.834  1.00  0.00     0.001 A 
HETATM    9  C   UNL     1      44.752 -21.059   5.239  1.00  0.00     0.015 A 
ENDROOT
BRANCH   1  10
HETATM   10  C   UNL     1      43.191 -17.170   2.372  1.00  0.00     0.280 C 
HETATM   11  N   UNL     1      41.844 -17.162   2.044  1.00  0.00    -0.321 N 
HETATM   12  H   UNL     1      41.346 -18.005   2.315  1.00  0.00     0.169 HD
HETATM   13  O   UNL     1      43.967 -16.243   2.165  1.00  0.00    -0.265 OA
BRANCH  11  14
HETATM   14  C   UNL     1      41.113 -16.157   1.387  1.00  0.00     0.035 A 
HETATM   15  C   UNL     1      41.353 -15.763   0.068  1.00  0.00     0.039 A 
HETATM   16  C   UNL     1      40.546 -14.785  -0.497  1.00  0.00    -0.022 A 
HETATM   17  C   UNL     1      40.593 -14.263  -1.890  1.00  0.00     0.274 C 
HETATM   18  C   UNL     1      39.514 -14.188   0.225  1.00  0.00    -0.025 A 
HETATM   19  N   UNL     1      39.572 -13.128  -1.922  1.00  0.00    -0.067 N 
HETATM   20  C   UNL     1      38.733 -13.102  -3.151  1.00  0.00     0.270 C 
HETATM   21  H   UNL     1      40.115 -12.259  -1.872  1.00  0.00     0.280 HD
HETATM   22  C   UNL     1      38.777 -13.211  -0.622  1.00  0.00     0.273 C 
HETATM   23  C   UNL     1      39.267 -14.554   1.536  1.00  0.00     0.012 A 
HETATM   24  C   UNL     1      40.071 -15.544   2.112  1.00  0.00     0.030 A 
ENDBRANCH  11  14
ENDBRANCH   1  10
BRANCH   5  25
HETATM   25  C   UNL     1      43.996 -17.806   5.459  1.00  0.00     0.218 C 
BRANCH  25  26
HETATM   26  O   UNL     1      42.669 -17.631   5.960  1.00  0.00    -0.347 OA
BRANCH  26  27
HETATM   27  C   UNL     1      42.102 -16.396   5.817  1.00  0.00     0.069 A 
HETATM   28  C   UNL     1      43.008 -15.371   5.533  1.00  0.00     0.037 A 
HETATM   29  C   UNL     1      42.566 -14.058   5.355  1.00  0.00     0.003 A 
HETATM   30  C   UNL     1      41.210 -13.764   5.458  1.00  0.00     0.000 A 
HETATM   31  C   UNL     1      40.300 -14.781   5.744  1.00  0.00     0.003 A 
HETATM   32  C   UNL     1      40.744 -16.095   5.924  1.00  0.00     0.037 A 
ENDBRANCH  26  27
ENDBRANCH  25  26
ENDBRANCH   5  25
TORSDOF 5
ENDMDL
MODEL 2
REMARK VINA RESULT:      -8.9      2.163      4.741
REMARK  5 active torsions:
REMARK  status: ('A' for Active; 'I' for Inactive)
REMARK    1  A    between atoms: C_9  and  N_10 
REMARK       I    between atoms: N_10  and  C_11 
REMARK    2  A    between atoms: C_11  and  C_12 
REMARK    3  A    between atoms: C_16  and  C_17 
REMARK    4  A    between atoms: C_17  and  O_18 
REMARK    5  A    between atoms: O_18  and  C_19 
ROOT
HETATM    1  C   UNL     1      43.871 -18.223   4.676  1.00  0.00     0.153 A 
HETATM    2  O   UNL     1      44.174 -19.215   5.574  1.00  0.00    -0.304 OA
HETATM    3  C   UNL     1      44.354 -20.361   4.866  1.00  0.00     0.087 A 
HETATM    4  C   UNL     1      44.190 -20.122   3.507  1.00  0.00     0.009 A 
HETATM    5  C   UNL     1      43.879 -18.731   3.384  1.00  0.00     0.018 A 
HETATM    6  C   UNL     1      44.661 -21.605   5.413  1.00  0.00     0.038 A 
HETATM    7  C   UNL     1      44.809 -22.663   4.513  1.00  0.00     0.003 A 
HETATM    8  C   UNL     1      44.659 -22.467   3.138  1.00  0.00     0.001 A 
HETATM    9  C   UNL     1      44.352 -21.202   2.618  1.00  0.00     0.015 A 
ENDROOT
BRANCH   1  10
HETATM   10  C   UNL     1      43.596 -16.892   5.192  1.00  0.00     0.280 C 
HETATM   11  N   UNL     1      42.573 -16.259   4.502  1.00  0.00    -0.321 N 
HETATM   12  H   UNL     1      42.149 -16.828   3.776  1.00  0.00     0.169 HD
HETATM   13  O   UNL     1      44.219 -16.399   6.126  1.00  0.00    -0.265 OA
BRANCH  11  14
HETATM   14  C   UNL     1      42.079 -14.955   4.679  1.00  0.00     0.035 A 
HETATM   15  C   UNL     1      41.053 -14.632   5.570  1.00  0.00     0.039 A 
HETATM   16  C   UNL     1      40.666 -13.305   5.696  1.00  0.00    -0.022 A 
HETATM   17  C   UNL     1      39.642 -12.740   6.617  1.00  0.00     0.274 C 
HETATM   18  C   UNL     1      41.274 -12.297   4.947  1.00  0.00    -0.025 A 
HETATM   19  N   UNL     1      39.545 -11.263   6.243  1.00  0.00    -0.067 N 
HETATM   20  C   UNL     1      39.456 -10.347   7.412  1.00  0.00     0.270 C 
HETATM   21  H   UNL     1      38.691 -11.169   5.682  1.00  0.00     0.280 HD
HETATM   22  C   UNL     1      40.709 -10.966   5.302  1.00  0.00     0.273 C 
HETATM   23  C   UNL     1      42.284 -12.596   4.051  1.00  0.00     0.012 A 
HETATM   24  C   UNL     1      42.685 -13.931   3.923  1.00  0.00     0.030 A 
ENDBRANCH  11  14
ENDBRANCH   1  10
BRANCH   5  25
HETATM   25  C   UNL     1      43.638 -17.970   2.123  1.00  0.00     0.218 C 
BRANCH  25  26
HETATM   26  O   UNL     1      42.281 -18.139   1.710  1.00  0.00    -0.347 OA
BRANCH  26  27
HETATM   27  C   UNL     1      41.521 -17.011   1.576  1.00  0.00     0.069 A 
HETATM   28  C   UNL     1      42.125 -15.988   0.840  1.00  0.00     0.037 A 
HETATM   29  C   UNL     1      41.459 -14.780   0.618  1.00  0.00     0.003 A 
HETATM   30  C   UNL     1      40.180 -14.590   1.132  1.00  0.00     0.000 A 
HETATM   31  C   UNL     1      39.572 -15.605   1.869  1.00  0.00     0.003 A 
HETATM   32  C   UNL     1      40.240 -16.814   2.093  1.00  0.00     0.037 A 
ENDBRANCH  26  27
ENDBRANCH  25  26
ENDBRANCH   5  25
TORSDOF 5
ENDMDL
MODEL 3
REMARK VINA RESULT:      -8.6      2.061      4.301
REMARK  5 active torsions:
REMARK  status: ('A' for Active; 'I' for Inactive)
REMARK    1  A    between atoms: C_9  and  N_10 
REMARK       I    between atoms: N_10  and  C_11 
REMARK    2  A    between atoms: C_11  and  C_12 
REMARK    3  A    between atoms: C_16  and  C_17 
REMARK    4  A    between atoms: C_17  and  O_18 
REMARK    5  A    between atoms: O_18  and  C_19 
ROOT
HETATM    1  C   UNL     1      43.742 -18.241   4.560  1.00  0.00     0.153 A 
HETATM    2  O   UNL     1      44.100 -19.208   5.464  1.00  0.00    -0.304 OA
HETATM    3  C   UNL     1      44.319 -20.354   4.768  1.00  0.00     0.087 A 
HETATM    4  C   UNL     1      44.126 -20.139   3.409  1.00  0.00     0.009 A 
HETATM    5  C   UNL     1      43.754 -18.765   3.274  1.00  0.00     0.018 A 
HETATM    6  C   UNL     1      44.687 -21.576   5.326  1.00  0.00     0.038 A 
HETATM    7  C   UNL     1      44.867 -22.639   4.436  1.00  0.00     0.003 A 
HETATM    8  C   UNL     1      44.689 -22.467   3.061  1.00  0.00     0.001 A 
HETATM    9  C   UNL     1      44.322 -21.222   2.530  1.00  0.00     0.015 A 
ENDROOT
BRANCH   1  10
HETATM   10  C   UNL     1      43.417 -16.916   5.063  1.00  0.00     0.280 C 
HETATM   11  N   UNL     1      42.198 -16.456   4.591  1.00  0.00    -0.321 N 
HETATM   12  H   UNL     1      41.703 -17.120   4.004  1.00  0.00     0.169 HD
HETATM   13  O   UNL     1      44.160 -16.289   5.811  1.00  0.00    -0.265 OA
BRANCH  11  14
HETATM   14  C   UNL     1      41.592 -15.207   4.814  1.00  0.00     0.035 A 
HETATM   15  C   UNL     1      41.942 -14.044   4.124  1.00  0.00     0.039 A 
HETATM   16  C   UNL     1      41.253 -12.870   4.396  1.00  0.00    -0.022 A 
HETATM   17  C   UNL     1      41.425 -11.543   3.743  1.00  0.00     0.274 C 
HETATM   18  C   UNL     1      40.232 -12.830   5.345  1.00  0.00    -0.025 A 
HETATM   19  N   UNL     1      40.504 -10.600   4.513  1.00  0.00    -0.067 N 
HETATM   20  C   UNL     1      39.745  -9.656   3.650  1.00  0.00     0.270 C 
HETATM   21  H   UNL     1      41.112 -10.061   5.140  1.00  0.00     0.280 HD
HETATM   22  C   UNL     1      39.629 -11.470   5.410  1.00  0.00     0.273 C 
HETATM   23  C   UNL     1      39.877 -13.967   6.048  1.00  0.00     0.012 A 
HETATM   24  C   UNL     1      40.562 -15.157   5.775  1.00  0.00     0.030 A 
ENDBRANCH  11  14
ENDBRANCH   1  10
BRANCH   5  25
HETATM   25  C   UNL     1      43.463 -18.030   2.007  1.00  0.00     0.218 C 
BRANCH  25  26
HETATM   26  O   UNL     1      42.059 -18.060   1.744  1.00  0.00    -0.347 OA
BRANCH  26  27
HETATM   27  C   UNL     1      41.449 -16.872   1.457  1.00  0.00     0.069 A 
HETATM   28  C   UNL     1      40.155 -16.745   1.969  1.00  0.00     0.037 A 
HETATM   29  C   UNL     1      39.415 -15.579   1.757  1.00  0.00     0.003 A 
HETATM   30  C   UNL     1      39.970 -14.530   1.031  1.00  0.00     0.000 A 
HETATM   31  C   UNL     1      41.259 -14.649   0.515  1.00  0.00     0.003 A 
HETATM   32  C   UNL     1      41.999 -15.817   0.726  1.00  0.00     0.037 A 
ENDBRANCH  26  27
ENDBRANCH  25  26
ENDBRANCH   5  25
TORSDOF 5
ENDMDL
MODEL 4
REMARK VINA RESULT:      -8.5      2.489      7.622
REMARK  5 active torsions:
REMARK  status: ('A' for Active; 'I' for Inactive)
REMARK    1  A    between atoms: C_9  and  N_10 
REMARK       I    between atoms: N_10  and  C_11 
REMARK    2  A    between atoms: C_11  and  C_12 
REMARK    3  A    between atoms: C_16  and  C_17 
REMARK    4  A    between atoms: C_17  and  O_18 
REMARK    5  A    between atoms: O_18  and  C_19 
ROOT
HETATM    1  C   UNL     1      41.385 -13.672   2.755  1.00  0.00     0.153 A 
HETATM    2  O   UNL     1      40.969 -13.121   1.571  1.00  0.00    -0.304 OA
HETATM    3  C   UNL     1      39.959 -12.258   1.859  1.00  0.00     0.087 A 
HETATM    4  C   UNL     1      39.724 -12.227   3.228  1.00  0.00     0.009 A 
HETATM    5  C   UNL     1      40.654 -13.144   3.810  1.00  0.00     0.018 A 
HETATM    6  C   UNL     1      39.253 -11.506   0.923  1.00  0.00     0.038 A 
HETATM    7  C   UNL     1      38.248 -10.673   1.422  1.00  0.00     0.003 A 
HETATM    8  C   UNL     1      37.980 -10.606   2.792  1.00  0.00     0.001 A 
HETATM    9  C   UNL     1      38.712 -11.374   3.709  1.00  0.00     0.015 A 
ENDROOT
BRANCH   1  10
HETATM   10  C   UNL     1      42.447 -14.665   2.715  1.00  0.00     0.280 C 
HETATM   11  N   UNL     1      41.959 -15.962   2.737  1.00  0.00    -0.321 N 
HETATM   12  H   UNL     1      40.945 -16.024   2.739  1.00  0.00     0.169 HD
HETATM   13  O   UNL     1      43.636 -14.365   2.677  1.00  0.00    -0.265 OA
BRANCH  11  14
HETATM   14  C   UNL     1      42.684 -17.166   2.769  1.00  0.00     0.035 A 
HETATM   15  C   UNL     1      43.265 -17.687   3.928  1.00  0.00     0.039 A 
HETATM   16  C   UNL     1      43.929 -18.905   3.857  1.00  0.00    -0.022 A 
HETATM   17  C   UNL     1      44.565 -19.659   4.971  1.00  0.00     0.274 C 
HETATM   18  C   UNL     1      44.031 -19.607   2.656  1.00  0.00    -0.025 A 
HETATM   19  N   UNL     1      45.243 -20.853   4.304  1.00  0.00    -0.067 N 
HETATM   20  C   UNL     1      45.079 -22.134   5.044  1.00  0.00     0.270 C 
HETATM   21  H   UNL     1      46.242 -20.622   4.258  1.00  0.00     0.280 HD
HETATM   22  C   UNL     1      44.747 -20.896   2.862  1.00  0.00     0.273 C 
HETATM   23  C   UNL     1      43.473 -19.103   1.495  1.00  0.00     0.012 A 
HETATM   24  C   UNL     1      42.797 -17.879   1.559  1.00  0.00     0.030 A 
ENDBRANCH  11  14
ENDBRANCH   1  10
BRANCH   5  25
HETATM   25  C   UNL     1      40.825 -13.454   5.261  1.00  0.00     0.218 C 
BRANCH  25  26
HETATM   26  O   UNL     1      40.601 -14.847   5.486  1.00  0.00    -0.347 OA
BRANCH  26  27
HETATM   27  C   UNL     1      41.563 -15.535   6.169  1.00  0.00     0.069 A 
HETATM   28  C   UNL     1      42.791 -14.874   6.266  1.00  0.00     0.037 A 
HETATM   29  C   UNL     1      43.864 -15.458   6.943  1.00  0.00     0.003 A 
HETATM   30  C   UNL     1      43.713 -16.710   7.530  1.00  0.00     0.000 A 
HETATM   31  C   UNL     1      42.492 -17.377   7.436  1.00  0.00     0.003 A 
HETATM   32  C   UNL     1      41.418 -16.793   6.756  1.00  0.00     0.037 A 
ENDBRANCH  26  27
ENDBRANCH  25  26
ENDBRANCH   5  25
TORSDOF 5
ENDMDL
MODEL 5
REMARK VINA RESULT:      -8.3      2.793      5.653
REMARK  5 active torsions:
REMARK  status: ('A' for Active; 'I' for Inactive)
REMARK    1  A    between atoms: C_9  and  N_10 
REMARK       I    between atoms: N_10  and  C_11 
REMARK    2  A    between atoms: C_11  and  C_12 
REMARK    3  A    between atoms: C_16  and  C_17 
REMARK    4  A    between atoms: C_17  and  O_18 
REMARK    5  A    between atoms: O_18  and  C_19 
ROOT
HETATM    1  C   UNL     1      41.991 -17.080   4.437  1.00  0.00     0.153 A 
HETATM    2  O   UNL     1      43.010 -17.711   5.104  1.00  0.00    -0.304 OA
HETATM    3  C   UNL     1      43.509 -18.665   4.273  1.00  0.00     0.087 A 
HETATM    4  C   UNL     1      42.834 -18.649   3.058  1.00  0.00     0.009 A 
HETATM    5  C   UNL     1      41.850 -17.616   3.165  1.00  0.00     0.018 A 
HETATM    6  C   UNL     1      44.547 -19.538   4.583  1.00  0.00     0.038 A 
HETATM    7  C   UNL     1      44.916 -20.448   3.588  1.00  0.00     0.003 A 
HETATM    8  C   UNL     1      44.270 -20.464   2.350  1.00  0.00     0.001 A 
HETATM    9  C   UNL     1      43.228 -19.569   2.067  1.00  0.00     0.015 A 
ENDROOT
BRANCH   1  10
HETATM   10  C   UNL     1      41.264 -16.030   5.132  1.00  0.00     0.280 C 
HETATM   11  N   UNL     1      41.478 -14.780   4.572  1.00  0.00    -0.321 N 
HETATM   12  H   UNL     1      42.072 -14.791   3.747  1.00  0.00     0.169 HD
HETATM   13  O   UNL     1      40.555 -16.246   6.109  1.00  0.00    -0.265 OA
BRANCH  11  14
HETATM   14  C   UNL     1      40.993 -13.535   5.008  1.00  0.00     0.035 A 
HETATM   15  C   UNL     1      41.652 -12.733   5.944  1.00  0.00     0.039 A 
HETATM   16  C   UNL     1      41.104 -11.502   6.276  1.00  0.00    -0.022 A 
HETATM   17  C   UNL     1      41.665 -10.477   7.199  1.00  0.00     0.274 C 
HETATM   18  C   UNL     1      39.913 -11.058   5.704  1.00  0.00    -0.025 A 
HETATM   19  N   UNL     1      40.596  -9.391   7.282  1.00  0.00    -0.067 N 
HETATM   20  C   UNL     1      41.136  -8.005   7.242  1.00  0.00     0.270 C 
HETATM   21  H   UNL     1      40.117  -9.534   8.178  1.00  0.00     0.280 HD
HETATM   22  C   UNL     1      39.570  -9.695   6.194  1.00  0.00     0.273 C 
HETATM   23  C   UNL     1      39.238 -11.841   4.784  1.00  0.00     0.012 A 
HETATM   24  C   UNL     1      39.787 -13.081   4.438  1.00  0.00     0.030 A 
ENDBRANCH  11  14
ENDBRANCH   1  10
BRANCH   5  25
HETATM   25  C   UNL     1      40.883 -17.182   2.114  1.00  0.00     0.218 C 
BRANCH  25  26
HETATM   26  O   UNL     1      41.144 -15.825   1.750  1.00  0.00    -0.347 OA
BRANCH  26  27
HETATM   27  C   UNL     1      40.101 -15.099   1.247  1.00  0.00     0.069 A 
HETATM   28  C   UNL     1      40.409 -14.358   0.102  1.00  0.00     0.037 A 
HETATM   29  C   UNL     1      39.436 -13.574  -0.523  1.00  0.00     0.003 A 
HETATM   30  C   UNL     1      38.146 -13.529  -0.004  1.00  0.00     0.000 A 
HETATM   31  C   UNL     1      37.831 -14.263   1.138  1.00  0.00     0.003 A 
HETATM   32  C   UNL     1      38.806 -15.047   1.765  1.00  0.00     0.037 A 
ENDBRANCH  26  27
ENDBRANCH  25  26
ENDBRANCH   5  25
TORSDOF 5
ENDMDL
MODEL 6
REMARK VINA RESULT:      -8.3      1.829      2.845
REMARK  5 active torsions:
REMARK  status: ('A' for Active; 'I' for Inactive)
REMARK    1  A    between atoms: C_9  and  N_10 
REMARK       I    between atoms: N_10  and  C_11 
REMARK    2  A    between atoms: C_11  and  C_12 
REMARK    3  A    between atoms: C_16  and  C_17 
REMARK    4  A    between atoms: C_17  and  O_18 
REMARK    5  A    between atoms: O_18  and  C_19 
ROOT
HETATM    1  C   UNL     1      41.948 -17.561   2.220  1.00  0.00     0.153 A 
HETATM    2  O   UNL     1      42.816 -18.450   1.640  1.00  0.00    -0.304 OA
HETATM    3  C   UNL     1      43.475 -19.087   2.645  1.00  0.00     0.087 A 
HETATM    4  C   UNL     1      43.029 -18.633   3.880  1.00  0.00     0.009 A 
HETATM    5  C   UNL     1      42.034 -17.644   3.603  1.00  0.00     0.018 A 
HETATM    6  C   UNL     1      44.459 -20.057   2.472  1.00  0.00     0.038 A 
HETATM    7  C   UNL     1      45.016 -20.594   3.636  1.00  0.00     0.003 A 
HETATM    8  C   UNL     1      44.594 -20.172   4.899  1.00  0.00     0.001 A 
HETATM    9  C   UNL     1      43.599 -19.194   5.039  1.00  0.00     0.015 A 
ENDROOT
BRANCH   1  10
HETATM   10  C   UNL     1      41.140 -16.723   1.348  1.00  0.00     0.280 C 
HETATM   11  N   UNL     1      41.884 -16.151   0.328  1.00  0.00    -0.321 N 
HETATM   12  H   UNL     1      42.860 -16.430   0.319  1.00  0.00     0.169 HD
HETATM   13  O   UNL     1      39.939 -16.546   1.522  1.00  0.00    -0.265 OA
BRANCH  11  14
HETATM   14  C   UNL     1      41.457 -15.245  -0.659  1.00  0.00     0.035 A 
HETATM   15  C   UNL     1      41.402 -13.862  -0.466  1.00  0.00     0.039 A 
HETATM   16  C   UNL     1      41.002 -13.054  -1.522  1.00  0.00    -0.022 A 
HETATM   17  C   UNL     1      40.926 -11.567  -1.549  1.00  0.00     0.274 C 
HETATM   18  C   UNL     1      40.648 -13.594  -2.758  1.00  0.00    -0.025 A 
HETATM   19  N   UNL     1      40.312 -11.228  -2.905  1.00  0.00    -0.067 N 
HETATM   20  C   UNL     1      40.955 -10.073  -3.589  1.00  0.00     0.270 C 
HETATM   21  H   UNL     1      39.329 -10.998  -2.721  1.00  0.00     0.280 HD
HETATM   22  C   UNL     1      40.304 -12.515  -3.723  1.00  0.00     0.273 C 
HETATM   23  C   UNL     1      40.685 -14.961  -2.966  1.00  0.00     0.012 A 
HETATM   24  C   UNL     1      41.094 -15.784  -1.909  1.00  0.00     0.030 A 
ENDBRANCH  11  14
ENDBRANCH   1  10
BRANCH   5  25
HETATM   25  C   UNL     1      41.229 -16.873   4.596  1.00  0.00     0.218 C 
BRANCH  25  26
HETATM   26  O   UNL     1      41.623 -15.500   4.574  1.00  0.00    -0.347 OA
BRANCH  26  27
HETATM   27  C   UNL     1      42.678 -15.137   5.362  1.00  0.00     0.069 A 
HETATM   28  C   UNL     1      42.842 -15.918   6.509  1.00  0.00     0.037 A 
HETATM   29  C   UNL     1      43.885 -15.664   7.403  1.00  0.00     0.003 A 
HETATM   30  C   UNL     1      44.773 -14.623   7.151  1.00  0.00     0.000 A 
HETATM   31  C   UNL     1      44.615 -13.837   6.011  1.00  0.00     0.003 A 
HETATM   32  C   UNL     1      43.569 -14.091   5.117  1.00  0.00     0.037 A 
ENDBRANCH  26  27
ENDBRANCH  25  26
ENDBRANCH   5  25
TORSDOF 5
ENDMDL
MODEL 7
REMARK VINA RESULT:      -8.2      2.136      7.564
REMARK  5 active torsions:
REMARK  status: ('A' for Active; 'I' for Inactive)
REMARK    1  A    between atoms: C_9  and  N_10 
REMARK       I    between atoms: N_10  and  C_11 
REMARK    2  A    between atoms: C_11  and  C_12 
REMARK    3  A    between atoms: C_16  and  C_17 
REMARK    4  A    between atoms: C_17  and  O_18 
REMARK    5  A    between atoms: O_18  and  C_19 
ROOT
HETATM    1  C   UNL     1      41.297 -15.502   0.313  1.00  0.00     0.153 A 
HETATM    2  O   UNL     1      41.183 -15.932  -0.984  1.00  0.00    -0.304 OA
HETATM    3  C   UNL     1      41.136 -14.827  -1.775  1.00  0.00     0.087 A 
HETATM    4  C   UNL     1      41.237 -13.676  -1.003  1.00  0.00     0.009 A 
HETATM    5  C   UNL     1      41.345 -14.115   0.353  1.00  0.00     0.018 A 
HETATM    6  C   UNL     1      41.005 -14.835  -3.161  1.00  0.00     0.038 A 
HETATM    7  C   UNL     1      40.979 -13.588  -3.793  1.00  0.00     0.003 A 
HETATM    8  C   UNL     1      41.083 -12.405  -3.058  1.00  0.00     0.001 A 
HETATM    9  C   UNL     1      41.217 -12.431  -1.662  1.00  0.00     0.015 A 
ENDROOT
BRANCH   1  10
HETATM   10  C   UNL     1      41.333 -16.504   1.367  1.00  0.00     0.280 C 
HETATM   11  N   UNL     1      42.625 -16.795   1.775  1.00  0.00    -0.321 N 
HETATM   12  H   UNL     1      43.341 -16.244   1.310  1.00  0.00     0.169 HD
HETATM   13  O   UNL     1      40.321 -17.027   1.821  1.00  0.00    -0.265 OA
BRANCH  11  14
HETATM   14  C   UNL     1      43.047 -17.745   2.720  1.00  0.00     0.035 A 
HETATM   15  C   UNL     1      43.443 -19.044   2.388  1.00  0.00     0.039 A 
HETATM   16  C   UNL     1      43.879 -19.891   3.397  1.00  0.00    -0.022 A 
HETATM   17  C   UNL     1      44.392 -21.281   3.257  1.00  0.00     0.274 C 
HETATM   18  C   UNL     1      43.920 -19.476   4.727  1.00  0.00    -0.025 A 
HETATM   19  N   UNL     1      44.606 -21.770   4.687  1.00  0.00    -0.067 N 
HETATM   20  C   UNL     1      45.866 -22.538   4.883  1.00  0.00     0.270 C 
HETATM   21  H   UNL     1      43.809 -22.381   4.899  1.00  0.00     0.280 HD
HETATM   22  C   UNL     1      44.466 -20.554   5.597  1.00  0.00     0.273 C 
HETATM   23  C   UNL     1      43.522 -18.199   5.080  1.00  0.00     0.012 A 
HETATM   24  C   UNL     1      43.087 -17.335   4.068  1.00  0.00     0.030 A 
ENDBRANCH  11  14
ENDBRANCH   1  10
BRANCH   5  25
HETATM   25  C   UNL     1      41.505 -13.262   1.567  1.00  0.00     0.218 C 
BRANCH  25  26
HETATM   26  O   UNL     1      42.802 -13.462   2.131  1.00  0.00    -0.347 OA
BRANCH  26  27
HETATM   27  C   UNL     1      42.870 -13.722   3.470  1.00  0.00     0.069 A 
HETATM   28  C   UNL     1      41.632 -13.923   4.087  1.00  0.00     0.037 A 
HETATM   29  C   UNL     1      41.553 -14.205   5.452  1.00  0.00     0.003 A 
HETATM   30  C   UNL     1      42.717 -14.289   6.211  1.00  0.00     0.000 A 
HETATM   31  C   UNL     1      43.955 -14.087   5.604  1.00  0.00     0.003 A 
HETATM   32  C   UNL     1      44.034 -13.803   4.237  1.00  0.00     0.037 A 
ENDBRANCH  26  27
ENDBRANCH  25  26
ENDBRANCH   5  25
TORSDOF 5
ENDMDL
MODEL 8
REMARK VINA RESULT:      -8.1      2.475      7.737
REMARK  5 active torsions:
REMARK  status: ('A' for Active; 'I' for Inactive)
REMARK    1  A    between atoms: C_9  and  N_10 
REMARK       I    between atoms: N_10  and  C_11 
REMARK    2  A    between atoms: C_11  and  C_12 
REMARK    3  A    between atoms: C_16  and  C_17 
REMARK    4  A    between atoms: C_17  and  O_18 
REMARK    5  A    between atoms: O_18  and  C_19 
ROOT
HETATM    1  C   UNL     1      41.808 -14.237   0.927  1.00  0.00     0.153 A 
HETATM    2  O   UNL     1      41.977 -14.050  -0.420  1.00  0.00    -0.304 OA
HETATM    3  C   UNL     1      41.903 -12.714  -0.657  1.00  0.00     0.087 A 
HETATM    4  C   UNL     1      41.705 -12.023   0.532  1.00  0.00     0.009 A 
HETATM    5  C   UNL     1      41.647 -13.013   1.562  1.00  0.00     0.018 A 
HETATM    6  C   UNL     1      42.009 -12.111  -1.908  1.00  0.00     0.038 A 
HETATM    7  C   UNL     1      41.907 -10.718  -1.940  1.00  0.00     0.003 A 
HETATM    8  C   UNL     1      41.713  -9.982  -0.769  1.00  0.00     0.001 A 
HETATM    9  C   UNL     1      41.613 -10.618   0.476  1.00  0.00     0.015 A 
ENDROOT
BRANCH   1  10
HETATM   10  C   UNL     1      41.812 -15.599   1.437  1.00  0.00     0.280 C 
HETATM   11  N   UNL     1      43.081 -16.024   1.799  1.00  0.00    -0.321 N 
HETATM   12  H   UNL     1      43.802 -15.316   1.693  1.00  0.00     0.169 HD
HETATM   13  O   UNL     1      40.797 -16.282   1.518  1.00  0.00    -0.265 OA
BRANCH  11  14
HETATM   14  C   UNL     1      43.476 -17.287   2.271  1.00  0.00     0.035 A 
HETATM   15  C   UNL     1      43.786 -17.550   3.609  1.00  0.00     0.039 A 
HETATM   16  C   UNL     1      44.128 -18.845   3.976  1.00  0.00    -0.022 A 
HETATM   17  C   UNL     1      44.438 -19.350   5.341  1.00  0.00     0.274 C 
HETATM   18  C   UNL     1      44.176 -19.877   3.039  1.00  0.00    -0.025 A 
HETATM   19  N   UNL     1      44.861 -20.803   5.139  1.00  0.00    -0.067 N 
HETATM   20  C   UNL     1      44.307 -21.741   6.153  1.00  0.00     0.270 C 
HETATM   21  H   UNL     1      45.885 -20.810   5.205  1.00  0.00     0.280 HD
HETATM   22  C   UNL     1      44.522 -21.167   3.697  1.00  0.00     0.273 C 
HETATM   23  C   UNL     1      43.883 -19.636   1.709  1.00  0.00     0.012 A 
HETATM   24  C   UNL     1      43.531 -18.335   1.331  1.00  0.00     0.030 A 
ENDBRANCH  11  14
ENDBRANCH   1  10
BRANCH   5  25
HETATM   25  C   UNL     1      41.474 -12.782   3.026  1.00  0.00     0.218 C 
BRANCH  25  26
HETATM   26  O   UNL     1      42.727 -12.947   3.692  1.00  0.00    -0.347 OA
BRANCH  26  27
HETATM   27  C   UNL     1      42.794 -13.891   4.677  1.00  0.00     0.069 A 
HETATM   28  C   UNL     1      41.611 -14.607   4.877  1.00  0.00     0.037 A 
HETATM   29  C   UNL     1      41.538 -15.608   5.848  1.00  0.00     0.003 A 
HETATM   30  C   UNL     1      42.654 -15.899   6.627  1.00  0.00     0.000 A 
HETATM   31  C   UNL     1      43.837 -15.188   6.436  1.00  0.00     0.003 A 
HETATM   32  C   UNL     1      43.909 -14.184   5.464  1.00  0.00     0.037 A 
ENDBRANCH  26  27
ENDBRANCH  25  26
ENDBRANCH   5  25
TORSDOF 5
ENDMDL
MODEL 9
REMARK VINA RESULT:      -8.1      1.618      4.641
REMARK  5 active torsions:
REMARK  status: ('A' for Active; 'I' for Inactive)
REMARK    1  A    between atoms: C_9  and  N_10 
REMARK       I    between atoms: N_10  and  C_11 
REMARK    2  A    between atoms: C_11  and  C_12 
REMARK    3  A    between atoms: C_16  and  C_17 
REMARK    4  A    between atoms: C_17  and  O_18 
REMARK    5  A    between atoms: O_18  and  C_19 
ROOT
HETATM    1  C   UNL     1      42.418 -15.756   4.461  1.00  0.00     0.153 A 
HETATM    2  O   UNL     1      42.718 -15.311   5.723  1.00  0.00    -0.304 OA
HETATM    3  C   UNL     1      43.054 -16.399   6.466  1.00  0.00     0.087 A 
HETATM    4  C   UNL     1      42.994 -17.551   5.692  1.00  0.00     0.009 A 
HETATM    5  C   UNL     1      42.584 -17.132   4.388  1.00  0.00     0.018 A 
HETATM    6  C   UNL     1      43.411 -16.373   7.812  1.00  0.00     0.038 A 
HETATM    7  C   UNL     1      43.725 -17.603   8.398  1.00  0.00     0.003 A 
HETATM    8  C   UNL     1      43.683 -18.786   7.656  1.00  0.00     0.001 A 
HETATM    9  C   UNL     1      43.323 -18.778   6.301  1.00  0.00     0.015 A 
ENDROOT
BRANCH   1  10
HETATM   10  C   UNL     1      41.990 -14.778   3.473  1.00  0.00     0.280 C 
HETATM   11  N   UNL     1      40.734 -15.061   2.960  1.00  0.00    -0.321 N 
HETATM   12  H   UNL     1      40.289 -15.875   3.374  1.00  0.00     0.169 HD
HETATM   13  O   UNL     1      42.685 -13.825   3.137  1.00  0.00    -0.265 OA
BRANCH  11  14
HETATM   14  C   UNL     1      40.029 -14.378   1.953  1.00  0.00     0.035 A 
HETATM   15  C   UNL     1      40.176 -14.646   0.589  1.00  0.00     0.039 A 
HETATM   16  C   UNL     1      39.403 -13.938  -0.320  1.00  0.00    -0.022 A 
HETATM   17  C   UNL     1      39.361 -14.103  -1.799  1.00  0.00     0.274 C 
HETATM   18  C   UNL     1      38.496 -12.964   0.099  1.00  0.00    -0.025 A 
HETATM   19  N   UNL     1      38.439 -12.991  -2.295  1.00  0.00    -0.067 N 
HETATM   20  C   UNL     1      37.493 -13.420  -3.361  1.00  0.00     0.270 C 
HETATM   21  H   UNL     1      39.054 -12.261  -2.672  1.00  0.00     0.280 HD
HETATM   22  C   UNL     1      37.766 -12.391  -1.065  1.00  0.00     0.273 C 
HETATM   23  C   UNL     1      38.344 -12.675   1.443  1.00  0.00     0.012 A 
HETATM   24  C   UNL     1      39.115 -13.389   2.368  1.00  0.00     0.030 A 
ENDBRANCH  11  14
ENDBRANCH   1  10
BRANCH   5  25
HETATM   25  C   UNL     1      42.396 -17.992   3.183  1.00  0.00     0.218 C 
BRANCH  25  26
HETATM   26  O   UNL     1      43.668 -18.409   2.684  1.00  0.00    -0.347 OA
BRANCH  26  27
HETATM   27  C   UNL     1      43.995 -19.728   2.824  1.00  0.00     0.069 A 
HETATM   28  C   UNL     1      43.531 -20.553   1.795  1.00  0.00     0.037 A 
HETATM   29  C   UNL     1      43.798 -21.924   1.805  1.00  0.00     0.003 A 
HETATM   30  C   UNL     1      44.534 -22.478   2.848  1.00  0.00     0.000 A 
HETATM   31  C   UNL     1      44.998 -21.663   3.879  1.00  0.00     0.003 A 
HETATM   32  C   UNL     1      44.729 -20.290   3.869  1.00  0.00     0.037 A 
ENDBRANCH  26  27
ENDBRANCH  25  26
ENDBRANCH   5  25
TORSDOF 5
ENDMDL
MODEL 10
REMARK VINA RESULT:      -8.1      2.694      5.253
REMARK  5 active torsions:
REMARK  status: ('A' for Active; 'I' for Inactive)
REMARK    1  A    between atoms: C_9  and  N_10 
REMARK       I    between atoms: N_10  and  C_11 
REMARK    2  A    between atoms: C_11  and  C_12 
REMARK    3  A    between atoms: C_16  and  C_17 
REMARK    4  A    between atoms: C_17  and  O_18 
REMARK    5  A    between atoms: O_18  and  C_19 
ROOT
HETATM    1  C   UNL     1      42.033 -16.907   4.255  1.00  0.00     0.153 A 
HETATM    2  O   UNL     1      43.014 -17.520   4.991  1.00  0.00    -0.304 OA
HETATM    3  C   UNL     1      43.490 -18.554   4.249  1.00  0.00     0.087 A 
HETATM    4  C   UNL     1      42.840 -18.611   3.023  1.00  0.00     0.009 A 
HETATM    5  C   UNL     1      41.895 -17.537   3.026  1.00  0.00     0.018 A 
HETATM    6  C   UNL     1      44.489 -19.438   4.650  1.00  0.00     0.038 A 
HETATM    7  C   UNL     1      44.840 -20.438   3.739  1.00  0.00     0.003 A 
HETATM    8  C   UNL     1      44.217 -20.529   2.492  1.00  0.00     0.001 A 
HETATM    9  C   UNL     1      43.217 -19.621   2.117  1.00  0.00     0.015 A 
ENDROOT
BRANCH   1  10
HETATM   10  C   UNL     1      41.334 -15.778   4.848  1.00  0.00     0.280 C 
HETATM   11  N   UNL     1      41.680 -14.573   4.257  1.00  0.00    -0.321 N 
HETATM   12  H   UNL     1      42.331 -14.662   3.482  1.00  0.00     0.169 HD
HETATM   13  O   UNL     1      40.540 -15.900   5.775  1.00  0.00    -0.265 OA
BRANCH  11  14
HETATM   14  C   UNL     1      41.256 -13.278   4.603  1.00  0.00     0.035 A 
HETATM   15  C   UNL     1      40.310 -12.554   3.873  1.00  0.00     0.039 A 
HETATM   16  C   UNL     1      39.933 -11.296   4.325  1.00  0.00    -0.022 A 
HETATM   17  C   UNL     1      38.913 -10.387   3.735  1.00  0.00     0.274 C 
HETATM   18  C   UNL     1      40.483 -10.745   5.482  1.00  0.00    -0.025 A 
HETATM   19  N   UNL     1      39.000  -9.106   4.560  1.00  0.00    -0.067 N 
HETATM   20  C   UNL     1      37.678  -8.513   4.900  1.00  0.00     0.270 C 
HETATM   21  H   UNL     1      39.526  -8.436   3.987  1.00  0.00     0.280 HD
HETATM   22  C   UNL     1      39.878  -9.415   5.768  1.00  0.00     0.273 C 
HETATM   23  C   UNL     1      41.428 -11.441   6.214  1.00  0.00     0.012 A 
HETATM   24  C   UNL     1      41.810 -12.712   5.769  1.00  0.00     0.030 A 
ENDBRANCH  11  14
ENDBRANCH   1  10
BRANCH   5  25
HETATM   25  C   UNL     1      40.965 -17.153   1.923  1.00  0.00     0.218 C 
BRANCH  25  26
HETATM   26  O   UNL     1      41.294 -15.846   1.448  1.00  0.00    -0.347 OA
BRANCH  26  27
HETATM   27  C   UNL     1      40.281 -15.098   0.918  1.00  0.00     0.069 A 
HETATM   28  C   UNL     1      39.095 -15.118   1.657  1.00  0.00     0.037 A 
HETATM   29  C   UNL     1      37.979 -14.393   1.235  1.00  0.00     0.003 A 
HETATM   30  C   UNL     1      38.045 -13.639   0.068  1.00  0.00     0.000 A 
HETATM   31  C   UNL     1      39.223 -13.615  -0.677  1.00  0.00     0.003 A 
HETATM   32  C   UNL     1      40.340 -14.343  -0.255  1.00  0.00     0.037 A 
ENDBRANCH  26  27
ENDBRANCH  25  26
ENDBRANCH   5  25
TORSDOF 5
ENDMDL
