MODEL 1
REMARK VINA RESULT:      -7.7      0.000      0.000
REMARK  9 active torsions:
REMARK  status: ('A' for Active; 'I' for Inactive)
REMARK    1  A    between atoms: N_2  and  C_4 
REMARK    2  A    between atoms: C_4  and  C_5 
REMARK    3  A    between atoms: C_6  and  O_7 
REMARK    4  A    between atoms: O_7  and  C_8 
REMARK    5  A    between atoms: C_8  and  C_9 
REMARK       I    between atoms: C_9  and  N_10 
REMARK    6  A    between atoms: N_10  and  C_11 
REMARK    7  A    between atoms: C_11  and  C_12 
REMARK    8  A    between atoms: C_12  and  C_13 
REMARK    9  A    between atoms: C_27  and  C_28 
ROOT
HETATM    1  C   UNL     1      41.250 -13.407   4.500  1.00  0.00     0.002 A 
HETATM    2  C   UNL     1      42.371 -14.152   4.897  1.00  0.00     0.077 A 
HETATM    3  C   UNL     1      43.373 -14.429   3.963  1.00  0.00     0.038 A 
HETATM    4  C   UNL     1      43.275 -13.957   2.647  1.00  0.00     0.017 A 
HETATM    5  C   UNL     1      42.176 -13.196   2.233  1.00  0.00     0.000 A 
HETATM    6  C   UNL     1      41.168 -12.934   3.176  1.00  0.00     0.026 A 
ENDROOT
BRANCH   2   7
HETATM    7  O   UNL     1      42.373 -14.592   6.198  1.00  0.00    -0.342 OA
BRANCH   7   8
HETATM    8  C   UNL     1      43.664 -14.723   6.801  1.00  0.00     0.278 C 
BRANCH   8   9
HETATM    9  C   UNL     1      43.966 -16.145   7.275  1.00  0.00     0.241 C 
HETATM   10  N   UNL     1      44.651 -16.936   6.381  1.00  0.00    -0.359 N 
HETATM   11  H   UNL     1      44.620 -16.681   5.404  1.00  0.00     0.162 HD
HETATM   12  O   UNL     1      43.645 -16.528   8.397  1.00  0.00    -0.271 OA
BRANCH  10  13
HETATM   13  C   UNL     1      44.977 -18.316   6.701  1.00  0.00     0.130 C 
BRANCH  13  14
HETATM   14  C   UNL     1      44.517 -19.295   5.620  1.00  0.00     0.098 C 
BRANCH  14  15
HETATM   15  C   UNL     1      43.518 -18.691   4.682  1.00  0.00     0.106 A 
HETATM   16  N   UNL     1      42.340 -18.160   4.962  1.00  0.00    -0.233 NA
HETATM   17  C   UNL     1      41.873 -17.660   3.765  1.00  0.00     0.087 A 
HETATM   18  C   UNL     1      42.760 -17.934   2.730  1.00  0.00     0.062 A 
HETATM   19  C   UNL     1      40.699 -16.948   3.483  1.00  0.00     0.057 A 
HETATM   20  N   UNL     1      43.785 -18.609   3.334  1.00  0.00    -0.343 N 
HETATM   21  C   UNL     1      42.548 -17.542   1.406  1.00  0.00     0.034 A 
HETATM   22  H   UNL     1      44.620 -18.950   2.875  1.00  0.00     0.167 HD
HETATM   23  C   UNL     1      41.372 -16.832   1.143  1.00  0.00     0.026 A 
HETATM   24  C   UNL     1      40.468 -16.542   2.164  1.00  0.00     0.036 A 
HETATM   25 CL   UNL     1      39.032 -15.662   1.806  1.00  0.00    -0.084 Cl
ENDBRANCH  14  15
ENDBRANCH  13  14
ENDBRANCH  10  13
ENDBRANCH   8   9
ENDBRANCH   7   8
ENDBRANCH   2   7
BRANCH   1  26
HETATM   26  C   UNL     1      40.117 -13.139   5.456  1.00  0.00     0.275 C 
BRANCH  26  27
HETATM   27  N   UNL     1      40.550 -12.327   6.656  1.00  0.00    -0.075 N 
HETATM   28  C   UNL     1      39.438 -12.078   7.633  1.00  0.00     0.269 C 
HETATM   29  H   UNL     1      41.255 -12.904   7.135  1.00  0.00     0.279 HD
HETATM   30  C   UNL     1      41.233 -11.059   6.249  1.00  0.00     0.269 C 
ENDBRANCH  26  27
ENDBRANCH   1  26
BRANCH   5  31
HETATM   31  C   UNL     1      42.007 -12.689   0.858  1.00  0.00     0.109 A 
HETATM   32  S   UNL     1      40.818 -13.330  -0.206  1.00  0.00    -0.068 SA
HETATM   33  C   UNL     1      41.340 -12.267  -1.452  1.00  0.00     0.035 A 
HETATM   34  C   UNL     1      42.394 -11.491  -0.971  1.00  0.00     0.075 A 
HETATM   35  C   UNL     1      40.851 -12.129  -2.761  1.00  0.00     0.021 A 
HETATM   36  N   UNL     1      42.768 -11.745   0.340  1.00  0.00    -0.240 NA
HETATM   37  C   UNL     1      42.982 -10.540  -1.830  1.00  0.00     0.033 A 
HETATM   38  C   UNL     1      42.504 -10.394  -3.136  1.00  0.00     0.002 A 
HETATM   39  C   UNL     1      41.452 -11.180  -3.594  1.00  0.00     0.002 A 
ENDBRANCH   5  31
TORSDOF 9
ENDMDL
MODEL 2
REMARK VINA RESULT:      -7.7      3.098      7.615
REMARK  9 active torsions:
REMARK  status: ('A' for Active; 'I' for Inactive)
REMARK    1  A    between atoms: N_2  and  C_4 
REMARK    2  A    between atoms: C_4  and  C_5 
REMARK    3  A    between atoms: C_6  and  O_7 
REMARK    4  A    between atoms: O_7  and  C_8 
REMARK    5  A    between atoms: C_8  and  C_9 
REMARK       I    between atoms: C_9  and  N_10 
REMARK    6  A    between atoms: N_10  and  C_11 
REMARK    7  A    between atoms: C_11  and  C_12 
REMARK    8  A    between atoms: C_12  and  C_13 
REMARK    9  A    between atoms: C_27  and  C_28 
ROOT
HETATM    1  C   UNL     1      41.600 -15.154   0.513  1.00  0.00     0.002 A 
HETATM    2  C   UNL     1      41.935 -14.012   1.257  1.00  0.00     0.077 A 
HETATM    3  C   UNL     1      42.733 -14.148   2.395  1.00  0.00     0.038 A 
HETATM    4  C   UNL     1      43.212 -15.405   2.788  1.00  0.00     0.017 A 
HETATM    5  C   UNL     1      42.908 -16.556   2.051  1.00  0.00     0.000 A 
HETATM    6  C   UNL     1      42.094 -16.410   0.916  1.00  0.00     0.026 A 
ENDROOT
BRANCH   2   7
HETATM    7  O   UNL     1      41.404 -12.825   0.812  1.00  0.00    -0.342 OA
BRANCH   7   8
HETATM    8  C   UNL     1      41.655 -11.689   1.645  1.00  0.00     0.278 C 
BRANCH   8   9
HETATM    9  C   UNL     1      40.482 -11.345   2.563  1.00  0.00     0.241 C 
HETATM   10  N   UNL     1      40.765 -11.346   3.911  1.00  0.00    -0.359 N 
HETATM   11  H   UNL     1      41.569 -11.869   4.225  1.00  0.00     0.162 HD
HETATM   12  O   UNL     1      39.378 -11.052   2.112  1.00  0.00    -0.271 OA
BRANCH  10  13
HETATM   13  C   UNL     1      39.730 -11.060   4.892  1.00  0.00     0.130 C 
BRANCH  13  14
HETATM   14  C   UNL     1      39.092 -12.327   5.461  1.00  0.00     0.098 C 
BRANCH  14  15
HETATM   15  C   UNL     1      40.076 -13.444   5.628  1.00  0.00     0.106 A 
HETATM   16  N   UNL     1      41.381 -13.369   5.827  1.00  0.00    -0.233 NA
HETATM   17  C   UNL     1      41.795 -14.670   6.017  1.00  0.00     0.087 A 
HETATM   18  C   UNL     1      40.732 -15.556   5.885  1.00  0.00     0.062 A 
HETATM   19  C   UNL     1      43.068 -15.176   6.319  1.00  0.00     0.057 A 
HETATM   20  N   UNL     1      39.656 -14.754   5.616  1.00  0.00    -0.343 N 
HETATM   21  C   UNL     1      40.855 -16.940   6.030  1.00  0.00     0.034 A 
HETATM   22  H   UNL     1      38.705 -15.069   5.476  1.00  0.00     0.167 HD
HETATM   23  C   UNL     1      42.132 -17.427   6.331  1.00  0.00     0.026 A 
HETATM   24  C   UNL     1      43.214 -16.559   6.472  1.00  0.00     0.036 A 
HETATM   25 CL   UNL     1      44.771 -17.193   6.849  1.00  0.00    -0.084 Cl
ENDBRANCH  14  15
ENDBRANCH  13  14
ENDBRANCH  10  13
ENDBRANCH   8   9
ENDBRANCH   7   8
ENDBRANCH   2   7
BRANCH   1  26
HETATM   26  C   UNL     1      40.690 -15.062  -0.684  1.00  0.00     0.275 C 
BRANCH  26  27
HETATM   27  N   UNL     1      41.449 -15.079  -1.993  1.00  0.00    -0.075 N 
HETATM   28  C   UNL     1      41.840 -13.710  -2.466  1.00  0.00     0.269 C 
HETATM   29  H   UNL     1      42.318 -15.595  -1.796  1.00  0.00     0.279 HD
HETATM   30  C   UNL     1      40.716 -15.849  -3.046  1.00  0.00     0.269 C 
ENDBRANCH  26  27
ENDBRANCH   1  26
BRANCH   5  31
HETATM   31  C   UNL     1      43.365 -17.908   2.425  1.00  0.00     0.109 A 
HETATM   32  S   UNL     1      43.150 -19.259   1.384  1.00  0.00    -0.068 SA
HETATM   33  C   UNL     1      43.876 -20.291   2.551  1.00  0.00     0.035 A 
HETATM   34  C   UNL     1      44.234 -19.532   3.665  1.00  0.00     0.075 A 
HETATM   35  C   UNL     1      44.111 -21.674   2.487  1.00  0.00     0.021 A 
HETATM   36  N   UNL     1      43.932 -18.180   3.583  1.00  0.00    -0.240 NA
HETATM   37  C   UNL     1      44.853 -20.177   4.754  1.00  0.00     0.033 A 
HETATM   38  C   UNL     1      45.093 -21.554   4.701  1.00  0.00     0.002 A 
HETATM   39  C   UNL     1      44.725 -22.292   3.581  1.00  0.00     0.002 A 
ENDBRANCH   5  31
TORSDOF 9
ENDMDL
MODEL 3
REMARK VINA RESULT:      -7.7      3.368      8.167
REMARK  9 active torsions:
REMARK  status: ('A' for Active; 'I' for Inactive)
REMARK    1  A    between atoms: N_2  and  C_4 
REMARK    2  A    between atoms: C_4  and  C_5 
REMARK    3  A    between atoms: C_6  and  O_7 
REMARK    4  A    between atoms: O_7  and  C_8 
REMARK    5  A    between atoms: C_8  and  C_9 
REMARK       I    between atoms: C_9  and  N_10 
REMARK    6  A    between atoms: N_10  and  C_11 
REMARK    7  A    between atoms: C_11  and  C_12 
REMARK    8  A    between atoms: C_12  and  C_13 
REMARK    9  A    between atoms: C_27  and  C_28 
ROOT
HETATM    1  C   UNL     1      40.986 -14.955  -0.034  1.00  0.00     0.002 A 
HETATM    2  C   UNL     1      39.835 -14.531   0.648  1.00  0.00     0.077 A 
HETATM    3  C   UNL     1      39.457 -15.185   1.823  1.00  0.00     0.038 A 
HETATM    4  C   UNL     1      40.222 -16.242   2.332  1.00  0.00     0.017 A 
HETATM    5  C   UNL     1      41.385 -16.671   1.681  1.00  0.00     0.000 A 
HETATM    6  C   UNL     1      41.749 -16.015   0.492  1.00  0.00     0.026 A 
ENDROOT
BRANCH   2   7
HETATM    7  O   UNL     1      39.134 -13.502   0.067  1.00  0.00    -0.342 OA
BRANCH   7   8
HETATM    8  C   UNL     1      37.844 -13.243   0.628  1.00  0.00     0.278 C 
BRANCH   8   9
HETATM    9  C   UNL     1      37.659 -11.790   1.068  1.00  0.00     0.241 C 
HETATM   10  N   UNL     1      38.821 -11.087   1.294  1.00  0.00    -0.359 N 
HETATM   11  H   UNL     1      39.663 -11.612   1.483  1.00  0.00     0.162 HD
HETATM   12  O   UNL     1      36.543 -11.288   1.172  1.00  0.00    -0.271 OA
BRANCH  10  13
HETATM   13  C   UNL     1      38.783  -9.704   1.742  1.00  0.00     0.130 C 
BRANCH  13  14
HETATM   14  C   UNL     1      39.607  -9.472   3.008  1.00  0.00     0.098 C 
BRANCH  14  15
HETATM   15  C   UNL     1      40.024 -10.751   3.667  1.00  0.00     0.106 A 
HETATM   16  N   UNL     1      39.276 -11.627   4.316  1.00  0.00    -0.233 NA
HETATM   17  C   UNL     1      40.124 -12.667   4.630  1.00  0.00     0.087 A 
HETATM   18  C   UNL     1      41.421 -12.399   4.208  1.00  0.00     0.062 A 
HETATM   19  C   UNL     1      39.857 -13.885   5.271  1.00  0.00     0.057 A 
HETATM   20  N   UNL     1      41.335 -11.166   3.619  1.00  0.00    -0.343 N 
HETATM   21  C   UNL     1      42.491 -13.278   4.388  1.00  0.00     0.034 A 
HETATM   22  H   UNL     1      42.099 -10.666   3.182  1.00  0.00     0.167 HD
HETATM   23  C   UNL     1      42.206 -14.489   5.028  1.00  0.00     0.026 A 
HETATM   24  C   UNL     1      40.913 -14.783   5.459  1.00  0.00     0.036 A 
HETATM   25 CL   UNL     1      40.596 -16.286   6.239  1.00  0.00    -0.084 Cl
ENDBRANCH  14  15
ENDBRANCH  13  14
ENDBRANCH  10  13
ENDBRANCH   8   9
ENDBRANCH   7   8
ENDBRANCH   2   7
BRANCH   1  26
HETATM   26  C   UNL     1      41.394 -14.321  -1.337  1.00  0.00     0.275 C 
BRANCH  26  27
HETATM   27  N   UNL     1      40.380 -14.548  -2.437  1.00  0.00    -0.075 N 
HETATM   28  C   UNL     1      40.497 -15.899  -3.079  1.00  0.00     0.269 C 
HETATM   29  H   UNL     1      39.462 -14.509  -1.972  1.00  0.00     0.279 HD
HETATM   30  C   UNL     1      40.402 -13.443  -3.446  1.00  0.00     0.269 C 
ENDBRANCH  26  27
ENDBRANCH   1  26
BRANCH   5  31
HETATM   31  C   UNL     1      42.220 -17.790   2.155  1.00  0.00     0.109 A 
HETATM   32  S   UNL     1      43.119 -17.697   3.618  1.00  0.00    -0.068 SA
HETATM   33  C   UNL     1      43.742 -19.276   3.352  1.00  0.00     0.035 A 
HETATM   34  C   UNL     1      43.221 -19.773   2.158  1.00  0.00     0.075 A 
HETATM   35  C   UNL     1      44.628 -20.024   4.144  1.00  0.00     0.021 A 
HETATM   36  N   UNL     1      42.363 -18.916   1.484  1.00  0.00    -0.240 NA
HETATM   37  C   UNL     1      43.598 -21.064   1.739  1.00  0.00     0.033 A 
HETATM   38  C   UNL     1      44.480 -21.818   2.519  1.00  0.00     0.002 A 
HETATM   39  C   UNL     1      44.988 -21.302   3.707  1.00  0.00     0.002 A 
ENDBRANCH   5  31
TORSDOF 9
ENDMDL
MODEL 4
REMARK VINA RESULT:      -7.4      4.093      9.263
REMARK  9 active torsions:
REMARK  status: ('A' for Active; 'I' for Inactive)
REMARK    1  A    between atoms: N_2  and  C_4 
REMARK    2  A    between atoms: C_4  and  C_5 
REMARK    3  A    between atoms: C_6  and  O_7 
REMARK    4  A    between atoms: O_7  and  C_8 
REMARK    5  A    between atoms: C_8  and  C_9 
REMARK       I    between atoms: C_9  and  N_10 
REMARK    6  A    between atoms: N_10  and  C_11 
REMARK    7  A    between atoms: C_11  and  C_12 
REMARK    8  A    between atoms: C_12  and  C_13 
REMARK    9  A    between atoms: C_27  and  C_28 
ROOT
HETATM    1  C   UNL     1      42.666 -14.516   3.554  1.00  0.00     0.002 A 
HETATM    2  C   UNL     1      42.809 -13.930   4.822  1.00  0.00     0.077 A 
HETATM    3  C   UNL     1      43.270 -14.708   5.886  1.00  0.00     0.038 A 
HETATM    4  C   UNL     1      43.606 -16.055   5.696  1.00  0.00     0.017 A 
HETATM    5  C   UNL     1      43.490 -16.657   4.438  1.00  0.00     0.000 A 
HETATM    6  C   UNL     1      43.012 -15.869   3.377  1.00  0.00     0.026 A 
ENDROOT
BRANCH   2   7
HETATM    7  O   UNL     1      42.436 -12.611   4.922  1.00  0.00    -0.342 OA
BRANCH   7   8
HETATM    8  C   UNL     1      41.868 -12.227   6.177  1.00  0.00     0.278 C 
BRANCH   8   9
HETATM    9  C   UNL     1      40.622 -11.353   6.031  1.00  0.00     0.241 C 
HETATM   10  N   UNL     1      40.609 -10.206   6.794  1.00  0.00    -0.359 N 
HETATM   11  H   UNL     1      41.208 -10.172   7.606  1.00  0.00     0.162 HD
HETATM   12  O   UNL     1      39.718 -11.648   5.253  1.00  0.00    -0.271 OA
BRANCH  10  13
HETATM   13  C   UNL     1      39.470  -9.303   6.765  1.00  0.00     0.130 C 
BRANCH  13  14
HETATM   14  C   UNL     1      38.696  -9.291   8.084  1.00  0.00     0.098 C 
BRANCH  14  15
HETATM   15  C   UNL     1      39.576  -9.527   9.272  1.00  0.00     0.106 A 
HETATM   16  N   UNL     1      40.646  -8.849   9.652  1.00  0.00    -0.233 NA
HETATM   17  C   UNL     1      41.021  -9.407  10.857  1.00  0.00     0.087 A 
HETATM   18  C   UNL     1      40.194 -10.473  11.191  1.00  0.00     0.062 A 
HETATM   19  C   UNL     1      42.056  -9.049  11.731  1.00  0.00     0.057 A 
HETATM   20  N   UNL     1      39.298 -10.542  10.158  1.00  0.00    -0.343 N 
HETATM   21  C   UNL     1      40.334 -11.224  12.360  1.00  0.00     0.034 A 
HETATM   22  H   UNL     1      38.534 -11.201  10.082  1.00  0.00     0.167 HD
HETATM   23  C   UNL     1      41.372 -10.854  13.222  1.00  0.00     0.026 A 
HETATM   24  C   UNL     1      42.214  -9.786  12.910  1.00  0.00     0.036 A 
HETATM   25 CL   UNL     1      43.478  -9.354  13.997  1.00  0.00    -0.084 Cl
ENDBRANCH  14  15
ENDBRANCH  13  14
ENDBRANCH  10  13
ENDBRANCH   8   9
ENDBRANCH   7   8
ENDBRANCH   2   7
BRANCH   1  26
HETATM   26  C   UNL     1      42.112 -13.733   2.394  1.00  0.00     0.275 C 
BRANCH  26  27
HETATM   27  N   UNL     1      40.725 -13.192   2.668  1.00  0.00    -0.075 N 
HETATM   28  C   UNL     1      39.662 -14.251   2.637  1.00  0.00     0.269 C 
HETATM   29  H   UNL     1      40.762 -12.823   3.628  1.00  0.00     0.279 HD
HETATM   30  C   UNL     1      40.395 -12.039   1.772  1.00  0.00     0.269 C 
ENDBRANCH  26  27
ENDBRANCH   1  26
BRANCH   5  31
HETATM   31  C   UNL     1      43.807 -18.074   4.180  1.00  0.00     0.109 A 
HETATM   32  S   UNL     1      43.807 -18.730   2.590  1.00  0.00    -0.068 SA
HETATM   33  C   UNL     1      44.207 -20.281   3.215  1.00  0.00     0.035 A 
HETATM   34  C   UNL     1      44.312 -20.195   4.603  1.00  0.00     0.075 A 
HETATM   35  C   UNL     1      44.412 -21.487   2.526  1.00  0.00     0.021 A 
HETATM   36  N   UNL     1      44.076 -18.938   5.139  1.00  0.00    -0.240 NA
HETATM   37  C   UNL     1      44.636 -21.358   5.331  1.00  0.00     0.033 A 
HETATM   38  C   UNL     1      44.844 -22.565   4.656  1.00  0.00     0.002 A 
HETATM   39  C   UNL     1      44.731 -22.627   3.271  1.00  0.00     0.002 A 
ENDBRANCH   5  31
TORSDOF 9
ENDMDL
MODEL 5
REMARK VINA RESULT:      -7.4      2.819      7.737
REMARK  9 active torsions:
REMARK  status: ('A' for Active; 'I' for Inactive)
REMARK    1  A    between atoms: N_2  and  C_4 
REMARK    2  A    between atoms: C_4  and  C_5 
REMARK    3  A    between atoms: C_6  and  O_7 
REMARK    4  A    between atoms: O_7  and  C_8 
REMARK    5  A    between atoms: C_8  and  C_9 
REMARK       I    between atoms: C_9  and  N_10 
REMARK    6  A    between atoms: N_10  and  C_11 
REMARK    7  A    between atoms: C_11  and  C_12 
REMARK    8  A    between atoms: C_12  and  C_13 
REMARK    9  A    between atoms: C_27  and  C_28 
ROOT
HETATM    1  C   UNL     1      42.909 -14.448   4.351  1.00  0.00     0.002 A 
HETATM    2  C   UNL     1      42.542 -13.854   3.133  1.00  0.00     0.077 A 
HETATM    3  C   UNL     1      42.536 -14.627   1.969  1.00  0.00     0.038 A 
HETATM    4  C   UNL     1      42.873 -15.986   2.011  1.00  0.00     0.017 A 
HETATM    5  C   UNL     1      43.224 -16.606   3.216  1.00  0.00     0.000 A 
HETATM    6  C   UNL     1      43.240 -15.817   4.378  1.00  0.00     0.026 A 
ENDROOT
BRANCH   2   7
HETATM    7  O   UNL     1      42.248 -12.513   3.182  1.00  0.00    -0.342 OA
BRANCH   7   8
HETATM    8  C   UNL     1      41.004 -12.135   2.586  1.00  0.00     0.278 C 
BRANCH   8   9
HETATM    9  C   UNL     1      41.168 -11.192   1.394  1.00  0.00     0.241 C 
HETATM   10  N   UNL     1      42.426 -11.157   0.834  1.00  0.00    -0.359 N 
HETATM   11  H   UNL     1      43.205 -11.462   1.401  1.00  0.00     0.162 HD
HETATM   12  O   UNL     1      40.223 -10.544   0.953  1.00  0.00    -0.271 OA
BRANCH  10  13
HETATM   13  C   UNL     1      42.721 -10.282  -0.289  1.00  0.00     0.130 C 
BRANCH  13  14
HETATM   14  C   UNL     1      43.119 -11.054  -1.547  1.00  0.00     0.098 C 
BRANCH  14  15
HETATM   15  C   UNL     1      42.101 -12.079  -1.941  1.00  0.00     0.106 A 
HETATM   16  N   UNL     1      40.798 -11.927  -2.103  1.00  0.00    -0.233 NA
HETATM   17  C   UNL     1      40.345 -13.145  -2.566  1.00  0.00     0.087 A 
HETATM   18  C   UNL     1      41.382 -14.067  -2.642  1.00  0.00     0.062 A 
HETATM   19  C   UNL     1      39.057 -13.538  -2.955  1.00  0.00     0.057 A 
HETATM   20  N   UNL     1      42.483 -13.372  -2.219  1.00  0.00    -0.343 N 
HETATM   21  C   UNL     1      41.218 -15.382  -3.083  1.00  0.00     0.034 A 
HETATM   22  H   UNL     1      43.425 -13.736  -2.163  1.00  0.00     0.167 HD
HETATM   23  C   UNL     1      39.926 -15.757  -3.468  1.00  0.00     0.026 A 
HETATM   24  C   UNL     1      38.869 -14.850  -3.403  1.00  0.00     0.036 A 
HETATM   25 CL   UNL     1      37.292 -15.344  -3.889  1.00  0.00    -0.084 Cl
ENDBRANCH  14  15
ENDBRANCH  13  14
ENDBRANCH  10  13
ENDBRANCH   8   9
ENDBRANCH   7   8
ENDBRANCH   2   7
BRANCH   1  26
HETATM   26  C   UNL     1      42.992 -13.638   5.617  1.00  0.00     0.275 C 
BRANCH  26  27
HETATM   27  N   UNL     1      41.644 -13.456   6.279  1.00  0.00    -0.075 N 
HETATM   28  C   UNL     1      40.578 -14.340   5.701  1.00  0.00     0.269 C 
HETATM   29  H   UNL     1      41.781 -13.742   7.258  1.00  0.00     0.279 HD
HETATM   30  C   UNL     1      41.229 -12.018   6.302  1.00  0.00     0.269 C 
ENDBRANCH  26  27
ENDBRANCH   1  26
BRANCH   5  31
HETATM   31  C   UNL     1      43.609 -18.027   3.320  1.00  0.00     0.109 A 
HETATM   32  S   UNL     1      43.559 -19.083   1.965  1.00  0.00    -0.068 SA
HETATM   33  C   UNL     1      44.083 -20.392   2.948  1.00  0.00     0.035 A 
HETATM   34  C   UNL     1      44.260 -19.934   4.253  1.00  0.00     0.075 A 
HETATM   35  C   UNL     1      44.320 -21.729   2.591  1.00  0.00     0.021 A 
HETATM   36  N   UNL     1      43.981 -18.590   4.453  1.00  0.00    -0.240 NA
HETATM   37  C   UNL     1      44.692 -20.844   5.238  1.00  0.00     0.033 A 
HETATM   38  C   UNL     1      44.932 -22.179   4.894  1.00  0.00     0.002 A 
HETATM   39  C   UNL     1      44.746 -22.614   3.586  1.00  0.00     0.002 A 
ENDBRANCH   5  31
TORSDOF 9
ENDMDL
MODEL 6
REMARK VINA RESULT:      -7.3      4.341      9.034
REMARK  9 active torsions:
REMARK  status: ('A' for Active; 'I' for Inactive)
REMARK    1  A    between atoms: N_2  and  C_4 
REMARK    2  A    between atoms: C_4  and  C_5 
REMARK    3  A    between atoms: C_6  and  O_7 
REMARK    4  A    between atoms: O_7  and  C_8 
REMARK    5  A    between atoms: C_8  and  C_9 
REMARK       I    between atoms: C_9  and  N_10 
REMARK    6  A    between atoms: N_10  and  C_11 
REMARK    7  A    between atoms: C_11  and  C_12 
REMARK    8  A    between atoms: C_12  and  C_13 
REMARK    9  A    between atoms: C_27  and  C_28 
ROOT
HETATM    1  C   UNL     1      39.700 -14.781   2.482  1.00  0.00     0.002 A 
HETATM    2  C   UNL     1      39.823 -13.833   3.509  1.00  0.00     0.077 A 
HETATM    3  C   UNL     1      40.736 -14.058   4.542  1.00  0.00     0.038 A 
HETATM    4  C   UNL     1      41.538 -15.207   4.551  1.00  0.00     0.017 A 
HETATM    5  C   UNL     1      41.448 -16.158   3.528  1.00  0.00     0.000 A 
HETATM    6  C   UNL     1      40.516 -15.929   2.501  1.00  0.00     0.026 A 
ENDROOT
BRANCH   2   7
HETATM    7  O   UNL     1      38.983 -12.748   3.431  1.00  0.00    -0.342 OA
BRANCH   7   8
HETATM    8  C   UNL     1      39.601 -11.475   3.640  1.00  0.00     0.278 C 
BRANCH   8   9
HETATM    9  C   UNL     1      39.099 -10.760   4.894  1.00  0.00     0.241 C 
HETATM   10  N   UNL     1      39.962 -10.769   5.968  1.00  0.00    -0.359 N 
HETATM   11  H   UNL     1      40.675 -11.484   5.995  1.00  0.00     0.162 HD
HETATM   12  O   UNL     1      38.013 -10.187   4.915  1.00  0.00    -0.271 OA
BRANCH  10  13
HETATM   13  C   UNL     1      39.593 -10.146   7.229  1.00  0.00     0.130 C 
BRANCH  13  14
HETATM   14  C   UNL     1      39.321 -11.168   8.333  1.00  0.00     0.098 C 
BRANCH  14  15
HETATM   15  C   UNL     1      40.098 -10.889   9.582  1.00  0.00     0.106 A 
HETATM   16  N   UNL     1      39.646 -10.517  10.768  1.00  0.00    -0.233 NA
HETATM   17  C   UNL     1      40.754 -10.498  11.589  1.00  0.00     0.087 A 
HETATM   18  C   UNL     1      41.906 -10.817  10.879  1.00  0.00     0.062 A 
HETATM   19  C   UNL     1      40.854 -10.226  12.960  1.00  0.00     0.057 A 
HETATM   20  N   UNL     1      41.466 -11.039   9.603  1.00  0.00    -0.343 N 
HETATM   21  C   UNL     1      43.178 -10.879  11.455  1.00  0.00     0.034 A 
HETATM   22  H   UNL     1      42.043 -11.312   8.818  1.00  0.00     0.167 HD
HETATM   23  C   UNL     1      43.259 -10.606  12.824  1.00  0.00     0.026 A 
HETATM   24  C   UNL     1      42.117 -10.286  13.559  1.00  0.00     0.036 A 
HETATM   25 CL   UNL     1      42.253  -9.959  15.245  1.00  0.00    -0.084 Cl
ENDBRANCH  14  15
ENDBRANCH  13  14
ENDBRANCH  10  13
ENDBRANCH   8   9
ENDBRANCH   7   8
ENDBRANCH   2   7
BRANCH   1  26
HETATM   26  C   UNL     1      38.684 -14.611   1.384  1.00  0.00     0.275 C 
BRANCH  26  27
HETATM   27  N   UNL     1      39.322 -14.345   0.038  1.00  0.00    -0.075 N 
HETATM   28  C   UNL     1      40.416 -13.320   0.095  1.00  0.00     0.269 C 
HETATM   29  H   UNL     1      39.753 -15.238  -0.239  1.00  0.00     0.279 HD
HETATM   30  C   UNL     1      38.298 -14.017  -1.003  1.00  0.00     0.269 C 
ENDBRANCH  26  27
ENDBRANCH   1  26
BRANCH   5  31
HETATM   31  C   UNL     1      42.249 -17.396   3.493  1.00  0.00     0.109 A 
HETATM   32  S   UNL     1      43.303 -17.833   4.779  1.00  0.00    -0.068 SA
HETATM   33  C   UNL     1      43.782 -19.245   3.925  1.00  0.00     0.035 A 
HETATM   34  C   UNL     1      43.105 -19.289   2.707  1.00  0.00     0.075 A 
HETATM   35  C   UNL     1      44.694 -20.243   4.305  1.00  0.00     0.021 A 
HETATM   36  N   UNL     1      42.241 -18.229   2.471  1.00  0.00    -0.240 NA
HETATM   37  C   UNL     1      43.345 -20.371   1.836  1.00  0.00     0.033 A 
HETATM   38  C   UNL     1      44.250 -21.371   2.204  1.00  0.00     0.002 A 
HETATM   39  C   UNL     1      44.916 -21.306   3.424  1.00  0.00     0.002 A 
ENDBRANCH   5  31
TORSDOF 9
ENDMDL
MODEL 7
REMARK VINA RESULT:      -7.3      2.082      2.550
REMARK  9 active torsions:
REMARK  status: ('A' for Active; 'I' for Inactive)
REMARK    1  A    between atoms: N_2  and  C_4 
REMARK    2  A    between atoms: C_4  and  C_5 
REMARK    3  A    between atoms: C_6  and  O_7 
REMARK    4  A    between atoms: O_7  and  C_8 
REMARK    5  A    between atoms: C_8  and  C_9 
REMARK       I    between atoms: C_9  and  N_10 
REMARK    6  A    between atoms: N_10  and  C_11 
REMARK    7  A    between atoms: C_11  and  C_12 
REMARK    8  A    between atoms: C_12  and  C_13 
REMARK    9  A    between atoms: C_27  and  C_28 
ROOT
HETATM    1  C   UNL     1      40.803 -12.814   3.997  1.00  0.00     0.002 A 
HETATM    2  C   UNL     1      41.586 -13.859   4.514  1.00  0.00     0.077 A 
HETATM    3  C   UNL     1      42.476 -14.528   3.672  1.00  0.00     0.038 A 
HETATM    4  C   UNL     1      42.607 -14.155   2.327  1.00  0.00     0.017 A 
HETATM    5  C   UNL     1      41.852 -13.104   1.793  1.00  0.00     0.000 A 
HETATM    6  C   UNL     1      40.950 -12.447   2.646  1.00  0.00     0.026 A 
ENDROOT
BRANCH   2   7
HETATM    7  O   UNL     1      41.377 -14.170   5.836  1.00  0.00    -0.342 OA
BRANCH   7   8
HETATM    8  C   UNL     1      40.598 -15.347   6.075  1.00  0.00     0.278 C 
BRANCH   8   9
HETATM    9  C   UNL     1      41.439 -16.549   6.503  1.00  0.00     0.241 C 
HETATM   10  N   UNL     1      42.461 -16.275   7.384  1.00  0.00    -0.359 N 
HETATM   11  H   UNL     1      42.802 -15.325   7.432  1.00  0.00     0.162 HD
HETATM   12  O   UNL     1      41.184 -17.684   6.109  1.00  0.00    -0.271 OA
BRANCH  10  13
HETATM   13  C   UNL     1      43.350 -17.327   7.849  1.00  0.00     0.130 C 
BRANCH  13  14
HETATM   14  C   UNL     1      44.665 -17.372   7.071  1.00  0.00     0.098 C 
BRANCH  14  15
HETATM   15  C   UNL     1      44.550 -18.131   5.785  1.00  0.00     0.106 A 
HETATM   16  N   UNL     1      44.894 -19.383   5.533  1.00  0.00    -0.233 NA
HETATM   17  C   UNL     1      44.485 -19.618   4.237  1.00  0.00     0.087 A 
HETATM   18  C   UNL     1      43.926 -18.476   3.676  1.00  0.00     0.062 A 
HETATM   19  C   UNL     1      44.550 -20.790   3.471  1.00  0.00     0.057 A 
HETATM   20  N   UNL     1      43.999 -17.540   4.672  1.00  0.00    -0.343 N 
HETATM   21  C   UNL     1      43.420 -18.421   2.375  1.00  0.00     0.034 A 
HETATM   22  H   UNL     1      43.663 -16.587   4.613  1.00  0.00     0.167 HD
HETATM   23  C   UNL     1      43.492 -19.600   1.625  1.00  0.00     0.026 A 
HETATM   24  C   UNL     1      44.046 -20.760   2.166  1.00  0.00     0.036 A 
HETATM   25 CL   UNL     1      44.114 -22.195   1.216  1.00  0.00    -0.084 Cl
ENDBRANCH  14  15
ENDBRANCH  13  14
ENDBRANCH  10  13
ENDBRANCH   8   9
ENDBRANCH   7   8
ENDBRANCH   2   7
BRANCH   1  26
HETATM   26  C   UNL     1      39.785 -12.109   4.853  1.00  0.00     0.275 C 
BRANCH  26  27
HETATM   27  N   UNL     1      40.415 -11.364   6.010  1.00  0.00    -0.075 N 
HETATM   28  C   UNL     1      39.631 -11.481   7.284  1.00  0.00     0.269 C 
HETATM   29  H   UNL     1      41.323 -11.823   6.167  1.00  0.00     0.279 HD
HETATM   30  C   UNL     1      40.705  -9.939   5.658  1.00  0.00     0.269 C 
ENDBRANCH  26  27
ENDBRANCH   1  26
BRANCH   5  31
HETATM   31  C   UNL     1      41.930 -12.680   0.382  1.00  0.00     0.109 A 
HETATM   32  S   UNL     1      41.390 -13.689  -0.901  1.00  0.00    -0.068 SA
HETATM   33  C   UNL     1      41.861 -12.502  -2.051  1.00  0.00     0.035 A 
HETATM   34  C   UNL     1      42.404 -11.409  -1.376  1.00  0.00     0.075 A 
HETATM   35  C   UNL     1      41.758 -12.534  -3.451  1.00  0.00     0.021 A 
HETATM   36  N   UNL     1      42.444 -11.525   0.006  1.00  0.00    -0.240 NA
HETATM   37  C   UNL     1      42.860 -10.307  -2.127  1.00  0.00     0.033 A 
HETATM   38  C   UNL     1      42.763 -10.328  -3.522  1.00  0.00     0.002 A 
HETATM   39  C   UNL     1      42.219 -11.430  -4.174  1.00  0.00     0.002 A 
ENDBRANCH   5  31
TORSDOF 9
ENDMDL
MODEL 8
REMARK VINA RESULT:      -7.3      4.201      8.625
REMARK  9 active torsions:
REMARK  status: ('A' for Active; 'I' for Inactive)
REMARK    1  A    between atoms: N_2  and  C_4 
REMARK    2  A    between atoms: C_4  and  C_5 
REMARK    3  A    between atoms: C_6  and  O_7 
REMARK    4  A    between atoms: O_7  and  C_8 
REMARK    5  A    between atoms: C_8  and  C_9 
REMARK       I    between atoms: C_9  and  N_10 
REMARK    6  A    between atoms: N_10  and  C_11 
REMARK    7  A    between atoms: C_11  and  C_12 
REMARK    8  A    between atoms: C_12  and  C_13 
REMARK    9  A    between atoms: C_27  and  C_28 
ROOT
HETATM    1  C   UNL     1      43.286 -14.528   5.320  1.00  0.00     0.002 A 
HETATM    2  C   UNL     1      43.661 -14.436   6.669  1.00  0.00     0.077 A 
HETATM    3  C   UNL     1      44.153 -15.570   7.321  1.00  0.00     0.038 A 
HETATM    4  C   UNL     1      44.291 -16.785   6.637  1.00  0.00     0.017 A 
HETATM    5  C   UNL     1      43.942 -16.897   5.286  1.00  0.00     0.000 A 
HETATM    6  C   UNL     1      43.435 -15.754   4.644  1.00  0.00     0.026 A 
ENDROOT
BRANCH   2   7
HETATM    7  O   UNL     1      43.472 -13.213   7.266  1.00  0.00    -0.342 OA
BRANCH   7   8
HETATM    8  C   UNL     1      44.662 -12.556   7.711  1.00  0.00     0.278 C 
BRANCH   8   9
HETATM    9  C   UNL     1      44.801 -12.527   9.233  1.00  0.00     0.241 C 
HETATM   10  N   UNL     1      43.671 -12.151   9.925  1.00  0.00    -0.359 N 
HETATM   11  H   UNL     1      42.969 -11.620   9.430  1.00  0.00     0.162 HD
HETATM   12  O   UNL     1      45.846 -12.856   9.788  1.00  0.00    -0.271 OA
BRANCH  10  13
HETATM   13  C   UNL     1      43.679 -12.058  11.376  1.00  0.00     0.130 C 
BRANCH  13  14
HETATM   14  C   UNL     1      43.498 -10.624  11.874  1.00  0.00     0.098 C 
BRANCH  14  15
HETATM   15  C   UNL     1      42.369  -9.915  11.192  1.00  0.00     0.106 A 
HETATM   16  N   UNL     1      42.260  -9.572   9.920  1.00  0.00    -0.233 NA
HETATM   17  C   UNL     1      40.994  -9.041   9.793  1.00  0.00     0.087 A 
HETATM   18  C   UNL     1      40.339  -9.016  11.019  1.00  0.00     0.062 A 
HETATM   19  C   UNL     1      40.326  -8.566   8.656  1.00  0.00     0.057 A 
HETATM   20  N   UNL     1      41.242  -9.555  11.895  1.00  0.00    -0.343 N 
HETATM   21  C   UNL     1      39.039  -8.535  11.193  1.00  0.00     0.034 A 
HETATM   22  H   UNL     1      41.089  -9.706  12.884  1.00  0.00     0.167 HD
HETATM   23  C   UNL     1      38.387  -8.065  10.048  1.00  0.00     0.026 A 
HETATM   24  C   UNL     1      39.022  -8.082   8.805  1.00  0.00     0.036 A 
HETATM   25 CL   UNL     1      38.187  -7.501   7.415  1.00  0.00    -0.084 Cl
ENDBRANCH  14  15
ENDBRANCH  13  14
ENDBRANCH  10  13
ENDBRANCH   8   9
ENDBRANCH   7   8
ENDBRANCH   2   7
BRANCH   1  26
HETATM   26  C   UNL     1      42.691 -13.349   4.597  1.00  0.00     0.275 C 
BRANCH  26  27
HETATM   27  N   UNL     1      41.351 -12.936   5.165  1.00  0.00    -0.075 N 
HETATM   28  C   UNL     1      40.191 -13.610   4.493  1.00  0.00     0.269 C 
HETATM   29  H   UNL     1      41.362 -13.251   6.145  1.00  0.00     0.279 HD
HETATM   30  C   UNL     1      41.197 -11.447   5.191  1.00  0.00     0.269 C 
ENDBRANCH  26  27
ENDBRANCH   1  26
BRANCH   5  31
HETATM   31  C   UNL     1      44.044 -18.153   4.519  1.00  0.00     0.109 A 
HETATM   32  S   UNL     1      43.583 -18.247   2.865  1.00  0.00    -0.068 SA
HETATM   33  C   UNL     1      43.972 -19.920   2.837  1.00  0.00     0.035 A 
HETATM   34  C   UNL     1      44.428 -20.300   4.099  1.00  0.00     0.075 A 
HETATM   35  C   UNL     1      43.880 -20.834   1.774  1.00  0.00     0.021 A 
HETATM   36  N   UNL     1      44.458 -19.287   5.047  1.00  0.00    -0.240 NA
HETATM   37  C   UNL     1      44.808 -21.641   4.308  1.00  0.00     0.033 A 
HETATM   38  C   UNL     1      44.721 -22.559   3.257  1.00  0.00     0.002 A 
HETATM   39  C   UNL     1      44.261 -22.159   2.007  1.00  0.00     0.002 A 
ENDBRANCH   5  31
TORSDOF 9
ENDMDL
MODEL 9
REMARK VINA RESULT:      -7.2      3.839      7.932
REMARK  9 active torsions:
REMARK  status: ('A' for Active; 'I' for Inactive)
REMARK    1  A    between atoms: N_2  and  C_4 
REMARK    2  A    between atoms: C_4  and  C_5 
REMARK    3  A    between atoms: C_6  and  O_7 
REMARK    4  A    between atoms: O_7  and  C_8 
REMARK    5  A    between atoms: C_8  and  C_9 
REMARK       I    between atoms: C_9  and  N_10 
REMARK    6  A    between atoms: N_10  and  C_11 
REMARK    7  A    between atoms: C_11  and  C_12 
REMARK    8  A    between atoms: C_12  and  C_13 
REMARK    9  A    between atoms: C_27  and  C_28 
ROOT
HETATM    1  C   UNL     1      41.642 -12.452   5.336  1.00  0.00     0.002 A 
HETATM    2  C   UNL     1      41.127 -11.556   4.386  1.00  0.00     0.077 A 
HETATM    3  C   UNL     1      40.858 -10.238   4.764  1.00  0.00     0.038 A 
HETATM    4  C   UNL     1      41.114  -9.802   6.071  1.00  0.00     0.017 A 
HETATM    5  C   UNL     1      41.646 -10.671   7.031  1.00  0.00     0.000 A 
HETATM    6  C   UNL     1      41.900 -11.997   6.644  1.00  0.00     0.026 A 
ENDROOT
BRANCH   2   7
HETATM    7  O   UNL     1      40.886 -12.074   3.137  1.00  0.00    -0.342 OA
BRANCH   7   8
HETATM    8  C   UNL     1      41.051 -11.160   2.049  1.00  0.00     0.278 C 
BRANCH   8   9
HETATM    9  C   UNL     1      41.509 -11.836   0.757  1.00  0.00     0.241 C 
HETATM   10  N   UNL     1      40.556 -12.595   0.115  1.00  0.00    -0.359 N 
HETATM   11  H   UNL     1      39.772 -12.928   0.658  1.00  0.00     0.162 HD
HETATM   12  O   UNL     1      42.643 -11.673   0.314  1.00  0.00    -0.271 OA
BRANCH  10  13
HETATM   13  C   UNL     1      40.871 -13.311  -1.111  1.00  0.00     0.130 C 
BRANCH  13  14
HETATM   14  C   UNL     1      40.432 -14.775  -1.066  1.00  0.00     0.098 C 
BRANCH  14  15
HETATM   15  C   UNL     1      41.108 -15.546   0.025  1.00  0.00     0.106 A 
HETATM   16  N   UNL     1      40.716 -15.720   1.276  1.00  0.00    -0.233 NA
HETATM   17  C   UNL     1      41.633 -16.590   1.827  1.00  0.00     0.087 A 
HETATM   18  C   UNL     1      42.627 -16.913   0.911  1.00  0.00     0.062 A 
HETATM   19  C   UNL     1      41.678 -17.159   3.107  1.00  0.00     0.057 A 
HETATM   20  N   UNL     1      42.283 -16.220  -0.219  1.00  0.00    -0.343 N 
HETATM   21  C   UNL     1      43.687 -17.779   1.191  1.00  0.00     0.034 A 
HETATM   22  H   UNL     1      42.783 -16.237  -1.097  1.00  0.00     0.167 HD
HETATM   23  C   UNL     1      43.716 -18.338   2.473  1.00  0.00     0.026 A 
HETATM   24  C   UNL     1      42.729 -18.032   3.410  1.00  0.00     0.036 A 
HETATM   25 CL   UNL     1      42.794 -18.742   4.978  1.00  0.00    -0.084 Cl
ENDBRANCH  14  15
ENDBRANCH  13  14
ENDBRANCH  10  13
ENDBRANCH   8   9
ENDBRANCH   7   8
ENDBRANCH   2   7
BRANCH   1  26
HETATM   26  C   UNL     1      41.887 -13.896   4.989  1.00  0.00     0.275 C 
BRANCH  26  27
HETATM   27  N   UNL     1      41.915 -14.789   6.210  1.00  0.00    -0.075 N 
HETATM   28  C   UNL     1      43.232 -15.481   6.406  1.00  0.00     0.269 C 
HETATM   29  H   UNL     1      41.779 -14.158   7.012  1.00  0.00     0.279 HD
HETATM   30  C   UNL     1      40.769 -15.752   6.217  1.00  0.00     0.269 C 
ENDBRANCH  26  27
ENDBRANCH   1  26
BRANCH   5  31
HETATM   31  C   UNL     1      41.917 -10.277   8.427  1.00  0.00     0.109 A 
HETATM   32  S   UNL     1      41.049  -9.008   9.197  1.00  0.00    -0.068 SA
HETATM   33  C   UNL     1      41.979  -9.222  10.627  1.00  0.00     0.035 A 
HETATM   34  C   UNL     1      42.896 -10.252  10.420  1.00  0.00     0.075 A 
HETATM   35  C   UNL     1      41.903  -8.528  11.845  1.00  0.00     0.021 A 
HETATM   36  N   UNL     1      42.856 -10.838   9.163  1.00  0.00    -0.240 NA
HETATM   37  C   UNL     1      43.769 -10.603  11.469  1.00  0.00     0.033 A 
HETATM   38  C   UNL     1      43.703  -9.920  12.687  1.00  0.00     0.002 A 
HETATM   39  C   UNL     1      42.780  -8.894  12.871  1.00  0.00     0.002 A 
ENDBRANCH   5  31
TORSDOF 9
ENDMDL
MODEL 10
REMARK VINA RESULT:      -7.0      2.987      7.270
REMARK  9 active torsions:
REMARK  status: ('A' for Active; 'I' for Inactive)
REMARK    1  A    between atoms: N_2  and  C_4 
REMARK    2  A    between atoms: C_4  and  C_5 
REMARK    3  A    between atoms: C_6  and  O_7 
REMARK    4  A    between atoms: O_7  and  C_8 
REMARK    5  A    between atoms: C_8  and  C_9 
REMARK       I    between atoms: C_9  and  N_10 
REMARK    6  A    between atoms: N_10  and  C_11 
REMARK    7  A    between atoms: C_11  and  C_12 
REMARK    8  A    between atoms: C_12  and  C_13 
REMARK    9  A    between atoms: C_27  and  C_28 
ROOT
HETATM    1  C   UNL     1      40.166 -14.280   4.615  1.00  0.00     0.002 A 
HETATM    2  C   UNL     1      39.597 -13.789   3.430  1.00  0.00     0.077 A 
HETATM    3  C   UNL     1      39.845 -14.452   2.226  1.00  0.00     0.038 A 
HETATM    4  C   UNL     1      40.638 -15.607   2.195  1.00  0.00     0.017 A 
HETATM    5  C   UNL     1      41.200 -16.129   3.367  1.00  0.00     0.000 A 
HETATM    6  C   UNL     1      40.955 -15.446   4.570  1.00  0.00     0.026 A 
ENDROOT
BRANCH   2   7
HETATM    7  O   UNL     1      38.853 -12.640   3.550  1.00  0.00    -0.342 OA
BRANCH   7   8
HETATM    8  C   UNL     1      38.790 -11.823   2.377  1.00  0.00     0.278 C 
BRANCH   8   9
HETATM    9  C   UNL     1      40.075 -11.035   2.122  1.00  0.00     0.241 C 
HETATM   10  N   UNL     1      40.250 -10.588   0.831  1.00  0.00    -0.359 N 
HETATM   11  H   UNL     1      39.742 -11.057   0.095  1.00  0.00     0.162 HD
HETATM   12  O   UNL     1      40.869 -10.791   3.027  1.00  0.00    -0.271 OA
BRANCH  10  13
HETATM   13  C   UNL     1      41.443  -9.848   0.452  1.00  0.00     0.130 C 
BRANCH  13  14
HETATM   14  C   UNL     1      42.413 -10.684  -0.384  1.00  0.00     0.098 C 
BRANCH  14  15
HETATM   15  C   UNL     1      41.753 -11.866  -1.023  1.00  0.00     0.106 A 
HETATM   16  N   UNL     1      40.907 -11.889  -2.039  1.00  0.00    -0.233 NA
HETATM   17  C   UNL     1      40.685 -13.226  -2.297  1.00  0.00     0.087 A 
HETATM   18  C   UNL     1      41.369 -14.028  -1.391  1.00  0.00     0.062 A 
HETATM   19  C   UNL     1      39.915 -13.834  -3.298  1.00  0.00     0.057 A 
HETATM   20  N   UNL     1      42.022 -13.141  -0.579  1.00  0.00    -0.343 N 
HETATM   21  C   UNL     1      41.333 -15.425  -1.414  1.00  0.00     0.034 A 
HETATM   22  H   UNL     1      42.634 -13.383   0.189  1.00  0.00     0.167 HD
HETATM   23  C   UNL     1      40.560 -16.015  -2.420  1.00  0.00     0.026 A 
HETATM   24  C   UNL     1      39.867 -15.231  -3.342  1.00  0.00     0.036 A 
HETATM   25 CL   UNL     1      38.929 -15.991  -4.571  1.00  0.00    -0.084 Cl
ENDBRANCH  14  15
ENDBRANCH  13  14
ENDBRANCH  10  13
ENDBRANCH   8   9
ENDBRANCH   7   8
ENDBRANCH   2   7
BRANCH   1  26
HETATM   26  C   UNL     1      39.977 -13.561   5.924  1.00  0.00     0.275 C 
BRANCH  26  27
HETATM   27  N   UNL     1      40.480 -12.134   5.880  1.00  0.00    -0.075 N 
HETATM   28  C   UNL     1      41.948 -12.016   6.168  1.00  0.00     0.269 C 
HETATM   29  H   UNL     1      40.333 -11.824   4.910  1.00  0.00     0.279 HD
HETATM   30  C   UNL     1      39.663 -11.233   6.752  1.00  0.00     0.269 C 
ENDBRANCH  26  27
ENDBRANCH   1  26
BRANCH   5  31
HETATM   31  C   UNL     1      42.059 -17.328   3.396  1.00  0.00     0.109 A 
HETATM   32  S   UNL     1      43.042 -17.708   4.754  1.00  0.00    -0.068 SA
HETATM   33  C   UNL     1      43.644 -19.100   3.945  1.00  0.00     0.035 A 
HETATM   34  C   UNL     1      43.053 -19.182   2.685  1.00  0.00     0.075 A 
HETATM   35  C   UNL     1      44.574 -20.052   4.394  1.00  0.00     0.021 A 
HETATM   36  N   UNL     1      42.159 -18.165   2.382  1.00  0.00    -0.240 NA
HETATM   37  C   UNL     1      43.402 -20.255   1.841  1.00  0.00     0.033 A 
HETATM   38  C   UNL     1      44.327 -21.210   2.277  1.00  0.00     0.002 A 
HETATM   39  C   UNL     1      44.905 -21.107   3.538  1.00  0.00     0.002 A 
ENDBRANCH   5  31
TORSDOF 9
ENDMDL
