MODEL 1
REMARK VINA RESULT:      -8.4      0.000      0.000
REMARK  5 active torsions:
REMARK  status: ('A' for Active; 'I' for Inactive)
REMARK    1  A    between atoms: C_5  and  S_6 
REMARK    2  A    between atoms: S_6  and  C_7 
REMARK    3  A    between atoms: C_7  and  C_8 
REMARK       I    between atoms: C_8  and  N_9 
REMARK    4  A    between atoms: N_9  and  C_10 
REMARK    5  A    between atoms: C_12  and  C_13 
ROOT
HETATM    1  C   UNL     1      41.532 -15.962   4.179  1.00  0.00     0.231 C 
HETATM    2  N   UNL     1      40.719 -16.357   3.132  1.00  0.00    -0.327 N 
HETATM    3  O   UNL     1      41.950 -14.821   4.371  1.00  0.00    -0.272 OA
HETATM    4  H   UNL     1      40.524 -17.354   3.089  1.00  0.00     0.169 HD
ENDROOT
BRANCH   2   5
HETATM    5  C   UNL     1      40.222 -15.570   2.073  1.00  0.00     0.035 A 
HETATM    6  C   UNL     1      40.824 -15.488   0.813  1.00  0.00     0.042 A 
HETATM    7  C   UNL     1      40.276 -14.693  -0.208  1.00  0.00    -0.021 A 
HETATM    8  C   UNL     1      39.108 -13.970   0.058  1.00  0.00     0.012 A 
HETATM    9  C   UNL     1      38.503 -14.036   1.314  1.00  0.00     0.003 A 
HETATM   10  C   UNL     1      39.059 -14.833   2.316  1.00  0.00     0.029 A 
BRANCH   7  11
HETATM   11  C   UNL     1      40.920 -14.645  -1.515  1.00  0.00     0.010 A 
HETATM   12  C   UNL     1      40.863 -15.546  -2.608  1.00  0.00     0.152 A 
HETATM   13  N   UNL     1      41.608 -15.155  -3.646  1.00  0.00    -0.187 NA
HETATM   14  N   UNL     1      42.153 -14.005  -3.222  1.00  0.00    -0.289 N 
HETATM   15  H   UNL     1      42.777 -13.511  -3.851  1.00  0.00     0.188 HD
HETATM   16  C   UNL     1      41.775 -13.656  -1.957  1.00  0.00     0.123 A 
ENDBRANCH   7  11
ENDBRANCH   2   5
BRANCH   1  17
HETATM   17  C   UNL     1      41.840 -17.050   5.199  1.00  0.00     0.182 C 
BRANCH  17  18
HETATM   18  S   UNL     1      43.628 -17.320   5.451  1.00  0.00    -0.121 SA
BRANCH  18  19
HETATM   19  C   UNL     1      43.858 -18.684   4.325  1.00  0.00     0.001 A 
HETATM   20  C   UNL     1      43.388 -18.593   3.014  1.00  0.00     0.019 A 
HETATM   21  C   UNL     1      43.548 -19.664   2.131  1.00  0.00     0.008 A 
HETATM   22  C   UNL     1      44.194 -20.835   2.543  1.00  0.00    -0.062 A 
HETATM   23  C   UNL     1      44.346 -22.003   1.614  1.00  0.00     0.048 C 
HETATM   24  C   UNL     1      44.673 -20.919   3.855  1.00  0.00     0.008 A 
HETATM   25  C   UNL     1      44.514 -19.848   4.738  1.00  0.00     0.019 A 
ENDBRANCH  18  19
ENDBRANCH  17  18
ENDBRANCH   1  17
TORSDOF 5
ENDMDL
MODEL 2
REMARK VINA RESULT:      -8.2      6.196      9.074
REMARK  5 active torsions:
REMARK  status: ('A' for Active; 'I' for Inactive)
REMARK    1  A    between atoms: C_5  and  S_6 
REMARK    2  A    between atoms: S_6  and  C_7 
REMARK    3  A    between atoms: C_7  and  C_8 
REMARK       I    between atoms: C_8  and  N_9 
REMARK    4  A    between atoms: N_9  and  C_10 
REMARK    5  A    between atoms: C_12  and  C_13 
ROOT
HETATM    1  C   UNL     1      43.677 -14.344   6.255  1.00  0.00     0.231 C 
HETATM    2  N   UNL     1      44.657 -14.329   7.231  1.00  0.00    -0.327 N 
HETATM    3  O   UNL     1      43.007 -13.377   5.897  1.00  0.00    -0.272 OA
HETATM    4  H   UNL     1      45.066 -15.233   7.448  1.00  0.00     0.169 HD
ENDROOT
BRANCH   2   5
HETATM    5  C   UNL     1      45.076 -13.240   8.024  1.00  0.00     0.035 A 
HETATM    6  C   UNL     1      44.353 -12.744   9.114  1.00  0.00     0.042 A 
HETATM    7  C   UNL     1      44.827 -11.662   9.874  1.00  0.00    -0.021 A 
HETATM    8  C   UNL     1      46.047 -11.074   9.517  1.00  0.00     0.012 A 
HETATM    9  C   UNL     1      46.773 -11.554   8.426  1.00  0.00     0.003 A 
HETATM   10  C   UNL     1      46.289 -12.632   7.684  1.00  0.00     0.029 A 
BRANCH   7  11
HETATM   11  C   UNL     1      44.056 -11.182  11.014  1.00  0.00     0.010 A 
HETATM   12  C   UNL     1      43.532 -11.876  12.134  1.00  0.00     0.152 A 
HETATM   13  N   UNL     1      42.865 -11.079  12.974  1.00  0.00    -0.187 NA
HETATM   14  N   UNL     1      42.949  -9.874  12.395  1.00  0.00    -0.289 N 
HETATM   15  H   UNL     1      42.502  -9.088  12.856  1.00  0.00     0.188 HD
HETATM   16  C   UNL     1      43.649  -9.879  11.222  1.00  0.00     0.123 A 
ENDBRANCH   7  11
ENDBRANCH   2   5
BRANCH   1  17
HETATM   17  C   UNL     1      43.511 -15.675   5.535  1.00  0.00     0.182 C 
BRANCH  17  18
HETATM   18  S   UNL     1      44.362 -17.060   6.367  1.00  0.00    -0.121 SA
BRANCH  18  19
HETATM   19  C   UNL     1      44.233 -18.277   5.070  1.00  0.00     0.001 A 
HETATM   20  C   UNL     1      44.865 -19.514   5.211  1.00  0.00     0.019 A 
HETATM   21  C   UNL     1      44.783 -20.467   4.192  1.00  0.00     0.008 A 
HETATM   22  C   UNL     1      44.057 -20.201   3.026  1.00  0.00    -0.062 A 
HETATM   23  C   UNL     1      43.987 -21.203   1.912  1.00  0.00     0.048 C 
HETATM   24  C   UNL     1      43.417 -18.964   2.893  1.00  0.00     0.008 A 
HETATM   25  C   UNL     1      43.497 -18.011   3.912  1.00  0.00     0.019 A 
ENDBRANCH  18  19
ENDBRANCH  17  18
ENDBRANCH   1  17
TORSDOF 5
ENDMDL
MODEL 3
REMARK VINA RESULT:      -7.9      3.055      7.647
REMARK  5 active torsions:
REMARK  status: ('A' for Active; 'I' for Inactive)
REMARK    1  A    between atoms: C_5  and  S_6 
REMARK    2  A    between atoms: S_6  and  C_7 
REMARK    3  A    between atoms: C_7  and  C_8 
REMARK       I    between atoms: C_8  and  N_9 
REMARK    4  A    between atoms: N_9  and  C_10 
REMARK    5  A    between atoms: C_12  and  C_13 
ROOT
HETATM    1  C   UNL     1      41.673 -17.056   1.075  1.00  0.00     0.231 C 
HETATM    2  N   UNL     1      42.954 -17.207   1.574  1.00  0.00    -0.327 N 
HETATM    3  O   UNL     1      40.709 -17.773   1.343  1.00  0.00    -0.272 OA
HETATM    4  H   UNL     1      43.644 -16.565   1.194  1.00  0.00     0.169 HD
ENDROOT
BRANCH   2   5
HETATM    5  C   UNL     1      43.432 -18.200   2.453  1.00  0.00     0.035 A 
HETATM    6  C   UNL     1      43.426 -18.077   3.847  1.00  0.00     0.042 A 
HETATM    7  C   UNL     1      43.907 -19.106   4.674  1.00  0.00    -0.021 A 
HETATM    8  C   UNL     1      44.404 -20.271   4.076  1.00  0.00     0.012 A 
HETATM    9  C   UNL     1      44.423 -20.402   2.686  1.00  0.00     0.003 A 
HETATM   10  C   UNL     1      43.939 -19.371   1.880  1.00  0.00     0.029 A 
BRANCH   7  11
HETATM   11  C   UNL     1      43.870 -18.951   6.123  1.00  0.00     0.010 A 
HETATM   12  C   UNL     1      43.864 -17.784   6.928  1.00  0.00     0.152 A 
HETATM   13  N   UNL     1      43.833 -18.055   8.236  1.00  0.00    -0.187 NA
HETATM   14  N   UNL     1      43.829 -19.394   8.278  1.00  0.00    -0.289 N 
HETATM   15  H   UNL     1      43.812 -19.845   9.186  1.00  0.00     0.188 HD
HETATM   16  C   UNL     1      43.850 -19.979   7.044  1.00  0.00     0.123 A 
ENDBRANCH   7  11
ENDBRANCH   2   5
BRANCH   1  17
HETATM   17  C   UNL     1      41.469 -15.833   0.190  1.00  0.00     0.182 C 
BRANCH  17  18
HETATM   18  S   UNL     1      40.539 -14.494   1.011  1.00  0.00    -0.121 SA
BRANCH  18  19
HETATM   19  C   UNL     1      41.485 -14.391   2.520  1.00  0.00     0.001 A 
HETATM   20  C   UNL     1      42.743 -13.787   2.513  1.00  0.00     0.019 A 
HETATM   21  C   UNL     1      43.499 -13.718   3.687  1.00  0.00     0.008 A 
HETATM   22  C   UNL     1      42.999 -14.239   4.885  1.00  0.00    -0.062 A 
HETATM   23  C   UNL     1      43.812 -14.199   6.145  1.00  0.00     0.048 C 
HETATM   24  C   UNL     1      41.732 -14.834   4.890  1.00  0.00     0.008 A 
HETATM   25  C   UNL     1      40.976 -14.903   3.717  1.00  0.00     0.019 A 
ENDBRANCH  18  19
ENDBRANCH  17  18
ENDBRANCH   1  17
TORSDOF 5
ENDMDL
MODEL 4
REMARK VINA RESULT:      -7.9      2.874      7.003
REMARK  5 active torsions:
REMARK  status: ('A' for Active; 'I' for Inactive)
REMARK    1  A    between atoms: C_5  and  S_6 
REMARK    2  A    between atoms: S_6  and  C_7 
REMARK    3  A    between atoms: C_7  and  C_8 
REMARK       I    between atoms: C_8  and  N_9 
REMARK    4  A    between atoms: N_9  and  C_10 
REMARK    5  A    between atoms: C_12  and  C_13 
ROOT
HETATM    1  C   UNL     1      42.619 -14.953   3.670  1.00  0.00     0.231 C 
HETATM    2  N   UNL     1      42.362 -16.064   4.452  1.00  0.00    -0.327 N 
HETATM    3  O   UNL     1      43.648 -14.752   3.025  1.00  0.00    -0.272 OA
HETATM    4  H   UNL     1      41.488 -16.036   4.970  1.00  0.00     0.169 HD
ENDROOT
BRANCH   2   5
HETATM    5  C   UNL     1      43.205 -17.168   4.696  1.00  0.00     0.035 A 
HETATM    6  C   UNL     1      43.269 -18.298   3.875  1.00  0.00     0.042 A 
HETATM    7  C   UNL     1      44.137 -19.365   4.164  1.00  0.00    -0.021 A 
HETATM    8  C   UNL     1      44.944 -19.282   5.305  1.00  0.00     0.012 A 
HETATM    9  C   UNL     1      44.883 -18.164   6.138  1.00  0.00     0.003 A 
HETATM   10  C   UNL     1      44.017 -17.113   5.834  1.00  0.00     0.029 A 
BRANCH   7  11
HETATM   11  C   UNL     1      44.190 -20.520   3.276  1.00  0.00     0.010 A 
HETATM   12  C   UNL     1      44.641 -21.844   3.508  1.00  0.00     0.152 A 
HETATM   13  N   UNL     1      44.537 -22.625   2.429  1.00  0.00    -0.187 NA
HETATM   14  N   UNL     1      44.028 -21.806   1.498  1.00  0.00    -0.289 N 
HETATM   15  H   UNL     1      43.861 -22.180   0.570  1.00  0.00     0.188 HD
HETATM   16  C   UNL     1      43.803 -20.538   1.951  1.00  0.00     0.123 A 
ENDBRANCH   7  11
ENDBRANCH   2   5
BRANCH   1  17
HETATM   17  C   UNL     1      41.467 -13.963   3.563  1.00  0.00     0.182 C 
BRANCH  17  18
HETATM   18  S   UNL     1      39.903 -14.731   3.017  1.00  0.00    -0.121 SA
BRANCH  18  19
HETATM   19  C   UNL     1      40.293 -14.943   1.290  1.00  0.00     0.001 A 
HETATM   20  C   UNL     1      39.871 -13.993   0.358  1.00  0.00     0.019 A 
HETATM   21  C   UNL     1      40.157 -14.161  -1.000  1.00  0.00     0.008 A 
HETATM   22  C   UNL     1      40.882 -15.274  -1.441  1.00  0.00    -0.062 A 
HETATM   23  C   UNL     1      41.170 -15.481  -2.899  1.00  0.00     0.048 C 
HETATM   24  C   UNL     1      41.313 -16.218  -0.503  1.00  0.00     0.008 A 
HETATM   25  C   UNL     1      41.028 -16.051   0.854  1.00  0.00     0.019 A 
ENDBRANCH  18  19
ENDBRANCH  17  18
ENDBRANCH   1  17
TORSDOF 5
ENDMDL
MODEL 5
REMARK VINA RESULT:      -7.8      3.060      8.643
REMARK  5 active torsions:
REMARK  status: ('A' for Active; 'I' for Inactive)
REMARK    1  A    between atoms: C_5  and  S_6 
REMARK    2  A    between atoms: S_6  and  C_7 
REMARK    3  A    between atoms: C_7  and  C_8 
REMARK       I    between atoms: C_8  and  N_9 
REMARK    4  A    between atoms: N_9  and  C_10 
REMARK    5  A    between atoms: C_12  and  C_13 
ROOT
HETATM    1  C   UNL     1      42.364 -16.690   1.451  1.00  0.00     0.231 C 
HETATM    2  N   UNL     1      42.241 -17.961   1.981  1.00  0.00    -0.327 N 
HETATM    3  O   UNL     1      43.197 -15.849   1.789  1.00  0.00    -0.272 OA
HETATM    4  H   UNL     1      41.454 -18.501   1.631  1.00  0.00     0.169 HD
ENDROOT
BRANCH   2   5
HETATM    5  C   UNL     1      43.004 -18.551   3.010  1.00  0.00     0.035 A 
HETATM    6  C   UNL     1      42.989 -18.116   4.340  1.00  0.00     0.042 A 
HETATM    7  C   UNL     1      43.763 -18.751   5.325  1.00  0.00    -0.021 A 
HETATM    8  C   UNL     1      44.567 -19.835   4.952  1.00  0.00     0.012 A 
HETATM    9  C   UNL     1      44.597 -20.273   3.627  1.00  0.00     0.003 A 
HETATM   10  C   UNL     1      43.819 -19.632   2.661  1.00  0.00     0.029 A 
BRANCH   7  11
HETATM   11  C   UNL     1      43.710 -18.282   6.705  1.00  0.00     0.010 A 
HETATM   12  C   UNL     1      43.401 -17.005   7.236  1.00  0.00     0.152 A 
HETATM   13  N   UNL     1      43.468 -16.966   8.570  1.00  0.00    -0.187 NA
HETATM   14  N   UNL     1      43.827 -18.214   8.901  1.00  0.00    -0.289 N 
HETATM   15  H   UNL     1      43.949 -18.432   9.884  1.00  0.00     0.188 HD
HETATM   16  C   UNL     1      43.986 -19.040   7.825  1.00  0.00     0.123 A 
ENDBRANCH   7  11
ENDBRANCH   2   5
BRANCH   1  17
HETATM   17  C   UNL     1      41.420 -16.381   0.297  1.00  0.00     0.182 C 
BRANCH  17  18
HETATM   18  S   UNL     1      41.624 -14.696  -0.374  1.00  0.00    -0.121 SA
BRANCH  18  19
HETATM   19  C   UNL     1      40.264 -14.695  -1.527  1.00  0.00     0.001 A 
HETATM   20  C   UNL     1      39.100 -13.984  -1.231  1.00  0.00     0.019 A 
HETATM   21  C   UNL     1      38.022 -13.993  -2.122  1.00  0.00     0.008 A 
HETATM   22  C   UNL     1      38.102 -14.701  -3.326  1.00  0.00    -0.062 A 
HETATM   23  C   UNL     1      36.941 -14.743  -4.276  1.00  0.00     0.048 C 
HETATM   24  C   UNL     1      39.275 -15.404  -3.624  1.00  0.00     0.008 A 
HETATM   25  C   UNL     1      40.352 -15.395  -2.735  1.00  0.00     0.019 A 
ENDBRANCH  18  19
ENDBRANCH  17  18
ENDBRANCH   1  17
TORSDOF 5
ENDMDL
MODEL 6
REMARK VINA RESULT:      -7.8      3.496      5.442
REMARK  5 active torsions:
REMARK  status: ('A' for Active; 'I' for Inactive)
REMARK    1  A    between atoms: C_5  and  S_6 
REMARK    2  A    between atoms: S_6  and  C_7 
REMARK    3  A    between atoms: C_7  and  C_8 
REMARK       I    between atoms: C_8  and  N_9 
REMARK    4  A    between atoms: N_9  and  C_10 
REMARK    5  A    between atoms: C_12  and  C_13 
ROOT
HETATM    1  C   UNL     1      43.248 -14.662   4.543  1.00  0.00     0.231 C 
HETATM    2  N   UNL     1      42.441 -15.785   4.496  1.00  0.00    -0.327 N 
HETATM    3  O   UNL     1      43.986 -14.271   3.640  1.00  0.00    -0.272 OA
HETATM    4  H   UNL     1      41.947 -15.998   5.358  1.00  0.00     0.169 HD
ENDROOT
BRANCH   2   5
HETATM    5  C   UNL     1      42.308 -16.715   3.445  1.00  0.00     0.035 A 
HETATM    6  C   UNL     1      42.993 -17.932   3.388  1.00  0.00     0.042 A 
HETATM    7  C   UNL     1      42.812 -18.825   2.318  1.00  0.00    -0.021 A 
HETATM    8  C   UNL     1      41.927 -18.471   1.292  1.00  0.00     0.012 A 
HETATM    9  C   UNL     1      41.244 -17.255   1.333  1.00  0.00     0.003 A 
HETATM   10  C   UNL     1      41.434 -16.381   2.405  1.00  0.00     0.029 A 
BRANCH   7  11
HETATM   11  C   UNL     1      43.529 -20.093   2.300  1.00  0.00     0.010 A 
HETATM   12  C   UNL     1      43.286 -21.283   1.568  1.00  0.00     0.152 A 
HETATM   13  N   UNL     1      44.173 -22.247   1.831  1.00  0.00    -0.187 NA
HETATM   14  N   UNL     1      44.983 -21.686   2.739  1.00  0.00    -0.289 N 
HETATM   15  H   UNL     1      45.750 -22.240   3.104  1.00  0.00     0.188 HD
HETATM   16  C   UNL     1      44.643 -20.401   3.054  1.00  0.00     0.123 A 
ENDBRANCH   7  11
ENDBRANCH   2   5
BRANCH   1  17
HETATM   17  C   UNL     1      43.111 -13.826   5.809  1.00  0.00     0.182 C 
BRANCH  17  18
HETATM   18  S   UNL     1      44.350 -14.239   7.085  1.00  0.00    -0.121 SA
BRANCH  18  19
HETATM   19  C   UNL     1      44.200 -16.016   7.044  1.00  0.00     0.001 A 
HETATM   20  C   UNL     1      45.187 -16.784   6.424  1.00  0.00     0.019 A 
HETATM   21  C   UNL     1      45.069 -18.176   6.372  1.00  0.00     0.008 A 
HETATM   22  C   UNL     1      43.969 -18.818   6.952  1.00  0.00    -0.062 A 
HETATM   23  C   UNL     1      43.815 -20.308   6.877  1.00  0.00     0.048 C 
HETATM   24  C   UNL     1      42.987 -18.045   7.582  1.00  0.00     0.008 A 
HETATM   25  C   UNL     1      43.105 -16.654   7.635  1.00  0.00     0.019 A 
ENDBRANCH  18  19
ENDBRANCH  17  18
ENDBRANCH   1  17
TORSDOF 5
ENDMDL
MODEL 7
REMARK VINA RESULT:      -7.5      3.263      7.421
REMARK  5 active torsions:
REMARK  status: ('A' for Active; 'I' for Inactive)
REMARK    1  A    between atoms: C_5  and  S_6 
REMARK    2  A    between atoms: S_6  and  C_7 
REMARK    3  A    between atoms: C_7  and  C_8 
REMARK       I    between atoms: C_8  and  N_9 
REMARK    4  A    between atoms: N_9  and  C_10 
REMARK    5  A    between atoms: C_12  and  C_13 
ROOT
HETATM    1  C   UNL     1      41.047 -15.954   5.672  1.00  0.00     0.231 C 
HETATM    2  N   UNL     1      42.292 -16.064   5.079  1.00  0.00    -0.327 N 
HETATM    3  O   UNL     1      40.520 -16.798   6.394  1.00  0.00    -0.272 OA
HETATM    4  H   UNL     1      42.545 -15.300   4.458  1.00  0.00     0.169 HD
ENDROOT
BRANCH   2   5
HETATM    5  C   UNL     1      43.194 -17.146   5.149  1.00  0.00     0.035 A 
HETATM    6  C   UNL     1      43.212 -18.209   4.240  1.00  0.00     0.042 A 
HETATM    7  C   UNL     1      44.142 -19.255   4.355  1.00  0.00    -0.021 A 
HETATM    8  C   UNL     1      45.062 -19.222   5.410  1.00  0.00     0.012 A 
HETATM    9  C   UNL     1      45.049 -18.171   6.329  1.00  0.00     0.003 A 
HETATM   10  C   UNL     1      44.119 -17.139   6.198  1.00  0.00     0.029 A 
BRANCH   7  11
HETATM   11  C   UNL     1      44.143 -20.338   3.379  1.00  0.00     0.010 A 
HETATM   12  C   UNL     1      44.687 -21.645   3.450  1.00  0.00     0.152 A 
HETATM   13  N   UNL     1      44.489 -22.352   2.333  1.00  0.00    -0.187 NA
HETATM   14  N   UNL     1      43.825 -21.501   1.538  1.00  0.00    -0.289 N 
HETATM   15  H   UNL     1      43.562 -21.818   0.611  1.00  0.00     0.188 HD
HETATM   16  C   UNL     1      43.594 -20.285   2.114  1.00  0.00     0.123 A 
ENDBRANCH   7  11
ENDBRANCH   2   5
BRANCH   1  17
HETATM   17  C   UNL     1      40.347 -14.620   5.449  1.00  0.00     0.182 C 
BRANCH  17  18
HETATM   18  S   UNL     1      41.315 -13.457   4.426  1.00  0.00    -0.121 SA
BRANCH  18  19
HETATM   19  C   UNL     1      40.348 -13.542   2.930  1.00  0.00     0.001 A 
HETATM   20  C   UNL     1      39.493 -14.625   2.714  1.00  0.00     0.019 A 
HETATM   21  C   UNL     1      38.745 -14.708   1.536  1.00  0.00     0.008 A 
HETATM   22  C   UNL     1      38.832 -13.703   0.566  1.00  0.00    -0.062 A 
HETATM   23  C   UNL     1      38.057 -13.795  -0.715  1.00  0.00     0.048 C 
HETATM   24  C   UNL     1      39.682 -12.614   0.792  1.00  0.00     0.008 A 
HETATM   25  C   UNL     1      40.429 -12.530   1.969  1.00  0.00     0.019 A 
ENDBRANCH  18  19
ENDBRANCH  17  18
ENDBRANCH   1  17
TORSDOF 5
ENDMDL
MODEL 8
REMARK VINA RESULT:      -7.3      1.758      2.049
REMARK  5 active torsions:
REMARK  status: ('A' for Active; 'I' for Inactive)
REMARK    1  A    between atoms: C_5  and  S_6 
REMARK    2  A    between atoms: S_6  and  C_7 
REMARK    3  A    between atoms: C_7  and  C_8 
REMARK       I    between atoms: C_8  and  N_9 
REMARK    4  A    between atoms: N_9  and  C_10 
REMARK    5  A    between atoms: C_12  and  C_13 
ROOT
HETATM    1  C   UNL     1      42.408 -14.078   2.699  1.00  0.00     0.231 C 
HETATM    2  N   UNL     1      41.144 -14.579   2.450  1.00  0.00    -0.327 N 
HETATM    3  O   UNL     1      42.912 -13.097   2.153  1.00  0.00    -0.272 OA
HETATM    4  H   UNL     1      40.914 -15.437   2.943  1.00  0.00     0.169 HD
ENDROOT
BRANCH   2   5
HETATM    5  C   UNL     1      40.189 -14.106   1.526  1.00  0.00     0.035 A 
HETATM    6  C   UNL     1      40.135 -14.505   0.186  1.00  0.00     0.042 A 
HETATM    7  C   UNL     1      39.153 -14.006  -0.687  1.00  0.00    -0.021 A 
HETATM    8  C   UNL     1      38.219 -13.088  -0.191  1.00  0.00     0.012 A 
HETATM    9  C   UNL     1      38.268 -12.676   1.142  1.00  0.00     0.003 A 
HETATM   10  C   UNL     1      39.249 -13.183   1.995  1.00  0.00     0.029 A 
BRANCH   7  11
HETATM   11  C   UNL     1      39.116 -14.456  -2.072  1.00  0.00     0.010 A 
HETATM   12  C   UNL     1      40.091 -15.128  -2.853  1.00  0.00     0.152 A 
HETATM   13  N   UNL     1      39.683 -15.367  -4.103  1.00  0.00    -0.187 NA
HETATM   14  N   UNL     1      38.449 -14.843  -4.134  1.00  0.00    -0.289 N 
HETATM   15  H   UNL     1      37.926 -14.900  -5.001  1.00  0.00     0.188 HD
HETATM   16  C   UNL     1      38.062 -14.287  -2.948  1.00  0.00     0.123 A 
ENDBRANCH   7  11
ENDBRANCH   2   5
BRANCH   1  17
HETATM   17  C   UNL     1      43.170 -14.784   3.813  1.00  0.00     0.182 C 
BRANCH  17  18
HETATM   18  S   UNL     1      42.166 -16.023   4.703  1.00  0.00    -0.121 SA
BRANCH  18  19
HETATM   19  C   UNL     1      42.819 -17.498   3.944  1.00  0.00     0.001 A 
HETATM   20  C   UNL     1      42.373 -17.887   2.679  1.00  0.00     0.019 A 
HETATM   21  C   UNL     1      42.867 -19.052   2.085  1.00  0.00     0.008 A 
HETATM   22  C   UNL     1      43.823 -19.835   2.742  1.00  0.00    -0.062 A 
HETATM   23  C   UNL     1      44.338 -21.103   2.128  1.00  0.00     0.048 C 
HETATM   24  C   UNL     1      44.275 -19.436   4.004  1.00  0.00     0.008 A 
HETATM   25  C   UNL     1      43.783 -18.272   4.599  1.00  0.00     0.019 A 
ENDBRANCH  18  19
ENDBRANCH  17  18
ENDBRANCH   1  17
TORSDOF 5
ENDMDL
MODEL 9
REMARK VINA RESULT:      -7.3      2.962      7.381
REMARK  5 active torsions:
REMARK  status: ('A' for Active; 'I' for Inactive)
REMARK    1  A    between atoms: C_5  and  S_6 
REMARK    2  A    between atoms: S_6  and  C_7 
REMARK    3  A    between atoms: C_7  and  C_8 
REMARK       I    between atoms: C_8  and  N_9 
REMARK    4  A    between atoms: N_9  and  C_10 
REMARK    5  A    between atoms: C_12  and  C_13 
ROOT
HETATM    1  C   UNL     1      42.792 -15.058   4.556  1.00  0.00     0.231 C 
HETATM    2  N   UNL     1      42.384 -16.372   4.414  1.00  0.00    -0.327 N 
HETATM    3  O   UNL     1      43.721 -14.526   3.951  1.00  0.00    -0.272 OA
HETATM    4  H   UNL     1      41.640 -16.664   5.042  1.00  0.00     0.169 HD
ENDROOT
BRANCH   2   5
HETATM    5  C   UNL     1      42.942 -17.370   3.589  1.00  0.00     0.035 A 
HETATM    6  C   UNL     1      43.393 -18.608   4.056  1.00  0.00     0.042 A 
HETATM    7  C   UNL     1      43.931 -19.568   3.183  1.00  0.00    -0.021 A 
HETATM    8  C   UNL     1      44.017 -19.262   1.820  1.00  0.00     0.012 A 
HETATM    9  C   UNL     1      43.579 -18.026   1.341  1.00  0.00     0.003 A 
HETATM   10  C   UNL     1      43.044 -17.085   2.223  1.00  0.00     0.029 A 
BRANCH   7  11
HETATM   11  C   UNL     1      44.376 -20.856   3.703  1.00  0.00     0.010 A 
HETATM   12  C   UNL     1      44.866 -21.217   4.983  1.00  0.00     0.152 A 
HETATM   13  N   UNL     1      45.183 -22.511   5.074  1.00  0.00    -0.187 NA
HETATM   14  N   UNL     1      44.907 -22.986   3.851  1.00  0.00    -0.289 N 
HETATM   15  H   UNL     1      45.076 -23.970   3.670  1.00  0.00     0.188 HD
HETATM   16  C   UNL     1      44.423 -22.039   2.994  1.00  0.00     0.123 A 
ENDBRANCH   7  11
ENDBRANCH   2   5
BRANCH   1  17
HETATM   17  C   UNL     1      41.930 -14.217   5.489  1.00  0.00     0.182 C 
BRANCH  17  18
HETATM   18  S   UNL     1      40.139 -14.450   5.225  1.00  0.00    -0.121 SA
BRANCH  18  19
HETATM   19  C   UNL     1      40.070 -14.082   3.482  1.00  0.00     0.001 A 
HETATM   20  C   UNL     1      40.397 -12.804   3.026  1.00  0.00     0.019 A 
HETATM   21  C   UNL     1      40.328 -12.503   1.663  1.00  0.00     0.008 A 
HETATM   22  C   UNL     1      39.947 -13.481   0.737  1.00  0.00    -0.062 A 
HETATM   23  C   UNL     1      39.841 -13.162  -0.725  1.00  0.00     0.048 C 
HETATM   24  C   UNL     1      39.631 -14.764   1.197  1.00  0.00     0.008 A 
HETATM   25  C   UNL     1      39.699 -15.066   2.559  1.00  0.00     0.019 A 
ENDBRANCH  18  19
ENDBRANCH  17  18
ENDBRANCH   1  17
TORSDOF 5
ENDMDL
MODEL 10
REMARK VINA RESULT:      -7.3      2.954      7.947
REMARK  5 active torsions:
REMARK  status: ('A' for Active; 'I' for Inactive)
REMARK    1  A    between atoms: C_5  and  S_6 
REMARK    2  A    between atoms: S_6  and  C_7 
REMARK    3  A    between atoms: C_7  and  C_8 
REMARK       I    between atoms: C_8  and  N_9 
REMARK    4  A    between atoms: N_9  and  C_10 
REMARK    5  A    between atoms: C_12  and  C_13 
ROOT
HETATM    1  C   UNL     1      42.170 -14.151   1.970  1.00  0.00     0.231 C 
HETATM    2  N   UNL     1      41.886 -15.504   1.969  1.00  0.00    -0.327 N 
HETATM    3  O   UNL     1      43.142 -13.623   2.507  1.00  0.00    -0.272 OA
HETATM    4  H   UNL     1      41.004 -15.761   1.533  1.00  0.00     0.169 HD
ENDROOT
BRANCH   2   5
HETATM    5  C   UNL     1      42.611 -16.545   2.586  1.00  0.00     0.035 A 
HETATM    6  C   UNL     1      42.686 -16.730   3.970  1.00  0.00     0.042 A 
HETATM    7  C   UNL     1      43.418 -17.793   4.527  1.00  0.00    -0.021 A 
HETATM    8  C   UNL     1      44.085 -18.672   3.665  1.00  0.00     0.012 A 
HETATM    9  C   UNL     1      44.025 -18.492   2.282  1.00  0.00     0.003 A 
HETATM   10  C   UNL     1      43.292 -17.433   1.746  1.00  0.00     0.029 A 
BRANCH   7  11
HETATM   11  C   UNL     1      43.460 -17.967   5.973  1.00  0.00     0.010 A 
HETATM   12  C   UNL     1      43.370 -17.016   7.022  1.00  0.00     0.152 A 
HETATM   13  N   UNL     1      43.460 -17.569   8.235  1.00  0.00    -0.187 NA
HETATM   14  N   UNL     1      43.616 -18.874   7.972  1.00  0.00    -0.289 N 
HETATM   15  H   UNL     1      43.714 -19.512   8.755  1.00  0.00     0.188 HD
HETATM   16  C   UNL     1      43.624 -19.165   6.638  1.00  0.00     0.123 A 
ENDBRANCH   7  11
ENDBRANCH   2   5
BRANCH   1  17
HETATM   17  C   UNL     1      41.214 -13.294   1.150  1.00  0.00     0.182 C 
BRANCH  17  18
HETATM   18  S   UNL     1      41.964 -12.635  -0.378  1.00  0.00    -0.121 SA
BRANCH  18  19
HETATM   19  C   UNL     1      41.108 -13.656  -1.563  1.00  0.00     0.001 A 
HETATM   20  C   UNL     1      40.225 -13.075  -2.475  1.00  0.00     0.019 A 
HETATM   21  C   UNL     1      39.537 -13.871  -3.395  1.00  0.00     0.008 A 
HETATM   22  C   UNL     1      39.735 -15.256  -3.425  1.00  0.00    -0.062 A 
HETATM   23  C   UNL     1      38.980 -16.125  -4.388  1.00  0.00     0.048 C 
HETATM   24  C   UNL     1      40.629 -15.833  -2.517  1.00  0.00     0.008 A 
HETATM   25  C   UNL     1      41.317 -15.039  -1.597  1.00  0.00     0.019 A 
ENDBRANCH  18  19
ENDBRANCH  17  18
ENDBRANCH   1  17
TORSDOF 5
ENDMDL
