MODEL 1
REMARK VINA RESULT:      -7.9      0.000      0.000
REMARK  9 active torsions:
REMARK  status: ('A' for Active; 'I' for Inactive)
REMARK    1  A    between atoms: C_6  and  N_7 
REMARK    2  A    between atoms: N_7  and  C_8 
REMARK    3  A    between atoms: C_10  and  S_11 
REMARK    4  A    between atoms: S_11  and  C_12 
REMARK    5  A    between atoms: C_15  and  N_16 
REMARK       I    between atoms: N_16  and  C_17 
REMARK    6  A    between atoms: C_17  and  C_18 
REMARK    7  A    between atoms: C_25  and  N_26 
REMARK    8  A    between atoms: C_34  and  C_35 
REMARK    9  A    between atoms: C_35  and  O_36 
ROOT
HETATM    1  C   UNL     1      41.371 -14.650  -0.288  1.00  0.00     0.152 A 
HETATM    2  N   UNL     1      41.271 -13.936   0.848  1.00  0.00    -0.204 NA
HETATM    3  C   UNL     1      40.551 -12.812   0.843  1.00  0.00     0.196 A 
HETATM    4  N   UNL     1      39.873 -12.361  -0.221  1.00  0.00    -0.209 NA
HETATM    5  C   UNL     1      39.919 -13.086  -1.355  1.00  0.00     0.128 A 
HETATM    6  C   UNL     1      40.691 -14.249  -1.436  1.00  0.00     0.125 A 
ENDROOT
BRANCH   3   7
HETATM    7  S   UNL     1      40.560 -11.892   2.359  1.00  0.00    -0.050 SA
BRANCH   7   8
HETATM    8  C   UNL     1      41.012 -13.048   3.632  1.00  0.00     0.008 A 
HETATM    9  C   UNL     1      40.118 -13.974   4.175  1.00  0.00     0.021 A 
HETATM   10  C   UNL     1      40.542 -14.902   5.134  1.00  0.00     0.031 A 
HETATM   11  C   UNL     1      41.878 -14.946   5.533  1.00  0.00     0.034 A 
HETATM   12  C   UNL     1      42.784 -14.047   4.966  1.00  0.00     0.031 A 
HETATM   13  C   UNL     1      42.352 -13.098   4.033  1.00  0.00     0.021 A 
BRANCH  11  14
HETATM   14  N   UNL     1      42.383 -15.893   6.442  1.00  0.00    -0.327 N 
HETATM   15  C   UNL     1      42.403 -17.261   6.282  1.00  0.00     0.226 C 
HETATM   16  O   UNL     1      41.864 -17.900   5.387  1.00  0.00    -0.273 OA
HETATM   17  H   UNL     1      42.745 -15.529   7.312  1.00  0.00     0.169 HD
BRANCH  15  18
HETATM   18  C   UNL     1      43.162 -18.002   7.331  1.00  0.00     0.078 A 
HETATM   19  C   UNL     1      43.718 -19.399   7.181  1.00  0.00     0.015 A 
HETATM   20  C   UNL     1      44.646 -18.221   7.142  1.00  0.00     0.015 A 
ENDBRANCH  15  18
ENDBRANCH  11  14
ENDBRANCH   7   8
ENDBRANCH   3   7
BRANCH   1  21
HETATM   21  N   UNL     1      42.134 -15.831  -0.259  1.00  0.00    -0.323 N 
HETATM   22  H   UNL     1      42.836 -15.889  -0.988  1.00  0.00     0.169 HD
BRANCH  21  23
HETATM   23  C   UNL     1      42.325 -16.731   0.727  1.00  0.00     0.151 A 
HETATM   24  N   UNL     1      41.369 -17.011   1.616  1.00  0.00    -0.157 NA
HETATM   25  N   UNL     1      41.938 -17.904   2.443  1.00  0.00    -0.281 N 
HETATM   26  C   UNL     1      43.238 -18.187   2.137  1.00  0.00     0.027 A 
HETATM   27  H   UNL     1      41.379 -18.272   3.206  1.00  0.00     0.189 HD
HETATM   28  C   UNL     1      44.067 -19.115   2.934  1.00  0.00     0.070 C 
HETATM   29  C   UNL     1      43.515 -17.435   1.016  1.00  0.00     0.078 A 
ENDBRANCH  21  23
ENDBRANCH   1  21
BRANCH   5  30
HETATM   30  N   UNL     1      39.164 -12.602  -2.436  1.00  0.00    -0.264 NA
HETATM   31  C   UNL     1      37.716 -12.875  -2.370  1.00  0.00     0.125 C 
HETATM   32  C   UNL     1      37.103 -12.680  -3.773  1.00  0.00     0.249 C 
HETATM   33  N   UNL     1      37.385 -11.268  -4.288  1.00  0.00    -0.073 N 
HETATM   34  H   UNL     1      36.930 -10.608  -3.644  1.00  0.00     0.279 HD
HETATM   35  C   UNL     1      36.803 -11.053  -5.652  1.00  0.00     0.269 C 
HETATM   36  C   UNL     1      38.886 -10.957  -4.256  1.00  0.00     0.249 C 
HETATM   37  C   UNL     1      39.479 -11.220  -2.854  1.00  0.00     0.125 C 
ENDBRANCH   5  30
BRANCH   6  38
HETATM   38  C   UNL     1      40.835 -14.963  -2.719  1.00  0.00     0.300 C 
HETATM   39  O   UNL     1      41.585 -14.624  -3.620  1.00  0.00    -0.259 OA
BRANCH  38  40
HETATM   40  O   UNL     1      39.941 -15.979  -2.773  1.00  0.00    -0.322 OA
HETATM   41  C   UNL     1      39.138 -16.057  -3.957  1.00  0.00     0.213 C 
ENDBRANCH  38  40
ENDBRANCH   6  38
TORSDOF 9
ENDMDL
MODEL 2
REMARK VINA RESULT:      -7.8      5.247      7.478
REMARK  9 active torsions:
REMARK  status: ('A' for Active; 'I' for Inactive)
REMARK    1  A    between atoms: C_6  and  N_7 
REMARK    2  A    between atoms: N_7  and  C_8 
REMARK    3  A    between atoms: C_10  and  S_11 
REMARK    4  A    between atoms: S_11  and  C_12 
REMARK    5  A    between atoms: C_15  and  N_16 
REMARK       I    between atoms: N_16  and  C_17 
REMARK    6  A    between atoms: C_17  and  C_18 
REMARK    7  A    between atoms: C_25  and  N_26 
REMARK    8  A    between atoms: C_34  and  C_35 
REMARK    9  A    between atoms: C_35  and  O_36 
ROOT
HETATM    1  C   UNL     1      42.400 -13.100   5.846  1.00  0.00     0.152 A 
HETATM    2  N   UNL     1      41.476 -12.235   6.301  1.00  0.00    -0.204 NA
HETATM    3  C   UNL     1      40.594 -11.719   5.441  1.00  0.00     0.196 A 
HETATM    4  N   UNL     1      40.539 -12.041   4.142  1.00  0.00    -0.209 NA
HETATM    5  C   UNL     1      41.423 -12.943   3.674  1.00  0.00     0.128 A 
HETATM    6  C   UNL     1      42.403 -13.490   4.508  1.00  0.00     0.125 A 
ENDROOT
BRANCH   3   7
HETATM    7  S   UNL     1      39.481 -10.516   6.118  1.00  0.00    -0.050 SA
BRANCH   7   8
HETATM    8  C   UNL     1      40.000 -10.258   7.799  1.00  0.00     0.008 A 
HETATM    9  C   UNL     1      39.465 -10.963   8.880  1.00  0.00     0.021 A 
HETATM   10  C   UNL     1      39.952 -10.762  10.177  1.00  0.00     0.031 A 
HETATM   11  C   UNL     1      41.012  -9.885  10.407  1.00  0.00     0.034 A 
HETATM   12  C   UNL     1      41.575  -9.206   9.325  1.00  0.00     0.031 A 
HETATM   13  C   UNL     1      41.065  -9.381   8.034  1.00  0.00     0.021 A 
BRANCH  11  14
HETATM   14  N   UNL     1      41.591  -9.686  11.674  1.00  0.00    -0.327 N 
HETATM   15  C   UNL     1      42.504 -10.504  12.301  1.00  0.00     0.226 C 
HETATM   16  O   UNL     1      42.869 -11.612  11.929  1.00  0.00    -0.273 OA
HETATM   17  H   UNL     1      41.282  -8.870  12.183  1.00  0.00     0.169 HD
BRANCH  15  18
HETATM   18  C   UNL     1      43.078  -9.950  13.561  1.00  0.00     0.078 A 
HETATM   19  C   UNL     1      42.580  -8.715  14.275  1.00  0.00     0.015 A 
HETATM   20  C   UNL     1      42.282 -10.071  14.841  1.00  0.00     0.015 A 
ENDBRANCH  15  18
ENDBRANCH  11  14
ENDBRANCH   7   8
ENDBRANCH   3   7
BRANCH   1  21
HETATM   21  N   UNL     1      43.317 -13.633   6.769  1.00  0.00    -0.323 N 
HETATM   22  H   UNL     1      43.473 -14.629   6.672  1.00  0.00     0.169 HD
BRANCH  21  23
HETATM   23  C   UNL     1      44.254 -13.026   7.527  1.00  0.00     0.151 A 
HETATM   24  N   UNL     1      45.549 -13.328   7.415  1.00  0.00    -0.157 NA
HETATM   25  N   UNL     1      46.149 -12.560   8.341  1.00  0.00    -0.281 N 
HETATM   26  C   UNL     1      45.282 -11.797   9.067  1.00  0.00     0.027 A 
HETATM   27  H   UNL     1      47.159 -12.618   8.429  1.00  0.00     0.189 HD
HETATM   28  C   UNL     1      45.719 -10.904  10.161  1.00  0.00     0.070 C 
HETATM   29  C   UNL     1      44.036 -12.079   8.552  1.00  0.00     0.078 A 
ENDBRANCH  21  23
ENDBRANCH   1  21
BRANCH   5  30
HETATM   30  N   UNL     1      41.307 -13.284   2.316  1.00  0.00    -0.264 NA
HETATM   31  C   UNL     1      40.118 -14.082   1.963  1.00  0.00     0.125 C 
HETATM   32  C   UNL     1      40.338 -14.729   0.581  1.00  0.00     0.249 C 
HETATM   33  N   UNL     1      40.627 -13.657  -0.471  1.00  0.00    -0.073 N 
HETATM   34  H   UNL     1      39.799 -13.050  -0.528  1.00  0.00     0.279 HD
HETATM   35  C   UNL     1      40.850 -14.259  -1.825  1.00  0.00     0.269 C 
HETATM   36  C   UNL     1      41.802 -12.768  -0.046  1.00  0.00     0.249 C 
HETATM   37  C   UNL     1      41.576 -12.185   1.367  1.00  0.00     0.125 C 
ENDBRANCH   5  30
BRANCH   6  38
HETATM   38  C   UNL     1      43.445 -14.377   3.955  1.00  0.00     0.300 C 
HETATM   39  O   UNL     1      44.359 -14.007   3.236  1.00  0.00    -0.259 OA
BRANCH  38  40
HETATM   40  O   UNL     1      43.167 -15.660   4.287  1.00  0.00    -0.322 OA
HETATM   41  C   UNL     1      42.882 -16.550   3.201  1.00  0.00     0.213 C 
ENDBRANCH  38  40
ENDBRANCH   6  38
TORSDOF 9
ENDMDL
MODEL 3
REMARK VINA RESULT:      -7.8      4.260      5.877
REMARK  9 active torsions:
REMARK  status: ('A' for Active; 'I' for Inactive)
REMARK    1  A    between atoms: C_6  and  N_7 
REMARK    2  A    between atoms: N_7  and  C_8 
REMARK    3  A    between atoms: C_10  and  S_11 
REMARK    4  A    between atoms: S_11  and  C_12 
REMARK    5  A    between atoms: C_15  and  N_16 
REMARK       I    between atoms: N_16  and  C_17 
REMARK    6  A    between atoms: C_17  and  C_18 
REMARK    7  A    between atoms: C_25  and  N_26 
REMARK    8  A    between atoms: C_34  and  C_35 
REMARK    9  A    between atoms: C_35  and  O_36 
ROOT
HETATM    1  C   UNL     1      40.085 -14.545   4.507  1.00  0.00     0.152 A 
HETATM    2  N   UNL     1      39.689 -13.361   5.008  1.00  0.00    -0.204 NA
HETATM    3  C   UNL     1      39.481 -12.343   4.169  1.00  0.00     0.196 A 
HETATM    4  N   UNL     1      39.599 -12.432   2.838  1.00  0.00    -0.209 NA
HETATM    5  C   UNL     1      39.947 -13.622   2.311  1.00  0.00     0.128 A 
HETATM    6  C   UNL     1      40.225 -14.719   3.132  1.00  0.00     0.125 A 
ENDROOT
BRANCH   3   7
HETATM    7  S   UNL     1      39.056 -10.799   4.933  1.00  0.00    -0.050 SA
BRANCH   7   8
HETATM    8  C   UNL     1      39.929 -10.762   6.481  1.00  0.00     0.008 A 
HETATM    9  C   UNL     1      39.307 -10.976   7.714  1.00  0.00     0.021 A 
HETATM   10  C   UNL     1      40.053 -10.994   8.898  1.00  0.00     0.031 A 
HETATM   11  C   UNL     1      41.439 -10.841   8.865  1.00  0.00     0.034 A 
HETATM   12  C   UNL     1      42.070 -10.664   7.632  1.00  0.00     0.031 A 
HETATM   13  C   UNL     1      41.321 -10.612   6.452  1.00  0.00     0.021 A 
BRANCH  11  14
HETATM   14  N   UNL     1      42.253 -10.913  10.010  1.00  0.00    -0.327 N 
HETATM   15  C   UNL     1      42.387  -9.953  10.988  1.00  0.00     0.226 C 
HETATM   16  O   UNL     1      41.929  -8.818  10.965  1.00  0.00    -0.273 OA
HETATM   17  H   UNL     1      42.815 -11.747  10.107  1.00  0.00     0.169 HD
BRANCH  15  18
HETATM   18  C   UNL     1      43.184 -10.377  12.175  1.00  0.00     0.078 A 
HETATM   19  C   UNL     1      43.446  -9.527  13.397  1.00  0.00     0.015 A 
HETATM   20  C   UNL     1      42.464 -10.659  13.475  1.00  0.00     0.015 A 
ENDBRANCH  15  18
ENDBRANCH  11  14
ENDBRANCH   7   8
ENDBRANCH   3   7
BRANCH   1  21
HETATM   21  N   UNL     1      40.297 -15.605   5.408  1.00  0.00    -0.323 N 
HETATM   22  H   UNL     1      39.650 -16.377   5.300  1.00  0.00     0.169 HD
BRANCH  21  23
HETATM   23  C   UNL     1      41.377 -15.924   6.150  1.00  0.00     0.151 A 
HETATM   24  N   UNL     1      42.402 -15.082   6.297  1.00  0.00    -0.157 NA
HETATM   25  N   UNL     1      43.280 -15.757   7.057  1.00  0.00    -0.281 N 
HETATM   26  C   UNL     1      42.871 -17.019   7.379  1.00  0.00     0.027 A 
HETATM   27  H   UNL     1      44.149 -15.296   7.308  1.00  0.00     0.189 HD
HETATM   28  C   UNL     1      43.695 -17.951   8.176  1.00  0.00     0.070 C 
HETATM   29  C   UNL     1      41.628 -17.152   6.802  1.00  0.00     0.078 A 
ENDBRANCH  21  23
ENDBRANCH   1  21
BRANCH   5  30
HETATM   30  N   UNL     1      40.022 -13.686   0.910  1.00  0.00    -0.264 NA
HETATM   31  C   UNL     1      38.769 -13.384   0.194  1.00  0.00     0.125 C 
HETATM   32  C   UNL     1      38.880 -13.899  -1.256  1.00  0.00     0.249 C 
HETATM   33  N   UNL     1      40.090 -13.274  -1.953  1.00  0.00    -0.073 N 
HETATM   34  H   UNL     1      39.937 -12.257  -1.984  1.00  0.00     0.279 HD
HETATM   35  C   UNL     1      40.225 -13.760  -3.364  1.00  0.00     0.269 C 
HETATM   36  C   UNL     1      41.373 -13.506  -1.148  1.00  0.00     0.249 C 
HETATM   37  C   UNL     1      41.207 -13.035   0.314  1.00  0.00     0.125 C 
ENDBRANCH   5  30
BRANCH   6  38
HETATM   38  C   UNL     1      40.730 -15.979   2.551  1.00  0.00     0.300 C 
HETATM   39  O   UNL     1      40.024 -16.852   2.073  1.00  0.00    -0.259 OA
BRANCH  38  40
HETATM   40  O   UNL     1      42.071 -16.050   2.725  1.00  0.00    -0.322 OA
HETATM   41  C   UNL     1      42.609 -17.351   2.992  1.00  0.00     0.213 C 
ENDBRANCH  38  40
ENDBRANCH   6  38
TORSDOF 9
ENDMDL
MODEL 4
REMARK VINA RESULT:      -7.8      4.497      8.158
REMARK  9 active torsions:
REMARK  status: ('A' for Active; 'I' for Inactive)
REMARK    1  A    between atoms: C_6  and  N_7 
REMARK    2  A    between atoms: N_7  and  C_8 
REMARK    3  A    between atoms: C_10  and  S_11 
REMARK    4  A    between atoms: S_11  and  C_12 
REMARK    5  A    between atoms: C_15  and  N_16 
REMARK       I    between atoms: N_16  and  C_17 
REMARK    6  A    between atoms: C_17  and  C_18 
REMARK    7  A    between atoms: C_25  and  N_26 
REMARK    8  A    between atoms: C_34  and  C_35 
REMARK    9  A    between atoms: C_35  and  O_36 
ROOT
HETATM    1  C   UNL     1      41.434 -13.302   2.901  1.00  0.00     0.152 A 
HETATM    2  N   UNL     1      40.743 -12.384   3.602  1.00  0.00    -0.204 NA
HETATM    3  C   UNL     1      40.592 -12.556   4.917  1.00  0.00     0.196 A 
HETATM    4  N   UNL     1      41.126 -13.572   5.606  1.00  0.00    -0.209 NA
HETATM    5  C   UNL     1      41.864 -14.477   4.934  1.00  0.00     0.128 A 
HETATM    6  C   UNL     1      42.026 -14.385   3.548  1.00  0.00     0.125 A 
ENDROOT
BRANCH   3   7
HETATM    7  S   UNL     1      39.584 -11.346   5.734  1.00  0.00    -0.050 SA
BRANCH   7   8
HETATM    8  C   UNL     1      40.386 -11.005   7.284  1.00  0.00     0.008 A 
HETATM    9  C   UNL     1      41.701 -10.542   7.377  1.00  0.00     0.021 A 
HETATM   10  C   UNL     1      42.265 -10.233   8.620  1.00  0.00     0.031 A 
HETATM   11  C   UNL     1      41.507 -10.340   9.787  1.00  0.00     0.034 A 
HETATM   12  C   UNL     1      40.181 -10.767   9.696  1.00  0.00     0.031 A 
HETATM   13  C   UNL     1      39.629 -11.108   8.456  1.00  0.00     0.021 A 
BRANCH  11  14
HETATM   14  N   UNL     1      41.992  -9.984  11.059  1.00  0.00    -0.327 N 
HETATM   15  C   UNL     1      42.900 -10.685  11.821  1.00  0.00     0.226 C 
HETATM   16  O   UNL     1      43.341 -11.803  11.588  1.00  0.00    -0.273 OA
HETATM   17  H   UNL     1      41.612  -9.139  11.462  1.00  0.00     0.169 HD
BRANCH  15  18
HETATM   18  C   UNL     1      43.363  -9.977  13.050  1.00  0.00     0.078 A 
HETATM   19  C   UNL     1      42.706  -8.757  13.651  1.00  0.00     0.015 A 
HETATM   20  C   UNL     1      42.539 -10.093  14.313  1.00  0.00     0.015 A 
ENDBRANCH  15  18
ENDBRANCH  11  14
ENDBRANCH   7   8
ENDBRANCH   3   7
BRANCH   1  21
HETATM   21  N   UNL     1      41.583 -13.100   1.517  1.00  0.00    -0.323 N 
HETATM   22  H   UNL     1      42.410 -12.574   1.260  1.00  0.00     0.169 HD
BRANCH  21  23
HETATM   23  C   UNL     1      41.022 -13.741   0.471  1.00  0.00     0.151 A 
HETATM   24  N   UNL     1      39.723 -14.043   0.447  1.00  0.00    -0.157 NA
HETATM   25  N   UNL     1      39.555 -14.696  -0.715  1.00  0.00    -0.281 N 
HETATM   26  C   UNL     1      40.708 -14.854  -1.428  1.00  0.00     0.027 A 
HETATM   27  H   UNL     1      38.622 -15.018  -0.952  1.00  0.00     0.189 HD
HETATM   28  C   UNL     1      40.763 -15.573  -2.718  1.00  0.00     0.070 C 
HETATM   29  C   UNL     1      41.683 -14.235  -0.677  1.00  0.00     0.078 A 
ENDBRANCH  21  23
ENDBRANCH   1  21
BRANCH   5  30
HETATM   30  N   UNL     1      42.439 -15.506   5.697  1.00  0.00    -0.264 NA
HETATM   31  C   UNL     1      43.640 -15.127   6.466  1.00  0.00     0.125 C 
HETATM   32  C   UNL     1      44.389 -16.407   6.892  1.00  0.00     0.249 C 
HETATM   33  N   UNL     1      43.467 -17.321   7.702  1.00  0.00    -0.073 N 
HETATM   34  H   UNL     1      43.196 -16.809   8.552  1.00  0.00     0.279 HD
HETATM   35  C   UNL     1      44.169 -18.575   8.125  1.00  0.00     0.269 C 
HETATM   36  C   UNL     1      42.176 -17.625   6.934  1.00  0.00     0.249 C 
HETATM   37  C   UNL     1      41.484 -16.324   6.471  1.00  0.00     0.125 C 
ENDBRANCH   5  30
BRANCH   6  38
HETATM   38  C   UNL     1      42.727 -15.451   2.805  1.00  0.00     0.300 C 
HETATM   39  O   UNL     1      43.907 -15.421   2.500  1.00  0.00    -0.259 OA
BRANCH  38  40
HETATM   40  O   UNL     1      41.837 -16.402   2.434  1.00  0.00    -0.322 OA
HETATM   41  C   UNL     1      42.139 -17.745   2.831  1.00  0.00     0.213 C 
ENDBRANCH  38  40
ENDBRANCH   6  38
TORSDOF 9
ENDMDL
MODEL 5
REMARK VINA RESULT:      -7.7      2.886      8.548
REMARK  9 active torsions:
REMARK  status: ('A' for Active; 'I' for Inactive)
REMARK    1  A    between atoms: C_6  and  N_7 
REMARK    2  A    between atoms: N_7  and  C_8 
REMARK    3  A    between atoms: C_10  and  S_11 
REMARK    4  A    between atoms: S_11  and  C_12 
REMARK    5  A    between atoms: C_15  and  N_16 
REMARK       I    between atoms: N_16  and  C_17 
REMARK    6  A    between atoms: C_17  and  C_18 
REMARK    7  A    between atoms: C_25  and  N_26 
REMARK    8  A    between atoms: C_34  and  C_35 
REMARK    9  A    between atoms: C_35  and  O_36 
ROOT
HETATM    1  C   UNL     1      42.821 -17.047   4.480  1.00  0.00     0.152 A 
HETATM    2  N   UNL     1      42.126 -17.191   3.337  1.00  0.00    -0.204 NA
HETATM    3  C   UNL     1      41.145 -16.326   3.064  1.00  0.00     0.196 A 
HETATM    4  N   UNL     1      40.829 -15.283   3.843  1.00  0.00    -0.209 NA
HETATM    5  C   UNL     1      41.544 -15.091   4.968  1.00  0.00     0.128 A 
HETATM    6  C   UNL     1      42.555 -15.983   5.339  1.00  0.00     0.125 A 
ENDROOT
BRANCH   3   7
HETATM    7  S   UNL     1      40.225 -16.656   1.585  1.00  0.00    -0.050 SA
BRANCH   7   8
HETATM    8  C   UNL     1      40.482 -15.253   0.524  1.00  0.00     0.008 A 
HETATM    9  C   UNL     1      39.878 -14.012   0.740  1.00  0.00     0.021 A 
HETATM   10  C   UNL     1      40.161 -12.923  -0.094  1.00  0.00     0.031 A 
HETATM   11  C   UNL     1      41.087 -13.047  -1.130  1.00  0.00     0.034 A 
HETATM   12  C   UNL     1      41.721 -14.276  -1.327  1.00  0.00     0.031 A 
HETATM   13  C   UNL     1      41.412 -15.372  -0.516  1.00  0.00     0.021 A 
BRANCH  11  14
HETATM   14  N   UNL     1      41.464 -11.977  -1.962  1.00  0.00    -0.327 N 
HETATM   15  C   UNL     1      42.610 -11.219  -1.862  1.00  0.00     0.226 C 
HETATM   16  O   UNL     1      43.431 -11.252  -0.954  1.00  0.00    -0.273 OA
HETATM   17  H   UNL     1      40.813 -11.728  -2.693  1.00  0.00     0.169 HD
BRANCH  15  18
HETATM   18  C   UNL     1      42.831 -10.269  -2.990  1.00  0.00     0.078 A 
HETATM   19  C   UNL     1      41.758  -9.761  -3.924  1.00  0.00     0.015 A 
HETATM   20  C   UNL     1      42.312  -8.854  -2.866  1.00  0.00     0.015 A 
ENDBRANCH  15  18
ENDBRANCH  11  14
ENDBRANCH   7   8
ENDBRANCH   3   7
BRANCH   1  21
HETATM   21  N   UNL     1      43.850 -17.968   4.746  1.00  0.00    -0.323 N 
HETATM   22  H   UNL     1      44.339 -17.803   5.618  1.00  0.00     0.169 HD
BRANCH  21  23
HETATM   23  C   UNL     1      44.087 -19.193   4.235  1.00  0.00     0.151 A 
HETATM   24  N   UNL     1      44.642 -20.163   4.965  1.00  0.00    -0.157 NA
HETATM   25  N   UNL     1      44.749 -21.198   4.115  1.00  0.00    -0.281 N 
HETATM   26  C   UNL     1      44.311 -20.920   2.852  1.00  0.00     0.027 A 
HETATM   27  H   UNL     1      45.144 -22.065   4.465  1.00  0.00     0.189 HD
HETATM   28  C   UNL     1      44.369 -21.900   1.748  1.00  0.00     0.070 C 
HETATM   29  C   UNL     1      43.869 -19.616   2.904  1.00  0.00     0.078 A 
ENDBRANCH  21  23
ENDBRANCH   1  21
BRANCH   5  30
HETATM   30  N   UNL     1      41.208 -13.964   5.737  1.00  0.00    -0.264 NA
HETATM   31  C   UNL     1      42.025 -12.761   5.487  1.00  0.00     0.125 C 
HETATM   32  C   UNL     1      41.842 -11.777   6.661  1.00  0.00     0.249 C 
HETATM   33  N   UNL     1      40.364 -11.425   6.837  1.00  0.00    -0.073 N 
HETATM   34  H   UNL     1      40.053 -10.959   5.975  1.00  0.00     0.279 HD
HETATM   35  C   UNL     1      40.156 -10.472   7.974  1.00  0.00     0.269 C 
HETATM   36  C   UNL     1      39.510 -12.688   6.993  1.00  0.00     0.249 C 
HETATM   37  C   UNL     1      39.762 -13.678   5.834  1.00  0.00     0.125 C 
ENDBRANCH   5  30
BRANCH   6  38
HETATM   38  C   UNL     1      43.243 -15.835   6.636  1.00  0.00     0.300 C 
HETATM   39  O   UNL     1      44.218 -15.127   6.826  1.00  0.00    -0.259 OA
BRANCH  38  40
HETATM   40  O   UNL     1      42.688 -16.678   7.540  1.00  0.00    -0.322 OA
HETATM   41  C   UNL     1      43.599 -17.438   8.343  1.00  0.00     0.213 C 
ENDBRANCH  38  40
ENDBRANCH   6  38
TORSDOF 9
ENDMDL
MODEL 6
REMARK VINA RESULT:      -7.6      3.238      8.340
REMARK  9 active torsions:
REMARK  status: ('A' for Active; 'I' for Inactive)
REMARK    1  A    between atoms: C_6  and  N_7 
REMARK    2  A    between atoms: N_7  and  C_8 
REMARK    3  A    between atoms: C_10  and  S_11 
REMARK    4  A    between atoms: S_11  and  C_12 
REMARK    5  A    between atoms: C_15  and  N_16 
REMARK       I    between atoms: N_16  and  C_17 
REMARK    6  A    between atoms: C_17  and  C_18 
REMARK    7  A    between atoms: C_25  and  N_26 
REMARK    8  A    between atoms: C_34  and  C_35 
REMARK    9  A    between atoms: C_35  and  O_36 
ROOT
HETATM    1  C   UNL     1      43.251 -16.750   3.847  1.00  0.00     0.152 A 
HETATM    2  N   UNL     1      42.927 -16.595   2.551  1.00  0.00    -0.204 NA
HETATM    3  C   UNL     1      42.087 -15.616   2.208  1.00  0.00     0.196 A 
HETATM    4  N   UNL     1      41.570 -14.735   3.074  1.00  0.00    -0.209 NA
HETATM    5  C   UNL     1      41.920 -14.840   4.371  1.00  0.00     0.128 A 
HETATM    6  C   UNL     1      42.758 -15.870   4.808  1.00  0.00     0.125 A 
ENDROOT
BRANCH   3   7
HETATM    7  S   UNL     1      41.645 -15.555   0.491  1.00  0.00    -0.050 SA
BRANCH   7   8
HETATM    8  C   UNL     1      40.117 -14.649   0.410  1.00  0.00     0.008 A 
HETATM    9  C   UNL     1      39.013 -14.941   1.214  1.00  0.00     0.021 A 
HETATM   10  C   UNL     1      37.854 -14.158   1.150  1.00  0.00     0.031 A 
HETATM   11  C   UNL     1      37.798 -13.043   0.313  1.00  0.00     0.034 A 
HETATM   12  C   UNL     1      38.913 -12.725  -0.465  1.00  0.00     0.031 A 
HETATM   13  C   UNL     1      40.058 -13.528  -0.427  1.00  0.00     0.021 A 
BRANCH  11  14
HETATM   14  N   UNL     1      36.690 -12.178   0.249  1.00  0.00    -0.327 N 
HETATM   15  C   UNL     1      36.462 -11.071   1.036  1.00  0.00     0.226 C 
HETATM   16  O   UNL     1      37.110 -10.725   2.015  1.00  0.00    -0.273 OA
HETATM   17  H   UNL     1      35.979 -12.412  -0.429  1.00  0.00     0.169 HD
BRANCH  15  18
HETATM   18  C   UNL     1      35.293 -10.242   0.624  1.00  0.00     0.078 A 
HETATM   19  C   UNL     1      34.254 -10.647  -0.395  1.00  0.00     0.015 A 
HETATM   20  C   UNL     1      33.908 -10.661   1.064  1.00  0.00     0.015 A 
ENDBRANCH  15  18
ENDBRANCH  11  14
ENDBRANCH   7   8
ENDBRANCH   3   7
BRANCH   1  21
HETATM   21  N   UNL     1      44.139 -17.787   4.186  1.00  0.00    -0.323 N 
HETATM   22  H   UNL     1      44.637 -17.640   5.056  1.00  0.00     0.169 HD
BRANCH  21  23
HETATM   23  C   UNL     1      44.208 -19.062   3.751  1.00  0.00     0.151 A 
HETATM   24  N   UNL     1      44.725 -20.034   4.506  1.00  0.00    -0.157 NA
HETATM   25  N   UNL     1      44.655 -21.129   3.731  1.00  0.00    -0.281 N 
HETATM   26  C   UNL     1      44.138 -20.891   2.490  1.00  0.00     0.027 A 
HETATM   27  H   UNL     1      44.991 -22.008   4.112  1.00  0.00     0.189 HD
HETATM   28  C   UNL     1      44.001 -21.944   1.462  1.00  0.00     0.070 C 
HETATM   29  C   UNL     1      43.833 -19.548   2.478  1.00  0.00     0.078 A 
ENDBRANCH  21  23
ENDBRANCH   1  21
BRANCH   5  30
HETATM   30  N   UNL     1      41.388 -13.875   5.241  1.00  0.00    -0.264 NA
HETATM   31  C   UNL     1      42.035 -12.550   5.188  1.00  0.00     0.125 C 
HETATM   32  C   UNL     1      41.655 -11.753   6.454  1.00  0.00     0.249 C 
HETATM   33  N   UNL     1      40.134 -11.632   6.572  1.00  0.00    -0.073 N 
HETATM   34  H   UNL     1      39.803 -11.109   5.751  1.00  0.00     0.279 HD
HETATM   35  C   UNL     1      39.737 -10.865   7.796  1.00  0.00     0.269 C 
HETATM   36  C   UNL     1      39.464 -13.009   6.523  1.00  0.00     0.249 C 
HETATM   37  C   UNL     1      39.913 -13.804   5.276  1.00  0.00     0.125 C 
ENDBRANCH   5  30
BRANCH   6  38
HETATM   38  C   UNL     1      43.031 -16.052   6.248  1.00  0.00     0.300 C 
HETATM   39  O   UNL     1      42.206 -16.422   7.067  1.00  0.00    -0.259 OA
BRANCH  38  40
HETATM   40  O   UNL     1      44.295 -15.650   6.522  1.00  0.00    -0.322 OA
HETATM   41  C   UNL     1      44.427 -14.441   7.279  1.00  0.00     0.213 C 
ENDBRANCH  38  40
ENDBRANCH   6  38
TORSDOF 9
ENDMDL
MODEL 7
REMARK VINA RESULT:      -7.5      3.959      7.629
REMARK  9 active torsions:
REMARK  status: ('A' for Active; 'I' for Inactive)
REMARK    1  A    between atoms: C_6  and  N_7 
REMARK    2  A    between atoms: N_7  and  C_8 
REMARK    3  A    between atoms: C_10  and  S_11 
REMARK    4  A    between atoms: S_11  and  C_12 
REMARK    5  A    between atoms: C_15  and  N_16 
REMARK       I    between atoms: N_16  and  C_17 
REMARK    6  A    between atoms: C_17  and  C_18 
REMARK    7  A    between atoms: C_25  and  N_26 
REMARK    8  A    between atoms: C_34  and  C_35 
REMARK    9  A    between atoms: C_35  and  O_36 
ROOT
HETATM    1  C   UNL     1      40.021 -14.011   2.158  1.00  0.00     0.152 A 
HETATM    2  N   UNL     1      39.594 -12.827   2.632  1.00  0.00    -0.204 NA
HETATM    3  C   UNL     1      39.797 -12.536   3.920  1.00  0.00     0.196 A 
HETATM    4  N   UNL     1      40.445 -13.337   4.776  1.00  0.00    -0.209 NA
HETATM    5  C   UNL     1      40.925 -14.506   4.310  1.00  0.00     0.128 A 
HETATM    6  C   UNL     1      40.710 -14.896   2.985  1.00  0.00     0.125 A 
ENDROOT
BRANCH   3   7
HETATM    7  S   UNL     1      39.112 -10.996   4.472  1.00  0.00    -0.050 SA
BRANCH   7   8
HETATM    8  C   UNL     1      39.840 -10.677   6.062  1.00  0.00     0.008 A 
HETATM    9  C   UNL     1      39.380 -11.264   7.244  1.00  0.00     0.021 A 
HETATM   10  C   UNL     1      40.028 -11.024   8.461  1.00  0.00     0.031 A 
HETATM   11  C   UNL     1      41.172 -10.228   8.509  1.00  0.00     0.034 A 
HETATM   12  C   UNL     1      41.657  -9.668   7.326  1.00  0.00     0.031 A 
HETATM   13  C   UNL     1      40.990  -9.881   6.115  1.00  0.00     0.021 A 
BRANCH  11  14
HETATM   14  N   UNL     1      41.906  -9.999   9.688  1.00  0.00    -0.327 N 
HETATM   15  C   UNL     1      43.105 -10.581  10.038  1.00  0.00     0.226 C 
HETATM   16  O   UNL     1      43.671 -11.496   9.455  1.00  0.00    -0.273 OA
HETATM   17  H   UNL     1      41.496  -9.359  10.353  1.00  0.00     0.169 HD
BRANCH  15  18
HETATM   18  C   UNL     1      43.740 -10.013  11.263  1.00  0.00     0.078 A 
HETATM   19  C   UNL     1      43.062  -9.088  12.246  1.00  0.00     0.015 A 
HETATM   20  C   UNL     1      43.298 -10.522  12.617  1.00  0.00     0.015 A 
ENDBRANCH  15  18
ENDBRANCH  11  14
ENDBRANCH   7   8
ENDBRANCH   3   7
BRANCH   1  21
HETATM   21  N   UNL     1      39.799 -14.296   0.798  1.00  0.00    -0.323 N 
HETATM   22  H   UNL     1      38.823 -14.421   0.555  1.00  0.00     0.169 HD
BRANCH  21  23
HETATM   23  C   UNL     1      40.590 -14.114  -0.278  1.00  0.00     0.151 A 
HETATM   24  N   UNL     1      40.935 -15.127  -1.075  1.00  0.00    -0.157 NA
HETATM   25  N   UNL     1      41.741 -14.567  -1.993  1.00  0.00    -0.281 N 
HETATM   26  C   UNL     1      41.954 -13.233  -1.798  1.00  0.00     0.027 A 
HETATM   27  H   UNL     1      42.123 -15.163  -2.722  1.00  0.00     0.189 HD
HETATM   28  C   UNL     1      42.834 -12.424  -2.666  1.00  0.00     0.070 C 
HETATM   29  C   UNL     1      41.209 -12.910  -0.685  1.00  0.00     0.078 A 
ENDBRANCH  21  23
ENDBRANCH   1  21
BRANCH   5  30
HETATM   30  N   UNL     1      41.632 -15.300   5.228  1.00  0.00    -0.264 NA
HETATM   31  C   UNL     1      42.786 -14.646   5.873  1.00  0.00     0.125 C 
HETATM   32  C   UNL     1      43.692 -15.727   6.498  1.00  0.00     0.249 C 
HETATM   33  N   UNL     1      42.901 -16.578   7.493  1.00  0.00    -0.073 N 
HETATM   34  H   UNL     1      42.579 -15.954   8.244  1.00  0.00     0.279 HD
HETATM   35  C   UNL     1      43.757 -17.640   8.113  1.00  0.00     0.269 C 
HETATM   36  C   UNL     1      41.648 -17.170   6.839  1.00  0.00     0.249 C 
HETATM   37  C   UNL     1      40.794 -16.069   6.171  1.00  0.00     0.125 C 
ENDBRANCH   5  30
BRANCH   6  38
HETATM   38  C   UNL     1      41.127 -16.234   2.522  1.00  0.00     0.300 C 
HETATM   39  O   UNL     1      40.381 -17.194   2.415  1.00  0.00    -0.259 OA
BRANCH  38  40
HETATM   40  O   UNL     1      42.468 -16.249   2.337  1.00  0.00    -0.322 OA
HETATM   41  C   UNL     1      42.947 -16.993   1.210  1.00  0.00     0.213 C 
ENDBRANCH  38  40
ENDBRANCH   6  38
TORSDOF 9
ENDMDL
MODEL 8
REMARK VINA RESULT:      -7.4      2.823      8.687
REMARK  9 active torsions:
REMARK  status: ('A' for Active; 'I' for Inactive)
REMARK    1  A    between atoms: C_6  and  N_7 
REMARK    2  A    between atoms: N_7  and  C_8 
REMARK    3  A    between atoms: C_10  and  S_11 
REMARK    4  A    between atoms: S_11  and  C_12 
REMARK    5  A    between atoms: C_15  and  N_16 
REMARK       I    between atoms: N_16  and  C_17 
REMARK    6  A    between atoms: C_17  and  C_18 
REMARK    7  A    between atoms: C_25  and  N_26 
REMARK    8  A    between atoms: C_34  and  C_35 
REMARK    9  A    between atoms: C_35  and  O_36 
ROOT
HETATM    1  C   UNL     1      43.163 -16.881   3.939  1.00  0.00     0.152 A 
HETATM    2  N   UNL     1      42.538 -17.106   2.769  1.00  0.00    -0.204 NA
HETATM    3  C   UNL     1      41.505 -16.330   2.429  1.00  0.00     0.196 A 
HETATM    4  N   UNL     1      41.069 -15.299   3.164  1.00  0.00    -0.209 NA
HETATM    5  C   UNL     1      41.712 -15.024   4.315  1.00  0.00     0.128 A 
HETATM    6  C   UNL     1      42.771 -15.822   4.756  1.00  0.00     0.125 A 
ENDROOT
BRANCH   3   7
HETATM    7  S   UNL     1      40.687 -16.767   0.918  1.00  0.00    -0.050 SA
BRANCH   7   8
HETATM    8  C   UNL     1      41.129 -15.512  -0.261  1.00  0.00     0.008 A 
HETATM    9  C   UNL     1      41.718 -14.297   0.102  1.00  0.00     0.021 A 
HETATM   10  C   UNL     1      42.100 -13.368  -0.873  1.00  0.00     0.031 A 
HETATM   11  C   UNL     1      41.940 -13.657  -2.228  1.00  0.00     0.034 A 
HETATM   12  C   UNL     1      41.386 -14.885  -2.597  1.00  0.00     0.031 A 
HETATM   13  C   UNL     1      40.973 -15.799  -1.622  1.00  0.00     0.021 A 
BRANCH  11  14
HETATM   14  N   UNL     1      42.362 -12.796  -3.258  1.00  0.00    -0.327 N 
HETATM   15  C   UNL     1      41.579 -11.909  -3.963  1.00  0.00     0.226 C 
HETATM   16  O   UNL     1      40.359 -11.810  -3.912  1.00  0.00    -0.273 OA
HETATM   17  H   UNL     1      43.335 -12.856  -3.521  1.00  0.00     0.169 HD
BRANCH  15  18
HETATM   18  C   UNL     1      42.331 -10.998  -4.874  1.00  0.00     0.078 A 
HETATM   19  C   UNL     1      41.714  -9.913  -5.724  1.00  0.00     0.015 A 
HETATM   20  C   UNL     1      42.483  -9.544  -4.490  1.00  0.00     0.015 A 
ENDBRANCH  15  18
ENDBRANCH  11  14
ENDBRANCH   7   8
ENDBRANCH   3   7
BRANCH   1  21
HETATM   21  N   UNL     1      44.249 -17.708   4.276  1.00  0.00    -0.323 N 
HETATM   22  H   UNL     1      44.875 -17.311   4.967  1.00  0.00     0.169 HD
BRANCH  21  23
HETATM   23  C   UNL     1      44.431 -19.033   4.104  1.00  0.00     0.151 A 
HETATM   24  N   UNL     1      44.350 -19.602   2.899  1.00  0.00    -0.157 NA
HETATM   25  N   UNL     1      44.548 -20.910   3.136  1.00  0.00    -0.281 N 
HETATM   26  C   UNL     1      44.722 -21.209   4.456  1.00  0.00     0.027 A 
HETATM   27  H   UNL     1      44.539 -21.545   2.344  1.00  0.00     0.189 HD
HETATM   28  C   UNL     1      44.919 -22.588   4.948  1.00  0.00     0.070 C 
HETATM   29  C   UNL     1      44.654 -19.999   5.111  1.00  0.00     0.078 A 
ENDBRANCH  21  23
ENDBRANCH   1  21
BRANCH   5  30
HETATM   30  N   UNL     1      41.250 -13.912   5.038  1.00  0.00    -0.264 NA
HETATM   31  C   UNL     1      41.675 -12.598   4.519  1.00  0.00     0.125 C 
HETATM   32  C   UNL     1      41.470 -11.533   5.615  1.00  0.00     0.249 C 
HETATM   33  N   UNL     1      40.009 -11.510   6.071  1.00  0.00    -0.073 N 
HETATM   34  H   UNL     1      39.437 -11.250   5.257  1.00  0.00     0.279 HD
HETATM   35  C   UNL     1      39.781 -10.485   7.139  1.00  0.00     0.269 C 
HETATM   36  C   UNL     1      39.546 -12.903   6.512  1.00  0.00     0.249 C 
HETATM   37  C   UNL     1      39.822 -13.956   5.416  1.00  0.00     0.125 C 
ENDBRANCH   5  30
BRANCH   6  38
HETATM   38  C   UNL     1      43.383 -15.590   6.080  1.00  0.00     0.300 C 
HETATM   39  O   UNL     1      43.117 -16.226   7.086  1.00  0.00    -0.259 OA
BRANCH  38  40
HETATM   40  O   UNL     1      44.195 -14.508   6.017  1.00  0.00    -0.322 OA
HETATM   41  C   UNL     1      44.729 -14.042   7.262  1.00  0.00     0.213 C 
ENDBRANCH  38  40
ENDBRANCH   6  38
TORSDOF 9
ENDMDL
MODEL 9
REMARK VINA RESULT:      -7.2      4.803      6.614
REMARK  9 active torsions:
REMARK  status: ('A' for Active; 'I' for Inactive)
REMARK    1  A    between atoms: C_6  and  N_7 
REMARK    2  A    between atoms: N_7  and  C_8 
REMARK    3  A    between atoms: C_10  and  S_11 
REMARK    4  A    between atoms: S_11  and  C_12 
REMARK    5  A    between atoms: C_15  and  N_16 
REMARK       I    between atoms: N_16  and  C_17 
REMARK    6  A    between atoms: C_17  and  C_18 
REMARK    7  A    between atoms: C_25  and  N_26 
REMARK    8  A    between atoms: C_34  and  C_35 
REMARK    9  A    between atoms: C_35  and  O_36 
ROOT
HETATM    1  C   UNL     1      42.161 -13.524   5.409  1.00  0.00     0.152 A 
HETATM    2  N   UNL     1      41.273 -12.734   6.040  1.00  0.00    -0.204 NA
HETATM    3  C   UNL     1      40.404 -12.029   5.311  1.00  0.00     0.196 A 
HETATM    4  N   UNL     1      40.325 -12.088   3.976  1.00  0.00    -0.209 NA
HETATM    5  C   UNL     1      41.172 -12.910   3.326  1.00  0.00     0.128 A 
HETATM    6  C   UNL     1      42.139 -13.642   4.021  1.00  0.00     0.125 A 
ENDROOT
BRANCH   3   7
HETATM    7  S   UNL     1      39.341 -10.946   6.228  1.00  0.00    -0.050 SA
BRANCH   7   8
HETATM    8  C   UNL     1      40.149 -10.668   7.787  1.00  0.00     0.008 A 
HETATM    9  C   UNL     1      41.307  -9.898   7.920  1.00  0.00     0.021 A 
HETATM   10  C   UNL     1      41.870  -9.663   9.180  1.00  0.00     0.031 A 
HETATM   11  C   UNL     1      41.258 -10.158  10.332  1.00  0.00     0.034 A 
HETATM   12  C   UNL     1      40.080 -10.898  10.208  1.00  0.00     0.031 A 
HETATM   13  C   UNL     1      39.538 -11.161   8.946  1.00  0.00     0.021 A 
BRANCH  11  14
HETATM   14  N   UNL     1      41.735  -9.905  11.631  1.00  0.00    -0.327 N 
HETATM   15  C   UNL     1      42.783 -10.536  12.263  1.00  0.00     0.226 C 
HETATM   16  O   UNL     1      43.394 -11.518  11.860  1.00  0.00    -0.273 OA
HETATM   17  H   UNL     1      41.238  -9.202  12.161  1.00  0.00     0.169 HD
BRANCH  15  18
HETATM   18  C   UNL     1      43.177  -9.937  13.571  1.00  0.00     0.078 A 
HETATM   19  C   UNL     1      42.509  -8.749  14.220  1.00  0.00     0.015 A 
HETATM   20  C   UNL     1      42.268 -10.126  14.764  1.00  0.00     0.015 A 
ENDBRANCH  15  18
ENDBRANCH  11  14
ENDBRANCH   7   8
ENDBRANCH   3   7
BRANCH   1  21
HETATM   21  N   UNL     1      43.067 -14.258   6.196  1.00  0.00    -0.323 N 
HETATM   22  H   UNL     1      43.715 -13.687   6.725  1.00  0.00     0.169 HD
BRANCH  21  23
HETATM   23  C   UNL     1      43.023 -15.536   6.624  1.00  0.00     0.151 A 
HETATM   24  N   UNL     1      41.876 -16.215   6.690  1.00  0.00    -0.157 NA
HETATM   25  N   UNL     1      42.227 -17.413   7.188  1.00  0.00    -0.281 N 
HETATM   26  C   UNL     1      43.557 -17.519   7.475  1.00  0.00     0.027 A 
HETATM   27  H   UNL     1      41.500 -18.109   7.317  1.00  0.00     0.189 HD
HETATM   28  C   UNL     1      44.157 -18.735   8.064  1.00  0.00     0.070 C 
HETATM   29  C   UNL     1      44.102 -16.307   7.112  1.00  0.00     0.078 A 
ENDBRANCH  21  23
ENDBRANCH   1  21
BRANCH   5  30
HETATM   30  N   UNL     1      41.033 -12.973   1.930  1.00  0.00    -0.264 NA
HETATM   31  C   UNL     1      39.694 -13.361   1.444  1.00  0.00     0.125 C 
HETATM   32  C   UNL     1      39.802 -13.799  -0.031  1.00  0.00     0.249 C 
HETATM   33  N   UNL     1      40.404 -12.676  -0.879  1.00  0.00    -0.073 N 
HETATM   34  H   UNL     1      39.763 -11.874  -0.827  1.00  0.00     0.279 HD
HETATM   35  C   UNL     1      40.523 -13.076  -2.318  1.00  0.00     0.269 C 
HETATM   36  C   UNL     1      41.747 -12.211  -0.306  1.00  0.00     0.249 C 
HETATM   37  C   UNL     1      41.617 -11.838   1.187  1.00  0.00     0.125 C 
ENDBRANCH   5  30
BRANCH   6  38
HETATM   38  C   UNL     1      43.144 -14.439   3.289  1.00  0.00     0.300 C 
HETATM   39  O   UNL     1      44.281 -14.067   3.050  1.00  0.00    -0.259 OA
BRANCH  38  40
HETATM   40  O   UNL     1      42.575 -15.585   2.846  1.00  0.00    -0.322 OA
HETATM   41  C   UNL     1      43.201 -16.806   3.256  1.00  0.00     0.213 C 
ENDBRANCH  38  40
ENDBRANCH   6  38
TORSDOF 9
ENDMDL
MODEL 10
REMARK VINA RESULT:      -7.2      4.152      7.202
REMARK  9 active torsions:
REMARK  status: ('A' for Active; 'I' for Inactive)
REMARK    1  A    between atoms: C_6  and  N_7 
REMARK    2  A    between atoms: N_7  and  C_8 
REMARK    3  A    between atoms: C_10  and  S_11 
REMARK    4  A    between atoms: S_11  and  C_12 
REMARK    5  A    between atoms: C_15  and  N_16 
REMARK       I    between atoms: N_16  and  C_17 
REMARK    6  A    between atoms: C_17  and  C_18 
REMARK    7  A    between atoms: C_25  and  N_26 
REMARK    8  A    between atoms: C_34  and  C_35 
REMARK    9  A    between atoms: C_35  and  O_36 
ROOT
HETATM    1  C   UNL     1      40.821 -11.335   5.893  1.00  0.00     0.152 A 
HETATM    2  N   UNL     1      41.855 -12.106   6.276  1.00  0.00    -0.204 NA
HETATM    3  C   UNL     1      42.232 -13.118   5.491  1.00  0.00     0.196 A 
HETATM    4  N   UNL     1      41.670 -13.398   4.308  1.00  0.00    -0.209 NA
HETATM    5  C   UNL     1      40.665 -12.609   3.881  1.00  0.00     0.128 A 
HETATM    6  C   UNL     1      40.188 -11.560   4.672  1.00  0.00     0.125 A 
ENDROOT
BRANCH   3   7
HETATM    7  S   UNL     1      43.539 -14.133   6.128  1.00  0.00    -0.050 SA
BRANCH   7   8
HETATM    8  C   UNL     1      43.474 -15.652   5.207  1.00  0.00     0.008 A 
HETATM    9  C   UNL     1      43.522 -15.702   3.812  1.00  0.00     0.021 A 
HETATM   10  C   UNL     1      43.527 -16.929   3.139  1.00  0.00     0.031 A 
HETATM   11  C   UNL     1      43.529 -18.127   3.852  1.00  0.00     0.034 A 
HETATM   12  C   UNL     1      43.519 -18.084   5.248  1.00  0.00     0.031 A 
HETATM   13  C   UNL     1      43.479 -16.858   5.919  1.00  0.00     0.021 A 
BRANCH  11  14
HETATM   14  N   UNL     1      43.598 -19.393   3.240  1.00  0.00    -0.327 N 
HETATM   15  C   UNL     1      44.495 -20.399   3.525  1.00  0.00     0.226 C 
HETATM   16  O   UNL     1      45.470 -20.321   4.261  1.00  0.00    -0.273 OA
HETATM   17  H   UNL     1      42.935 -19.567   2.498  1.00  0.00     0.169 HD
BRANCH  15  18
HETATM   18  C   UNL     1      44.217 -21.695   2.842  1.00  0.00     0.078 A 
HETATM   19  C   UNL     1      43.223 -21.894   1.722  1.00  0.00     0.015 A 
HETATM   20  C   UNL     1      44.693 -21.887   1.420  1.00  0.00     0.015 A 
ENDBRANCH  15  18
ENDBRANCH  11  14
ENDBRANCH   7   8
ENDBRANCH   3   7
BRANCH   1  21
HETATM   21  N   UNL     1      40.442 -10.274   6.735  1.00  0.00    -0.323 N 
HETATM   22  H   UNL     1      40.484  -9.361   6.296  1.00  0.00     0.169 HD
BRANCH  21  23
HETATM   23  C   UNL     1      39.735 -10.273   7.883  1.00  0.00     0.151 A 
HETATM   24  N   UNL     1      39.168 -11.383   8.360  1.00  0.00    -0.157 NA
HETATM   25  N   UNL     1      38.535 -10.980   9.474  1.00  0.00    -0.281 N 
HETATM   26  C   UNL     1      38.648  -9.641   9.717  1.00  0.00     0.027 A 
HETATM   27  H   UNL     1      38.033 -11.676  10.017  1.00  0.00     0.189 HD
HETATM   28  C   UNL     1      38.002  -8.976  10.867  1.00  0.00     0.070 C 
HETATM   29  C   UNL     1      39.431  -9.155   8.693  1.00  0.00     0.078 A 
ENDBRANCH  21  23
ENDBRANCH   1  21
BRANCH   5  30
HETATM   30  N   UNL     1      40.129 -12.910   2.618  1.00  0.00    -0.264 NA
HETATM   31  C   UNL     1      41.033 -12.682   1.475  1.00  0.00     0.125 C 
HETATM   32  C   UNL     1      40.201 -12.638   0.177  1.00  0.00     0.249 C 
HETATM   33  N   UNL     1      39.401 -13.931   0.011  1.00  0.00    -0.073 N 
HETATM   34  H   UNL     1      40.077 -14.703  -0.066  1.00  0.00     0.279 HD
HETATM   35  C   UNL     1      38.580 -13.914  -1.243  1.00  0.00     0.269 C 
HETATM   36  C   UNL     1      38.542 -14.212   1.248  1.00  0.00     0.249 C 
HETATM   37  C   UNL     1      39.395 -14.189   2.536  1.00  0.00     0.125 C 
ENDBRANCH   5  30
BRANCH   6  38
HETATM   38  C   UNL     1      39.004 -10.785   4.252  1.00  0.00     0.300 C 
HETATM   39  O   UNL     1      37.894 -10.895   4.746  1.00  0.00    -0.259 OA
BRANCH  38  40
HETATM   40  O   UNL     1      39.322 -10.020   3.181  1.00  0.00    -0.322 OA
HETATM   41  C   UNL     1      38.284  -9.813   2.216  1.00  0.00     0.213 C 
ENDBRANCH  38  40
ENDBRANCH   6  38
TORSDOF 9
ENDMDL
