MODEL 1
REMARK VINA RESULT:     -10.0      0.000      0.000
REMARK  7 active torsions:
REMARK  status: ('A' for Active; 'I' for Inactive)
REMARK    1  A    between atoms: C_5  and  O_6 
REMARK    2  A    between atoms: O_6  and  C_7 
REMARK    3  A    between atoms: C_7  and  C_8 
REMARK    4  A    between atoms: C_9  and  C_10 
REMARK    5  A    between atoms: C_10  and  N_11 
REMARK       I    between atoms: N_11  and  C_12 
REMARK    6  A    between atoms: C_12  and  C_13 
REMARK    7  A    between atoms: C_17  and  C_18 
ROOT
HETATM    1  N   UNL     1      44.138 -13.252   7.707  1.00  0.00    -0.345 N 
HETATM    2  C   UNL     1      44.883 -12.513   8.593  1.00  0.00     0.270 C 
HETATM    3  O   UNL     1      46.109 -12.543   8.621  1.00  0.00    -0.266 OA
HETATM    4  H   UNL     1      43.138 -13.304   7.818  1.00  0.00     0.163 HD
ENDROOT
BRANCH   1   5
HETATM    5  C   UNL     1      44.755 -14.122   6.736  1.00  0.00     0.217 C 
BRANCH   5   6
HETATM    6  C   UNL     1      44.347 -15.512   6.955  1.00  0.00    -0.085 C 
HETATM    7  C   UNL     1      44.019 -16.644   7.187  1.00  0.00    -0.078 C 
BRANCH   7   8
HETATM    8  C   UNL     1      43.616 -18.018   7.522  1.00  0.00     0.269 C 
BRANCH   8   9
HETATM    9  O   UNL     1      42.840 -18.540   6.446  1.00  0.00    -0.339 OA
BRANCH   9  10
HETATM   10  C   UNL     1      43.504 -19.121   5.391  1.00  0.00     0.081 A 
HETATM   11  C   UNL     1      43.141 -18.660   4.099  1.00  0.00     0.007 A 
HETATM   12  C   UNL     1      43.781 -19.213   2.963  1.00  0.00    -0.023 A 
HETATM   13  C   UNL     1      42.164 -17.662   3.885  1.00  0.00     0.015 A 
HETATM   14  C   UNL     1      43.434 -18.767   1.676  1.00  0.00     0.012 A 
HETATM   15  C   UNL     1      44.757 -20.204   3.133  1.00  0.00     0.012 A 
HETATM   16  C   UNL     1      42.464 -17.781   1.497  1.00  0.00     0.001 A 
HETATM   17  C   UNL     1      41.828 -17.227   2.601  1.00  0.00     0.001 A 
HETATM   18  C   UNL     1      45.104 -20.651   4.406  1.00  0.00     0.004 A 
HETATM   19  C   UNL     1      44.479 -20.114   5.531  1.00  0.00     0.038 A 
ENDBRANCH   9  10
ENDBRANCH   8   9
ENDBRANCH   7   8
ENDBRANCH   5   6
ENDBRANCH   1   5
BRANCH   2  20
HETATM   20  C   UNL     1      44.126 -11.686   9.493  1.00  0.00     0.120 A 
HETATM   21  N   UNL     1      42.926 -11.147   9.123  1.00  0.00    -0.272 N 
HETATM   22  H   UNL     1      42.465 -11.253   8.224  1.00  0.00     0.189 HD
HETATM   23  N   UNL     1      42.334 -10.412  10.075  1.00  0.00    -0.174 NA
HETATM   24  C   UNL     1      43.157 -10.497  11.132  1.00  0.00     0.089 A 
HETATM   25  C   UNL     1      44.307 -11.271  10.798  1.00  0.00     0.071 A 
BRANCH  24  26
HETATM   26  C   UNL     1      42.830  -9.855  12.411  1.00  0.00    -0.005 A 
HETATM   27  C   UNL     1      42.698  -8.461  12.514  1.00  0.00     0.017 A 
HETATM   28  C   UNL     1      42.399  -7.863  13.743  1.00  0.00     0.043 A 
HETATM   29  C   UNL     1      42.230  -8.657  14.870  1.00  0.00     0.116 A 
HETATM   30  F   UNL     1      41.946  -8.081  16.046  1.00  0.00    -0.206 F 
HETATM   31  C   UNL     1      42.356 -10.037  14.796  1.00  0.00     0.043 A 
HETATM   32  C   UNL     1      42.657 -10.634  13.569  1.00  0.00     0.017 A 
ENDBRANCH  24  26
ENDBRANCH   2  20
TORSDOF 7
ENDMDL
MODEL 2
REMARK VINA RESULT:      -9.3      7.204      9.453
REMARK  7 active torsions:
REMARK  status: ('A' for Active; 'I' for Inactive)
REMARK    1  A    between atoms: C_5  and  O_6 
REMARK    2  A    between atoms: O_6  and  C_7 
REMARK    3  A    between atoms: C_7  and  C_8 
REMARK    4  A    between atoms: C_9  and  C_10 
REMARK    5  A    between atoms: C_10  and  N_11 
REMARK       I    between atoms: N_11  and  C_12 
REMARK    6  A    between atoms: C_12  and  C_13 
REMARK    7  A    between atoms: C_17  and  C_18 
ROOT
HETATM    1  N   UNL     1      40.509 -16.117   5.151  1.00  0.00    -0.345 N 
HETATM    2  C   UNL     1      40.291 -14.788   4.886  1.00  0.00     0.270 C 
HETATM    3  O   UNL     1      40.131 -13.949   5.767  1.00  0.00    -0.266 OA
HETATM    4  H   UNL     1      40.491 -16.786   4.398  1.00  0.00     0.163 HD
ENDROOT
BRANCH   1   5
HETATM    5  C   UNL     1      40.569 -16.623   6.500  1.00  0.00     0.217 C 
BRANCH   5   6
HETATM    6  C   UNL     1      41.846 -17.300   6.742  1.00  0.00    -0.085 C 
HETATM    7  C   UNL     1      42.894 -17.870   6.888  1.00  0.00    -0.078 C 
BRANCH   7   8
HETATM    8  C   UNL     1      44.180 -18.571   7.015  1.00  0.00     0.269 C 
BRANCH   8   9
HETATM    9  O   UNL     1      44.937 -18.353   5.827  1.00  0.00    -0.339 OA
BRANCH   9  10
HETATM   10  C   UNL     1      44.685 -19.157   4.740  1.00  0.00     0.081 A 
HETATM   11  C   UNL     1      44.144 -18.508   3.599  1.00  0.00     0.007 A 
HETATM   12  C   UNL     1      43.857 -19.272   2.441  1.00  0.00    -0.023 A 
HETATM   13  C   UNL     1      43.876 -17.122   3.558  1.00  0.00     0.015 A 
HETATM   14  C   UNL     1      43.321 -18.645   1.304  1.00  0.00     0.012 A 
HETATM   15  C   UNL     1      44.109 -20.651   2.442  1.00  0.00     0.012 A 
HETATM   16  C   UNL     1      43.067 -17.275   1.293  1.00  0.00     0.001 A 
HETATM   17  C   UNL     1      43.344 -16.511   2.420  1.00  0.00     0.001 A 
HETATM   18  C   UNL     1      44.638 -21.277   3.568  1.00  0.00     0.004 A 
HETATM   19  C   UNL     1      44.923 -20.535   4.713  1.00  0.00     0.038 A 
ENDBRANCH   9  10
ENDBRANCH   8   9
ENDBRANCH   7   8
ENDBRANCH   5   6
ENDBRANCH   1   5
BRANCH   2  20
HETATM   20  C   UNL     1      40.268 -14.434   3.492  1.00  0.00     0.120 A 
HETATM   21  N   UNL     1      40.623 -13.183   3.072  1.00  0.00    -0.272 N 
HETATM   22  H   UNL     1      40.916 -12.407   3.658  1.00  0.00     0.189 HD
HETATM   23  N   UNL     1      40.565 -13.011   1.744  1.00  0.00    -0.174 NA
HETATM   24  C   UNL     1      40.191 -14.206   1.261  1.00  0.00     0.089 A 
HETATM   25  C   UNL     1      39.973 -15.122   2.332  1.00  0.00     0.071 A 
BRANCH  24  26
HETATM   26  C   UNL     1      40.061 -14.442  -0.182  1.00  0.00    -0.005 A 
HETATM   27  C   UNL     1      38.984 -13.915  -0.912  1.00  0.00     0.017 A 
HETATM   28  C   UNL     1      38.866 -14.160  -2.284  1.00  0.00     0.043 A 
HETATM   29  C   UNL     1      39.824 -14.931  -2.929  1.00  0.00     0.116 A 
HETATM   30  F   UNL     1      39.707 -15.166  -4.243  1.00  0.00    -0.206 F 
HETATM   31  C   UNL     1      40.898 -15.465  -2.231  1.00  0.00     0.043 A 
HETATM   32  C   UNL     1      41.015 -15.223  -0.860  1.00  0.00     0.017 A 
ENDBRANCH  24  26
ENDBRANCH   2  20
TORSDOF 7
ENDMDL
MODEL 3
REMARK VINA RESULT:      -9.3      6.065      8.778
REMARK  7 active torsions:
REMARK  status: ('A' for Active; 'I' for Inactive)
REMARK    1  A    between atoms: C_5  and  O_6 
REMARK    2  A    between atoms: O_6  and  C_7 
REMARK    3  A    between atoms: C_7  and  C_8 
REMARK    4  A    between atoms: C_9  and  C_10 
REMARK    5  A    between atoms: C_10  and  N_11 
REMARK       I    between atoms: N_11  and  C_12 
REMARK    6  A    between atoms: C_12  and  C_13 
REMARK    7  A    between atoms: C_17  and  C_18 
ROOT
HETATM    1  N   UNL     1      43.660 -14.077   5.313  1.00  0.00    -0.345 N 
HETATM    2  C   UNL     1      42.641 -13.178   5.122  1.00  0.00     0.270 C 
HETATM    3  O   UNL     1      42.106 -12.571   6.044  1.00  0.00    -0.266 OA
HETATM    4  H   UNL     1      43.968 -14.654   4.546  1.00  0.00     0.163 HD
ENDROOT
BRANCH   1   5
HETATM    5  C   UNL     1      44.178 -14.371   6.626  1.00  0.00     0.217 C 
BRANCH   5   6
HETATM    6  C   UNL     1      44.363 -15.815   6.797  1.00  0.00    -0.085 C 
HETATM    7  C   UNL     1      44.495 -17.006   6.887  1.00  0.00    -0.078 C 
BRANCH   7   8
HETATM    8  C   UNL     1      44.647 -18.467   6.947  1.00  0.00     0.269 C 
BRANCH   8   9
HETATM    9  O   UNL     1      43.567 -19.066   6.236  1.00  0.00    -0.339 OA
BRANCH   9  10
HETATM   10  C   UNL     1      43.735 -19.317   4.894  1.00  0.00     0.081 A 
HETATM   11  C   UNL     1      42.867 -18.614   4.017  1.00  0.00     0.007 A 
HETATM   12  C   UNL     1      42.980 -18.821   2.620  1.00  0.00    -0.023 A 
HETATM   13  C   UNL     1      41.887 -17.704   4.472  1.00  0.00     0.015 A 
HETATM   14  C   UNL     1      42.129 -18.133   1.739  1.00  0.00     0.012 A 
HETATM   15  C   UNL     1      43.942 -19.715   2.129  1.00  0.00     0.012 A 
HETATM   16  C   UNL     1      41.170 -17.242   2.218  1.00  0.00     0.001 A 
HETATM   17  C   UNL     1      41.048 -17.027   3.585  1.00  0.00     0.001 A 
HETATM   18  C   UNL     1      44.786 -20.401   2.999  1.00  0.00     0.004 A 
HETATM   19  C   UNL     1      44.683 -20.205   4.375  1.00  0.00     0.038 A 
ENDBRANCH   9  10
ENDBRANCH   8   9
ENDBRANCH   7   8
ENDBRANCH   5   6
ENDBRANCH   1   5
BRANCH   2  20
HETATM   20  C   UNL     1      42.240 -12.983   3.754  1.00  0.00     0.120 A 
HETATM   21  N   UNL     1      41.694 -11.802   3.337  1.00  0.00    -0.272 N 
HETATM   22  H   UNL     1      41.511 -10.982   3.908  1.00  0.00     0.189 HD
HETATM   23  N   UNL     1      41.386 -11.769   2.032  1.00  0.00    -0.174 NA
HETATM   24  C   UNL     1      41.775 -12.962   1.559  1.00  0.00     0.089 A 
HETATM   25  C   UNL     1      42.298 -13.763   2.616  1.00  0.00     0.071 A 
BRANCH  24  26
HETATM   26  C   UNL     1      41.650 -13.300   0.136  1.00  0.00    -0.005 A 
HETATM   27  C   UNL     1      41.072 -14.512  -0.277  1.00  0.00     0.017 A 
HETATM   28  C   UNL     1      40.971 -14.826  -1.636  1.00  0.00     0.043 A 
HETATM   29  C   UNL     1      41.446 -13.930  -2.585  1.00  0.00     0.116 A 
HETATM   30  F   UNL     1      41.350 -14.235  -3.886  1.00  0.00    -0.206 F 
HETATM   31  C   UNL     1      42.022 -12.726  -2.205  1.00  0.00     0.043 A 
HETATM   32  C   UNL     1      42.125 -12.413  -0.847  1.00  0.00     0.017 A 
ENDBRANCH  24  26
ENDBRANCH   2  20
TORSDOF 7
ENDMDL
MODEL 4
REMARK VINA RESULT:      -9.3      1.366      2.537
REMARK  7 active torsions:
REMARK  status: ('A' for Active; 'I' for Inactive)
REMARK    1  A    between atoms: C_5  and  O_6 
REMARK    2  A    between atoms: O_6  and  C_7 
REMARK    3  A    between atoms: C_7  and  C_8 
REMARK    4  A    between atoms: C_9  and  C_10 
REMARK    5  A    between atoms: C_10  and  N_11 
REMARK       I    between atoms: N_11  and  C_12 
REMARK    6  A    between atoms: C_12  and  C_13 
REMARK    7  A    between atoms: C_17  and  C_18 
ROOT
HETATM    1  N   UNL     1      44.246 -12.995   8.184  1.00  0.00    -0.345 N 
HETATM    2  C   UNL     1      44.888 -12.095   8.998  1.00  0.00     0.270 C 
HETATM    3  O   UNL     1      46.107 -11.959   9.012  1.00  0.00    -0.266 OA
HETATM    4  H   UNL     1      43.262 -13.170   8.311  1.00  0.00     0.163 HD
ENDROOT
BRANCH   1   5
HETATM    5  C   UNL     1      44.970 -13.850   7.277  1.00  0.00     0.217 C 
BRANCH   5   6
HETATM    6  C   UNL     1      44.263 -13.966   5.999  1.00  0.00    -0.085 C 
HETATM    7  C   UNL     1      43.671 -14.113   4.963  1.00  0.00    -0.078 C 
BRANCH   7   8
HETATM    8  C   UNL     1      42.931 -14.339   3.713  1.00  0.00     0.269 C 
BRANCH   8   9
HETATM    9  O   UNL     1      42.324 -15.627   3.770  1.00  0.00    -0.339 OA
BRANCH   9  10
HETATM   10  C   UNL     1      42.887 -16.643   3.034  1.00  0.00     0.081 A 
HETATM   11  C   UNL     1      43.335 -17.770   3.772  1.00  0.00     0.007 A 
HETATM   12  C   UNL     1      43.928 -18.856   3.082  1.00  0.00    -0.023 A 
HETATM   13  C   UNL     1      43.215 -17.866   5.176  1.00  0.00     0.015 A 
HETATM   14  C   UNL     1      44.375 -19.980   3.798  1.00  0.00     0.012 A 
HETATM   15  C   UNL     1      44.063 -18.800   1.689  1.00  0.00     0.012 A 
HETATM   16  C   UNL     1      44.245 -20.046   5.184  1.00  0.00     0.001 A 
HETATM   17  C   UNL     1      43.664 -18.989   5.875  1.00  0.00     0.001 A 
HETATM   18  C   UNL     1      43.622 -17.687   0.975  1.00  0.00     0.004 A 
HETATM   19  C   UNL     1      43.038 -16.613   1.644  1.00  0.00     0.038 A 
ENDBRANCH   9  10
ENDBRANCH   8   9
ENDBRANCH   7   8
ENDBRANCH   5   6
ENDBRANCH   1   5
BRANCH   2  20
HETATM   20  C   UNL     1      44.029 -11.305   9.839  1.00  0.00     0.120 A 
HETATM   21  N   UNL     1      43.058 -10.504   9.309  1.00  0.00    -0.272 N 
HETATM   22  H   UNL     1      42.849 -10.375   8.323  1.00  0.00     0.189 HD
HETATM   23  N   UNL     1      42.330  -9.843  10.221  1.00  0.00    -0.174 NA
HETATM   24  C   UNL     1      42.816 -10.248  11.404  1.00  0.00     0.089 A 
HETATM   25  C   UNL     1      43.900 -11.152  11.206  1.00  0.00     0.071 A 
BRANCH  24  26
HETATM   26  C   UNL     1      42.239  -9.779  12.670  1.00  0.00    -0.005 A 
HETATM   27  C   UNL     1      41.008  -9.106  12.704  1.00  0.00     0.017 A 
HETATM   28  C   UNL     1      40.477  -8.653  13.917  1.00  0.00     0.043 A 
HETATM   29  C   UNL     1      41.176  -8.873  15.097  1.00  0.00     0.116 A 
HETATM   30  F   UNL     1      40.666  -8.436  16.256  1.00  0.00    -0.206 F 
HETATM   31  C   UNL     1      42.395  -9.536  15.091  1.00  0.00     0.043 A 
HETATM   32  C   UNL     1      42.926  -9.986  13.879  1.00  0.00     0.017 A 
ENDBRANCH  24  26
ENDBRANCH   2  20
TORSDOF 7
ENDMDL
MODEL 5
REMARK VINA RESULT:      -9.2      4.437     10.860
REMARK  7 active torsions:
REMARK  status: ('A' for Active; 'I' for Inactive)
REMARK    1  A    between atoms: C_5  and  O_6 
REMARK    2  A    between atoms: O_6  and  C_7 
REMARK    3  A    between atoms: C_7  and  C_8 
REMARK    4  A    between atoms: C_9  and  C_10 
REMARK    5  A    between atoms: C_10  and  N_11 
REMARK       I    between atoms: N_11  and  C_12 
REMARK    6  A    between atoms: C_12  and  C_13 
REMARK    7  A    between atoms: C_17  and  C_18 
ROOT
HETATM    1  N   UNL     1      40.257 -14.013   6.389  1.00  0.00    -0.345 N 
HETATM    2  C   UNL     1      40.511 -14.875   5.351  1.00  0.00     0.270 C 
HETATM    3  O   UNL     1      39.993 -14.758   4.245  1.00  0.00    -0.266 OA
HETATM    4  H   UNL     1      40.593 -14.232   7.314  1.00  0.00     0.163 HD
ENDROOT
BRANCH   1   5
HETATM    5  C   UNL     1      39.355 -12.898   6.248  1.00  0.00     0.217 C 
BRANCH   5   6
HETATM    6  C   UNL     1      39.415 -12.031   7.428  1.00  0.00    -0.085 C 
HETATM    7  C   UNL     1      39.516 -11.305   8.380  1.00  0.00    -0.078 C 
BRANCH   7   8
HETATM    8  C   UNL     1      39.682 -10.399   9.526  1.00  0.00     0.269 C 
BRANCH   8   9
HETATM    9  O   UNL     1      40.909  -9.690   9.370  1.00  0.00    -0.339 OA
BRANCH   9  10
HETATM   10  C   UNL     1      41.811  -9.721  10.408  1.00  0.00     0.081 A 
HETATM   11  C   UNL     1      42.993 -10.473  10.182  1.00  0.00     0.007 A 
HETATM   12  C   UNL     1      43.969 -10.552  11.205  1.00  0.00    -0.023 A 
HETATM   13  C   UNL     1      43.251 -11.154   8.971  1.00  0.00     0.015 A 
HETATM   14  C   UNL     1      45.144 -11.293  10.997  1.00  0.00     0.012 A 
HETATM   15  C   UNL     1      43.752  -9.889  12.421  1.00  0.00     0.012 A 
HETATM   16  C   UNL     1      45.370 -11.956   9.792  1.00  0.00     0.001 A 
HETATM   17  C   UNL     1      44.424 -11.887   8.777  1.00  0.00     0.001 A 
HETATM   18  C   UNL     1      42.587  -9.155  12.633  1.00  0.00     0.004 A 
HETATM   19  C   UNL     1      41.619  -9.072  11.632  1.00  0.00     0.038 A 
ENDBRANCH   9  10
ENDBRANCH   8   9
ENDBRANCH   7   8
ENDBRANCH   5   6
ENDBRANCH   1   5
BRANCH   2  20
HETATM   20  C   UNL     1      41.441 -15.932   5.643  1.00  0.00     0.120 A 
HETATM   21  N   UNL     1      42.139 -15.960   6.817  1.00  0.00    -0.272 N 
HETATM   22  H   UNL     1      42.093 -15.276   7.567  1.00  0.00     0.189 HD
HETATM   23  N   UNL     1      42.955 -17.016   6.949  1.00  0.00    -0.174 NA
HETATM   24  C   UNL     1      42.763 -17.736   5.833  1.00  0.00     0.089 A 
HETATM   25  C   UNL     1      41.834 -17.076   4.976  1.00  0.00     0.071 A 
BRANCH  24  26
HETATM   26  C   UNL     1      43.452 -19.015   5.619  1.00  0.00    -0.005 A 
HETATM   27  C   UNL     1      43.493 -19.997   6.622  1.00  0.00     0.017 A 
HETATM   28  C   UNL     1      44.164 -21.205   6.408  1.00  0.00     0.043 A 
HETATM   29  C   UNL     1      44.794 -21.435   5.192  1.00  0.00     0.116 A 
HETATM   30  F   UNL     1      45.438 -22.593   4.992  1.00  0.00    -0.206 F 
HETATM   31  C   UNL     1      44.769 -20.482   4.184  1.00  0.00     0.043 A 
HETATM   32  C   UNL     1      44.101 -19.273   4.398  1.00  0.00     0.017 A 
ENDBRANCH  24  26
ENDBRANCH   2  20
TORSDOF 7
ENDMDL
MODEL 6
REMARK VINA RESULT:      -9.2      2.604      3.201
REMARK  7 active torsions:
REMARK  status: ('A' for Active; 'I' for Inactive)
REMARK    1  A    between atoms: C_5  and  O_6 
REMARK    2  A    between atoms: O_6  and  C_7 
REMARK    3  A    between atoms: C_7  and  C_8 
REMARK    4  A    between atoms: C_9  and  C_10 
REMARK    5  A    between atoms: C_10  and  N_11 
REMARK       I    between atoms: N_11  and  C_12 
REMARK    6  A    between atoms: C_12  and  C_13 
REMARK    7  A    between atoms: C_17  and  C_18 
ROOT
HETATM    1  N   UNL     1      40.571 -12.301   6.662  1.00  0.00    -0.345 N 
HETATM    2  C   UNL     1      40.113 -11.294   7.475  1.00  0.00     0.270 C 
HETATM    3  O   UNL     1      39.101 -10.647   7.229  1.00  0.00    -0.266 OA
HETATM    4  H   UNL     1      41.479 -12.704   6.830  1.00  0.00     0.163 HD
ENDROOT
BRANCH   1   5
HETATM    5  C   UNL     1      39.884 -12.672   5.451  1.00  0.00     0.217 C 
BRANCH   5   6
HETATM    6  C   UNL     1      40.293 -14.009   5.012  1.00  0.00    -0.085 C 
HETATM    7  C   UNL     1      40.636 -15.119   4.705  1.00  0.00    -0.078 C 
BRANCH   7   8
HETATM    8  C   UNL     1      41.055 -16.490   4.379  1.00  0.00     0.269 C 
BRANCH   8   9
HETATM    9  O   UNL     1      42.411 -16.460   3.942  1.00  0.00    -0.339 OA
BRANCH   9  10
HETATM   10  C   UNL     1      43.304 -17.318   4.541  1.00  0.00     0.081 A 
HETATM   11  C   UNL     1      43.599 -18.507   3.824  1.00  0.00     0.007 A 
HETATM   12  C   UNL     1      44.509 -19.440   4.378  1.00  0.00    -0.023 A 
HETATM   13  C   UNL     1      43.025 -18.810   2.569  1.00  0.00     0.015 A 
HETATM   14  C   UNL     1      44.812 -20.622   3.681  1.00  0.00     0.012 A 
HETATM   15  C   UNL     1      45.101 -19.176   5.620  1.00  0.00     0.012 A 
HETATM   16  C   UNL     1      44.229 -20.895   2.444  1.00  0.00     0.001 A 
HETATM   17  C   UNL     1      43.335 -19.989   1.886  1.00  0.00     0.001 A 
HETATM   18  C   UNL     1      44.802 -18.006   6.316  1.00  0.00     0.004 A 
HETATM   19  C   UNL     1      43.907 -17.081   5.780  1.00  0.00     0.038 A 
ENDBRANCH   9  10
ENDBRANCH   8   9
ENDBRANCH   7   8
ENDBRANCH   5   6
ENDBRANCH   1   5
BRANCH   2  20
HETATM   20  C   UNL     1      40.901 -11.048   8.653  1.00  0.00     0.120 A 
HETATM   21  N   UNL     1      42.266 -11.031   8.603  1.00  0.00    -0.272 N 
HETATM   22  H   UNL     1      42.845 -11.189   7.784  1.00  0.00     0.189 HD
HETATM   23  N   UNL     1      42.858 -10.772   9.778  1.00  0.00    -0.174 NA
HETATM   24  C   UNL     1      41.844 -10.576  10.634  1.00  0.00     0.089 A 
HETATM   25  C   UNL     1      40.596 -10.762   9.970  1.00  0.00     0.071 A 
BRANCH  24  26
HETATM   26  C   UNL     1      42.085 -10.214  12.037  1.00  0.00    -0.005 A 
HETATM   27  C   UNL     1      43.245  -9.523  12.422  1.00  0.00     0.017 A 
HETATM   28  C   UNL     1      43.467  -9.197  13.764  1.00  0.00     0.043 A 
HETATM   29  C   UNL     1      42.530  -9.560  14.723  1.00  0.00     0.116 A 
HETATM   30  F   UNL     1      42.747  -9.248  16.008  1.00  0.00    -0.206 F 
HETATM   31  C   UNL     1      41.376 -10.244  14.370  1.00  0.00     0.043 A 
HETATM   32  C   UNL     1      41.155 -10.572  13.029  1.00  0.00     0.017 A 
ENDBRANCH  24  26
ENDBRANCH   2  20
TORSDOF 7
ENDMDL
MODEL 7
REMARK VINA RESULT:      -9.1      7.069      9.226
REMARK  7 active torsions:
REMARK  status: ('A' for Active; 'I' for Inactive)
REMARK    1  A    between atoms: C_5  and  O_6 
REMARK    2  A    between atoms: O_6  and  C_7 
REMARK    3  A    between atoms: C_7  and  C_8 
REMARK    4  A    between atoms: C_9  and  C_10 
REMARK    5  A    between atoms: C_10  and  N_11 
REMARK       I    between atoms: N_11  and  C_12 
REMARK    6  A    between atoms: C_12  and  C_13 
REMARK    7  A    between atoms: C_17  and  C_18 
ROOT
HETATM    1  N   UNL     1      40.677 -16.084   4.982  1.00  0.00    -0.345 N 
HETATM    2  C   UNL     1      40.222 -14.874   4.519  1.00  0.00     0.270 C 
HETATM    3  O   UNL     1      39.768 -14.005   5.256  1.00  0.00    -0.266 OA
HETATM    4  H   UNL     1      40.905 -16.815   4.327  1.00  0.00     0.163 HD
ENDROOT
BRANCH   1   5
HETATM    5  C   UNL     1      40.653 -16.418   6.384  1.00  0.00     0.217 C 
BRANCH   5   6
HETATM    6  C   UNL     1      41.816 -17.236   6.740  1.00  0.00    -0.085 C 
HETATM    7  C   UNL     1      42.764 -17.933   6.984  1.00  0.00    -0.078 C 
BRANCH   7   8
HETATM    8  C   UNL     1      43.922 -18.804   7.234  1.00  0.00     0.269 C 
BRANCH   8   9
HETATM    9  O   UNL     1      44.825 -18.686   6.138  1.00  0.00    -0.339 OA
BRANCH   9  10
HETATM   10  C   UNL     1      44.647 -19.522   5.060  1.00  0.00     0.081 A 
HETATM   11  C   UNL     1      44.185 -18.906   3.867  1.00  0.00     0.007 A 
HETATM   12  C   UNL     1      43.978 -19.703   2.714  1.00  0.00    -0.023 A 
HETATM   13  C   UNL     1      43.920 -17.522   3.769  1.00  0.00     0.015 A 
HETATM   14  C   UNL     1      43.520 -19.110   1.526  1.00  0.00     0.012 A 
HETATM   15  C   UNL     1      44.230 -21.080   2.770  1.00  0.00     0.012 A 
HETATM   16  C   UNL     1      43.266 -17.740   1.459  1.00  0.00     0.001 A 
HETATM   17  C   UNL     1      43.466 -16.945   2.581  1.00  0.00     0.001 A 
HETATM   18  C   UNL     1      44.682 -21.674   3.947  1.00  0.00     0.004 A 
HETATM   19  C   UNL     1      44.888 -20.899   5.088  1.00  0.00     0.038 A 
ENDBRANCH   9  10
ENDBRANCH   8   9
ENDBRANCH   7   8
ENDBRANCH   5   6
ENDBRANCH   1   5
BRANCH   2  20
HETATM   20  C   UNL     1      40.320 -14.683   3.096  1.00  0.00     0.120 A 
HETATM   21  N   UNL     1      39.359 -15.159   2.249  1.00  0.00    -0.272 N 
HETATM   22  H   UNL     1      38.524 -15.677   2.508  1.00  0.00     0.189 HD
HETATM   23  N   UNL     1      39.583 -14.889   0.955  1.00  0.00    -0.174 NA
HETATM   24  C   UNL     1      40.719 -14.176   0.947  1.00  0.00     0.089 A 
HETATM   25  C   UNL     1      41.225 -14.043   2.273  1.00  0.00     0.071 A 
BRANCH  24  26
HETATM   26  C   UNL     1      41.279 -13.641  -0.301  1.00  0.00    -0.005 A 
HETATM   27  C   UNL     1      42.083 -12.490  -0.303  1.00  0.00     0.017 A 
HETATM   28  C   UNL     1      42.599 -11.985  -1.501  1.00  0.00     0.043 A 
HETATM   29  C   UNL     1      42.312 -12.628  -2.698  1.00  0.00     0.116 A 
HETATM   30  F   UNL     1      42.805 -12.140  -3.844  1.00  0.00    -0.206 F 
HETATM   31  C   UNL     1      41.518 -13.767  -2.724  1.00  0.00     0.043 A 
HETATM   32  C   UNL     1      41.001 -14.270  -1.527  1.00  0.00     0.017 A 
ENDBRANCH  24  26
ENDBRANCH   2  20
TORSDOF 7
ENDMDL
MODEL 8
REMARK VINA RESULT:      -9.1      6.277      9.626
REMARK  7 active torsions:
REMARK  status: ('A' for Active; 'I' for Inactive)
REMARK    1  A    between atoms: C_5  and  O_6 
REMARK    2  A    between atoms: O_6  and  C_7 
REMARK    3  A    between atoms: C_7  and  C_8 
REMARK    4  A    between atoms: C_9  and  C_10 
REMARK    5  A    between atoms: C_10  and  N_11 
REMARK       I    between atoms: N_11  and  C_12 
REMARK    6  A    between atoms: C_12  and  C_13 
REMARK    7  A    between atoms: C_17  and  C_18 
ROOT
HETATM    1  N   UNL     1      42.300 -13.633   4.741  1.00  0.00    -0.345 N 
HETATM    2  C   UNL     1      42.883 -13.645   3.498  1.00  0.00     0.270 C 
HETATM    3  O   UNL     1      44.097 -13.578   3.330  1.00  0.00    -0.266 OA
HETATM    4  H   UNL     1      41.300 -13.545   4.822  1.00  0.00     0.163 HD
ENDROOT
BRANCH   1   5
HETATM    5  C   UNL     1      43.084 -13.543   5.948  1.00  0.00     0.217 C 
BRANCH   5   6
HETATM    6  C   UNL     1      43.431 -14.879   6.439  1.00  0.00    -0.085 C 
HETATM    7  C   UNL     1      43.663 -15.988   6.839  1.00  0.00    -0.078 C 
BRANCH   7   8
HETATM    8  C   UNL     1      43.898 -17.359   7.317  1.00  0.00     0.269 C 
BRANCH   8   9
HETATM    9  O   UNL     1      43.055 -18.246   6.587  1.00  0.00    -0.339 OA
BRANCH   9  10
HETATM   10  C   UNL     1      43.586 -18.892   5.495  1.00  0.00     0.081 A 
HETATM   11  C   UNL     1      42.998 -18.579   4.241  1.00  0.00     0.007 A 
HETATM   12  C   UNL     1      43.491 -19.206   3.071  1.00  0.00    -0.023 A 
HETATM   13  C   UNL     1      41.935 -17.659   4.100  1.00  0.00     0.015 A 
HETATM   14  C   UNL     1      42.921 -18.906   1.822  1.00  0.00     0.012 A 
HETATM   15  C   UNL     1      44.546 -20.123   3.169  1.00  0.00     0.012 A 
HETATM   16  C   UNL     1      41.871 -17.995   1.714  1.00  0.00     0.001 A 
HETATM   17  C   UNL     1      41.377 -17.370   2.852  1.00  0.00     0.001 A 
HETATM   18  C   UNL     1      45.114 -20.425   4.405  1.00  0.00     0.004 A 
HETATM   19  C   UNL     1      44.635 -19.814   5.564  1.00  0.00     0.038 A 
ENDBRANCH   9  10
ENDBRANCH   8   9
ENDBRANCH   7   8
ENDBRANCH   5   6
ENDBRANCH   1   5
BRANCH   2  20
HETATM   20  C   UNL     1      41.971 -13.749   2.391  1.00  0.00     0.120 A 
HETATM   21  N   UNL     1      40.793 -13.057   2.375  1.00  0.00    -0.272 N 
HETATM   22  H   UNL     1      40.444 -12.437   3.099  1.00  0.00     0.189 HD
HETATM   23  N   UNL     1      40.059 -13.245   1.269  1.00  0.00    -0.174 NA
HETATM   24  C   UNL     1      40.795 -14.067   0.506  1.00  0.00     0.089 A 
HETATM   25  C   UNL     1      41.996 -14.424   1.187  1.00  0.00     0.071 A 
BRANCH  24  26
HETATM   26  C   UNL     1      40.348 -14.477  -0.831  1.00  0.00    -0.005 A 
HETATM   27  C   UNL     1      41.051 -15.442  -1.569  1.00  0.00     0.017 A 
HETATM   28  C   UNL     1      40.621 -15.814  -2.847  1.00  0.00     0.043 A 
HETATM   29  C   UNL     1      39.487 -15.223  -3.389  1.00  0.00     0.116 A 
HETATM   30  F   UNL     1      39.079 -15.579  -4.614  1.00  0.00    -0.206 F 
HETATM   31  C   UNL     1      38.774 -14.266  -2.680  1.00  0.00     0.043 A 
HETATM   32  C   UNL     1      39.205 -13.893  -1.405  1.00  0.00     0.017 A 
ENDBRANCH  24  26
ENDBRANCH   2  20
TORSDOF 7
ENDMDL
MODEL 9
REMARK VINA RESULT:      -9.0      4.664     11.669
REMARK  7 active torsions:
REMARK  status: ('A' for Active; 'I' for Inactive)
REMARK    1  A    between atoms: C_5  and  O_6 
REMARK    2  A    between atoms: O_6  and  C_7 
REMARK    3  A    between atoms: C_7  and  C_8 
REMARK    4  A    between atoms: C_9  and  C_10 
REMARK    5  A    between atoms: C_10  and  N_11 
REMARK       I    between atoms: N_11  and  C_12 
REMARK    6  A    between atoms: C_12  and  C_13 
REMARK    7  A    between atoms: C_17  and  C_18 
ROOT
HETATM    1  N   UNL     1      40.446 -14.269   5.736  1.00  0.00    -0.345 N 
HETATM    2  C   UNL     1      40.488 -14.835   4.486  1.00  0.00     0.270 C 
HETATM    3  O   UNL     1      39.726 -14.512   3.581  1.00  0.00    -0.266 OA
HETATM    4  H   UNL     1      40.993 -14.666   6.483  1.00  0.00     0.163 HD
ENDROOT
BRANCH   1   5
HETATM    5  C   UNL     1      39.493 -13.241   6.072  1.00  0.00     0.217 C 
BRANCH   5   6
HETATM    6  C   UNL     1      40.179 -12.028   6.524  1.00  0.00    -0.085 C 
HETATM    7  C   UNL     1      40.778 -11.064   6.921  1.00  0.00    -0.078 C 
BRANCH   7   8
HETATM    8  C   UNL     1      41.547  -9.917   7.425  1.00  0.00     0.269 C 
BRANCH   8   9
HETATM    9  O   UNL     1      41.410  -9.864   8.842  1.00  0.00    -0.339 OA
BRANCH   9  10
HETATM   10  C   UNL     1      42.484 -10.249   9.611  1.00  0.00     0.081 A 
HETATM   11  C   UNL     1      42.513  -9.739  10.936  1.00  0.00     0.007 A 
HETATM   12  C   UNL     1      43.589 -10.091  11.788  1.00  0.00    -0.023 A 
HETATM   13  C   UNL     1      41.510  -8.891  11.456  1.00  0.00     0.015 A 
HETATM   14  C   UNL     1      43.633  -9.595  13.102  1.00  0.00     0.012 A 
HETATM   15  C   UNL     1      44.604 -10.931  11.310  1.00  0.00     0.012 A 
HETATM   16  C   UNL     1      42.629  -8.758  13.587  1.00  0.00     0.001 A 
HETATM   17  C   UNL     1      41.566  -8.406  12.764  1.00  0.00     0.001 A 
HETATM   18  C   UNL     1      44.566 -11.424  10.007  1.00  0.00     0.004 A 
HETATM   19  C   UNL     1      43.512 -11.083   9.161  1.00  0.00     0.038 A 
ENDBRANCH   9  10
ENDBRANCH   8   9
ENDBRANCH   7   8
ENDBRANCH   5   6
ENDBRANCH   1   5
BRANCH   2  20
HETATM   20  C   UNL     1      41.500 -15.840   4.300  1.00  0.00     0.120 A 
HETATM   21  N   UNL     1      42.730 -15.726   4.884  1.00  0.00    -0.272 N 
HETATM   22  H   UNL     1      43.054 -14.963   5.472  1.00  0.00     0.189 HD
HETATM   23  N   UNL     1      43.558 -16.749   4.629  1.00  0.00    -0.174 NA
HETATM   24  C   UNL     1      42.837 -17.592   3.875  1.00  0.00     0.089 A 
HETATM   25  C   UNL     1      41.544 -17.046   3.627  1.00  0.00     0.071 A 
BRANCH  24  26
HETATM   26  C   UNL     1      43.386 -18.877   3.424  1.00  0.00    -0.005 A 
HETATM   27  C   UNL     1      43.012 -19.436   2.192  1.00  0.00     0.017 A 
HETATM   28  C   UNL     1      43.533 -20.668   1.782  1.00  0.00     0.043 A 
HETATM   29  C   UNL     1      44.430 -21.341   2.601  1.00  0.00     0.116 A 
HETATM   30  F   UNL     1      44.925 -22.522   2.206  1.00  0.00    -0.206 F 
HETATM   31  C   UNL     1      44.816 -20.811   3.824  1.00  0.00     0.043 A 
HETATM   32  C   UNL     1      44.293 -19.582   4.235  1.00  0.00     0.017 A 
ENDBRANCH  24  26
ENDBRANCH   2  20
TORSDOF 7
ENDMDL
MODEL 10
REMARK VINA RESULT:      -8.9      6.350      9.912
REMARK  7 active torsions:
REMARK  status: ('A' for Active; 'I' for Inactive)
REMARK    1  A    between atoms: C_5  and  O_6 
REMARK    2  A    between atoms: O_6  and  C_7 
REMARK    3  A    between atoms: C_7  and  C_8 
REMARK    4  A    between atoms: C_9  and  C_10 
REMARK    5  A    between atoms: C_10  and  N_11 
REMARK       I    between atoms: N_11  and  C_12 
REMARK    6  A    between atoms: C_12  and  C_13 
REMARK    7  A    between atoms: C_17  and  C_18 
ROOT
HETATM    1  N   UNL     1      42.133 -13.824   4.865  1.00  0.00    -0.345 N 
HETATM    2  C   UNL     1      43.116 -14.326   5.681  1.00  0.00     0.270 C 
HETATM    3  O   UNL     1      43.632 -13.673   6.583  1.00  0.00    -0.266 OA
HETATM    4  H   UNL     1      41.844 -14.345   4.053  1.00  0.00     0.163 HD
ENDROOT
BRANCH   1   5
HETATM    5  C   UNL     1      41.632 -12.480   5.017  1.00  0.00     0.217 C 
BRANCH   5   6
HETATM    6  C   UNL     1      40.467 -12.262   4.154  1.00  0.00    -0.085 C 
HETATM    7  C   UNL     1      39.546 -12.080   3.404  1.00  0.00    -0.078 C 
BRANCH   7   8
HETATM    8  C   UNL     1      38.452 -11.863   2.447  1.00  0.00     0.269 C 
BRANCH   8   9
HETATM    9  O   UNL     1      38.275 -13.053   1.681  1.00  0.00    -0.339 OA
BRANCH   9  10
HETATM   10  C   UNL     1      39.220 -13.357   0.730  1.00  0.00     0.081 A 
HETATM   11  C   UNL     1      39.864 -14.614   0.875  1.00  0.00     0.007 A 
HETATM   12  C   UNL     1      40.851 -14.998  -0.067  1.00  0.00    -0.023 A 
HETATM   13  C   UNL     1      39.566 -15.515   1.922  1.00  0.00     0.015 A 
HETATM   14  C   UNL     1      41.498 -16.238   0.062  1.00  0.00     0.012 A 
HETATM   15  C   UNL     1      41.174 -14.133  -1.121  1.00  0.00     0.012 A 
HETATM   16  C   UNL     1      41.183 -17.106   1.107  1.00  0.00     0.001 A 
HETATM   17  C   UNL     1      40.216 -16.745   2.038  1.00  0.00     0.001 A 
HETATM   18  C   UNL     1      40.537 -12.901  -1.252  1.00  0.00     0.004 A 
HETATM   19  C   UNL     1      39.566 -12.513  -0.331  1.00  0.00     0.038 A 
ENDBRANCH   9  10
ENDBRANCH   8   9
ENDBRANCH   7   8
ENDBRANCH   5   6
ENDBRANCH   1   5
BRANCH   2  20
HETATM   20  C   UNL     1      43.503 -15.685   5.414  1.00  0.00     0.120 A 
HETATM   21  N   UNL     1      44.071 -16.464   6.382  1.00  0.00    -0.272 N 
HETATM   22  H   UNL     1      44.280 -16.189   7.337  1.00  0.00     0.189 HD
HETATM   23  N   UNL     1      44.363 -17.711   5.985  1.00  0.00    -0.174 NA
HETATM   24  C   UNL     1      43.939 -17.772   4.713  1.00  0.00     0.089 A 
HETATM   25  C   UNL     1      43.412 -16.510   4.311  1.00  0.00     0.071 A 
BRANCH  24  26
HETATM   26  C   UNL     1      44.038 -19.011   3.931  1.00  0.00    -0.005 A 
HETATM   27  C   UNL     1      44.625 -20.167   4.470  1.00  0.00     0.017 A 
HETATM   28  C   UNL     1      44.724 -21.336   3.708  1.00  0.00     0.043 A 
HETATM   29  C   UNL     1      44.236 -21.352   2.408  1.00  0.00     0.116 A 
HETATM   30  F   UNL     1      44.335 -22.472   1.680  1.00  0.00    -0.206 F 
HETATM   31  C   UNL     1      43.652 -20.222   1.851  1.00  0.00     0.043 A 
HETATM   32  C   UNL     1      43.556 -19.054   2.611  1.00  0.00     0.017 A 
ENDBRANCH  24  26
ENDBRANCH   2  20
TORSDOF 7
ENDMDL
