MODEL 1
REMARK VINA RESULT:      -7.2      0.000      0.000
REMARK  2 active torsions:
REMARK  status: ('A' for Active; 'I' for Inactive)
REMARK    1  A    between atoms: C_2  and  C_3 
REMARK    2  A    between atoms: C_4  and  N_5 
ROOT
HETATM    1  N   UNL     1      42.476 -17.034   5.430  1.00  0.00    -0.321 N 
HETATM    2  C   UNL     1      41.259 -16.603   4.804  1.00  0.00     0.141 C 
HETATM    3  N   UNL     1      40.515 -17.410   4.102  1.00  0.00    -0.380 N 
HETATM    4  H   UNL     1      40.789 -18.380   4.018  1.00  0.00     0.158 HD
HETATM    5  H   UNL     1      39.675 -17.062   3.661  1.00  0.00     0.158 HD
HETATM    6  S   UNL     1      40.934 -14.921   5.014  1.00  0.00    -0.086 SA
HETATM    7  C   UNL     1      42.688 -14.639   5.421  1.00  0.00     0.093 C 
HETATM    8  C   UNL     1      43.091 -15.921   6.180  1.00  0.00     0.121 C 
HETATM    9  C   UNL     1      43.120 -13.501   6.313  1.00  0.00     0.158 C 
HETATM   10  S   UNL     1      44.740 -14.071   6.869  1.00  0.00     0.147 S 
HETATM   11  O   UNL     1      45.755 -13.439   6.054  1.00  0.00    -0.228 OA
HETATM   12  O   UNL     1      44.761 -14.031   8.316  1.00  0.00    -0.228 OA
HETATM   13  C   UNL     1      44.586 -15.792   6.350  1.00  0.00     0.167 C 
ENDROOT
BRANCH   1  14
HETATM   14  C   UNL     1      43.298 -18.063   4.952  1.00  0.00     0.043 A 
HETATM   15  C   UNL     1      43.768 -19.127   5.749  1.00  0.00    -0.028 A 
HETATM   16  C   UNL     1      44.583 -20.106   5.127  1.00  0.00     0.010 A 
HETATM   17  C   UNL     1      44.917 -20.049   3.775  1.00  0.00     0.001 A 
HETATM   18  C   UNL     1      44.438 -19.012   2.995  1.00  0.00     0.002 A 
HETATM   19  C   UNL     1      43.636 -18.034   3.579  1.00  0.00     0.030 A 
BRANCH  15  20
HETATM   20  C   UNL     1      43.458 -19.392   7.224  1.00  0.00     0.013 C 
HETATM   21  C   UNL     1      44.263 -18.639   8.283  1.00  0.00     0.015 C 
HETATM   22  C   UNL     1      43.477 -20.896   7.530  1.00  0.00     0.015 C 
ENDBRANCH  15  20
ENDBRANCH   1  14
TORSDOF 2
ENDMDL
MODEL 2
REMARK VINA RESULT:      -7.1      0.965      2.690
REMARK  2 active torsions:
REMARK  status: ('A' for Active; 'I' for Inactive)
REMARK    1  A    between atoms: C_2  and  C_3 
REMARK    2  A    between atoms: C_4  and  N_5 
ROOT
HETATM    1  N   UNL     1      42.347 -17.326   5.967  1.00  0.00    -0.321 N 
HETATM    2  C   UNL     1      40.982 -17.034   5.635  1.00  0.00     0.141 C 
HETATM    3  N   UNL     1      40.161 -17.949   5.200  1.00  0.00    -0.380 N 
HETATM    4  H   UNL     1      40.490 -18.902   5.119  1.00  0.00     0.158 HD
HETATM    5  H   UNL     1      39.213 -17.699   4.960  1.00  0.00     0.158 HD
HETATM    6  S   UNL     1      40.573 -15.366   5.801  1.00  0.00    -0.086 SA
HETATM    7  C   UNL     1      42.342 -14.933   5.736  1.00  0.00     0.093 C 
HETATM    8  C   UNL     1      43.027 -16.111   6.459  1.00  0.00     0.121 C 
HETATM    9  C   UNL     1      42.877 -13.693   6.409  1.00  0.00     0.158 C 
HETATM   10  S   UNL     1      44.628 -14.102   6.582  1.00  0.00     0.147 S 
HETATM   11  O   UNL     1      45.355 -13.479   5.498  1.00  0.00    -0.228 OA
HETATM   12  O   UNL     1      44.997 -13.930   7.972  1.00  0.00    -0.228 OA
HETATM   13  C   UNL     1      44.501 -15.869   6.241  1.00  0.00     0.167 C 
ENDROOT
BRANCH   1  14
HETATM   14  C   UNL     1      43.114 -18.337   5.373  1.00  0.00     0.043 A 
HETATM   15  C   UNL     1      43.427 -18.379   3.999  1.00  0.00    -0.028 A 
HETATM   16  C   UNL     1      44.225 -19.458   3.539  1.00  0.00     0.010 A 
HETATM   17  C   UNL     1      44.703 -20.450   4.393  1.00  0.00     0.001 A 
HETATM   18  C   UNL     1      44.405 -20.391   5.743  1.00  0.00     0.002 A 
HETATM   19  C   UNL     1      43.622 -19.345   6.224  1.00  0.00     0.030 A 
BRANCH  15  20
HETATM   20  C   UNL     1      43.050 -17.356   2.926  1.00  0.00     0.013 C 
HETATM   21  C   UNL     1      41.731 -17.541   2.176  1.00  0.00     0.015 C 
HETATM   22  C   UNL     1      44.195 -17.162   1.922  1.00  0.00     0.015 C 
ENDBRANCH  15  20
ENDBRANCH   1  14
TORSDOF 2
ENDMDL
MODEL 3
REMARK VINA RESULT:      -6.5      2.912      3.672
REMARK  2 active torsions:
REMARK  status: ('A' for Active; 'I' for Inactive)
REMARK    1  A    between atoms: C_2  and  C_3 
REMARK    2  A    between atoms: C_4  and  N_5 
ROOT
HETATM    1  N   UNL     1      42.003 -15.893   4.513  1.00  0.00    -0.321 N 
HETATM    2  C   UNL     1      40.887 -15.821   5.410  1.00  0.00     0.141 C 
HETATM    3  N   UNL     1      40.707 -16.686   6.369  1.00  0.00    -0.380 N 
HETATM    4  H   UNL     1      41.393 -17.417   6.502  1.00  0.00     0.158 HD
HETATM    5  H   UNL     1      39.898 -16.611   6.967  1.00  0.00     0.158 HD
HETATM    6  S   UNL     1      39.791 -14.538   5.046  1.00  0.00    -0.086 SA
HETATM    7  C   UNL     1      40.470 -14.446   3.358  1.00  0.00     0.093 C 
HETATM    8  C   UNL     1      41.965 -14.772   3.554  1.00  0.00     0.121 C 
HETATM    9  C   UNL     1      40.447 -13.162   2.565  1.00  0.00     0.158 C 
HETATM   10  S   UNL     1      41.748 -13.464   1.350  1.00  0.00     0.147 S 
HETATM   11  O   UNL     1      41.133 -13.901   0.115  1.00  0.00    -0.228 OA
HETATM   12  O   UNL     1      42.686 -12.362   1.409  1.00  0.00    -0.228 OA
HETATM   13  C   UNL     1      42.502 -14.896   2.147  1.00  0.00     0.167 C 
ENDROOT
BRANCH   1  14
HETATM   14  C   UNL     1      42.655 -17.078   4.144  1.00  0.00     0.043 A 
HETATM   15  C   UNL     1      43.665 -17.690   4.913  1.00  0.00    -0.028 A 
HETATM   16  C   UNL     1      44.227 -18.895   4.421  1.00  0.00     0.010 A 
HETATM   17  C   UNL     1      43.810 -19.481   3.227  1.00  0.00     0.001 A 
HETATM   18  C   UNL     1      42.807 -18.882   2.486  1.00  0.00     0.002 A 
HETATM   19  C   UNL     1      42.236 -17.697   2.943  1.00  0.00     0.030 A 
BRANCH  15  20
HETATM   20  C   UNL     1      44.205 -17.237   6.271  1.00  0.00     0.013 C 
HETATM   21  C   UNL     1      44.457 -15.745   6.491  1.00  0.00     0.015 C 
HETATM   22  C   UNL     1      45.455 -18.038   6.663  1.00  0.00     0.015 C 
ENDBRANCH  15  20
ENDBRANCH   1  14
TORSDOF 2
ENDMDL
MODEL 4
REMARK VINA RESULT:      -6.5      3.846      4.939
REMARK  2 active torsions:
REMARK  status: ('A' for Active; 'I' for Inactive)
REMARK    1  A    between atoms: C_2  and  C_3 
REMARK    2  A    between atoms: C_4  and  N_5 
ROOT
HETATM    1  N   UNL     1      42.894 -14.881   2.743  1.00  0.00    -0.321 N 
HETATM    2  C   UNL     1      43.216 -13.893   3.733  1.00  0.00     0.141 C 
HETATM    3  N   UNL     1      44.247 -14.008   4.520  1.00  0.00    -0.380 N 
HETATM    4  H   UNL     1      44.858 -14.807   4.412  1.00  0.00     0.158 HD
HETATM    5  H   UNL     1      44.428 -13.301   5.218  1.00  0.00     0.158 HD
HETATM    6  S   UNL     1      42.073 -12.602   3.816  1.00  0.00    -0.086 SA
HETATM    7  C   UNL     1      40.844 -13.644   2.964  1.00  0.00     0.093 C 
HETATM    8  C   UNL     1      41.697 -14.474   1.981  1.00  0.00     0.121 C 
HETATM    9  C   UNL     1      39.746 -13.043   2.121  1.00  0.00     0.158 C 
HETATM   10  S   UNL     1      39.292 -14.438   1.068  1.00  0.00     0.147 S 
HETATM   11  O   UNL     1      38.121 -15.075   1.628  1.00  0.00    -0.228 OA
HETATM   12  O   UNL     1      39.362 -14.004  -0.312  1.00  0.00    -0.228 OA
HETATM   13  C   UNL     1      40.725 -15.480   1.411  1.00  0.00     0.167 C 
ENDROOT
BRANCH   1  14
HETATM   14  C   UNL     1      43.198 -16.244   2.848  1.00  0.00     0.043 A 
HETATM   15  C   UNL     1      42.775 -17.063   3.915  1.00  0.00    -0.028 A 
HETATM   16  C   UNL     1      43.147 -18.431   3.884  1.00  0.00     0.010 A 
HETATM   17  C   UNL     1      43.897 -18.976   2.843  1.00  0.00     0.001 A 
HETATM   18  C   UNL     1      44.294 -18.170   1.791  1.00  0.00     0.002 A 
HETATM   19  C   UNL     1      43.945 -16.822   1.795  1.00  0.00     0.030 A 
BRANCH  15  20
HETATM   20  C   UNL     1      41.899 -16.663   5.104  1.00  0.00     0.013 C 
HETATM   21  C   UNL     1      42.573 -16.422   6.455  1.00  0.00     0.015 C 
HETATM   22  C   UNL     1      40.725 -17.636   5.276  1.00  0.00     0.015 C 
ENDBRANCH  15  20
ENDBRANCH   1  14
TORSDOF 2
ENDMDL
MODEL 5
REMARK VINA RESULT:      -6.4      3.157      5.593
REMARK  2 active torsions:
REMARK  status: ('A' for Active; 'I' for Inactive)
REMARK    1  A    between atoms: C_2  and  C_3 
REMARK    2  A    between atoms: C_4  and  N_5 
ROOT
HETATM    1  N   UNL     1      42.365 -17.284   6.075  1.00  0.00    -0.321 N 
HETATM    2  C   UNL     1      43.224 -17.715   7.140  1.00  0.00     0.141 C 
HETATM    3  N   UNL     1      43.129 -17.234   8.347  1.00  0.00    -0.380 N 
HETATM    4  H   UNL     1      42.408 -16.554   8.548  1.00  0.00     0.158 HD
HETATM    5  H   UNL     1      43.766 -17.549   9.064  1.00  0.00     0.158 HD
HETATM    6  S   UNL     1      44.418 -18.858   6.643  1.00  0.00    -0.086 SA
HETATM    7  C   UNL     1      44.185 -18.338   4.912  1.00  0.00     0.093 C 
HETATM    8  C   UNL     1      42.678 -18.017   4.833  1.00  0.00     0.121 C 
HETATM    9  C   UNL     1      44.448 -19.280   3.762  1.00  0.00     0.158 C 
HETATM   10  S   UNL     1      43.481 -18.517   2.441  1.00  0.00     0.147 S 
HETATM   11  O   UNL     1      44.371 -17.723   1.620  1.00  0.00    -0.228 OA
HETATM   12  O   UNL     1      42.596 -19.521   1.890  1.00  0.00    -0.228 OA
HETATM   13  C   UNL     1      42.506 -17.398   3.466  1.00  0.00     0.167 C 
ENDROOT
BRANCH   1  14
HETATM   14  C   UNL     1      41.787 -16.011   5.982  1.00  0.00     0.043 A 
HETATM   15  C   UNL     1      42.525 -14.825   5.789  1.00  0.00    -0.028 A 
HETATM   16  C   UNL     1      41.805 -13.608   5.700  1.00  0.00     0.010 A 
HETATM   17  C   UNL     1      40.415 -13.555   5.788  1.00  0.00     0.001 A 
HETATM   18  C   UNL     1      39.696 -14.724   5.960  1.00  0.00     0.002 A 
HETATM   19  C   UNL     1      40.376 -15.936   6.053  1.00  0.00     0.030 A 
BRANCH  15  20
HETATM   20  C   UNL     1      44.038 -14.691   5.606  1.00  0.00     0.013 C 
HETATM   21  C   UNL     1      44.858 -14.092   6.749  1.00  0.00     0.015 C 
HETATM   22  C   UNL     1      44.374 -13.970   4.293  1.00  0.00     0.015 C 
ENDBRANCH  15  20
ENDBRANCH   1  14
TORSDOF 2
ENDMDL
MODEL 6
REMARK VINA RESULT:      -6.3      3.874      5.042
REMARK  2 active torsions:
REMARK  status: ('A' for Active; 'I' for Inactive)
REMARK    1  A    between atoms: C_2  and  C_3 
REMARK    2  A    between atoms: C_4  and  N_5 
ROOT
HETATM    1  N   UNL     1      41.615 -13.200   5.235  1.00  0.00    -0.321 N 
HETATM    2  C   UNL     1      40.276 -13.022   5.715  1.00  0.00     0.141 C 
HETATM    3  N   UNL     1      39.951 -13.223   6.961  1.00  0.00    -0.380 N 
HETATM    4  H   UNL     1      40.673 -13.487   7.618  1.00  0.00     0.158 HD
HETATM    5  H   UNL     1      38.992 -13.106   7.255  1.00  0.00     0.158 HD
HETATM    6  S   UNL     1      39.150 -12.594   4.478  1.00  0.00    -0.086 SA
HETATM    7  C   UNL     1      40.307 -13.223   3.218  1.00  0.00     0.093 C 
HETATM    8  C   UNL     1      41.694 -12.873   3.797  1.00  0.00     0.121 C 
HETATM    9  C   UNL     1      40.318 -12.676   1.812  1.00  0.00     0.158 C 
HETATM   10  S   UNL     1      41.971 -13.143   1.254  1.00  0.00     0.147 S 
HETATM   11  O   UNL     1      41.868 -14.357   0.474  1.00  0.00    -0.228 OA
HETATM   12  O   UNL     1      42.636 -11.953   0.765  1.00  0.00    -0.228 OA
HETATM   13  C   UNL     1      42.665 -13.561   2.866  1.00  0.00     0.167 C 
ENDROOT
BRANCH   1  14
HETATM   14  C   UNL     1      42.544 -14.099   5.776  1.00  0.00     0.043 A 
HETATM   15  C   UNL     1      42.356 -15.495   5.813  1.00  0.00    -0.028 A 
HETATM   16  C   UNL     1      43.389 -16.284   6.380  1.00  0.00     0.010 A 
HETATM   17  C   UNL     1      44.563 -15.727   6.884  1.00  0.00     0.001 A 
HETATM   18  C   UNL     1      44.747 -14.357   6.829  1.00  0.00     0.002 A 
HETATM   19  C   UNL     1      43.750 -13.555   6.279  1.00  0.00     0.030 A 
BRANCH  15  20
HETATM   20  C   UNL     1      41.173 -16.290   5.256  1.00  0.00     0.013 C 
HETATM   21  C   UNL     1      40.243 -16.996   6.242  1.00  0.00     0.015 C 
HETATM   22  C   UNL     1      41.633 -17.280   4.176  1.00  0.00     0.015 C 
ENDBRANCH  15  20
ENDBRANCH   1  14
TORSDOF 2
ENDMDL
MODEL 7
REMARK VINA RESULT:      -6.1      5.357      6.688
REMARK  2 active torsions:
REMARK  status: ('A' for Active; 'I' for Inactive)
REMARK    1  A    between atoms: C_2  and  C_3 
REMARK    2  A    between atoms: C_4  and  N_5 
ROOT
HETATM    1  N   UNL     1      40.644 -14.390   1.116  1.00  0.00    -0.321 N 
HETATM    2  C   UNL     1      39.258 -14.748   1.203  1.00  0.00     0.141 C 
HETATM    3  N   UNL     1      38.825 -15.660   2.026  1.00  0.00    -0.380 N 
HETATM    4  H   UNL     1      39.484 -16.112   2.645  1.00  0.00     0.158 HD
HETATM    5  H   UNL     1      37.843 -15.896   2.043  1.00  0.00     0.158 HD
HETATM    6  S   UNL     1      38.257 -13.911   0.072  1.00  0.00    -0.086 SA
HETATM    7  C   UNL     1      39.729 -13.519  -0.930  1.00  0.00     0.093 C 
HETATM    8  C   UNL     1      40.836 -13.313   0.125  1.00  0.00     0.121 C 
HETATM    9  C   UNL     1      39.785 -12.291  -1.805  1.00  0.00     0.158 C 
HETATM   10  S   UNL     1      41.566 -12.071  -2.006  1.00  0.00     0.147 S 
HETATM   11  O   UNL     1      41.960 -12.643  -3.275  1.00  0.00    -0.228 OA
HETATM   12  O   UNL     1      41.900 -10.716  -1.622  1.00  0.00    -0.228 OA
HETATM   13  C   UNL     1      42.101 -13.184  -0.691  1.00  0.00     0.167 C 
ENDROOT
BRANCH   1  14
HETATM   14  C   UNL     1      41.710 -15.258   1.387  1.00  0.00     0.043 A 
HETATM   15  C   UNL     1      42.557 -15.135   2.508  1.00  0.00    -0.028 A 
HETATM   16  C   UNL     1      43.589 -16.095   2.662  1.00  0.00     0.010 A 
HETATM   17  C   UNL     1      43.778 -17.139   1.757  1.00  0.00     0.001 A 
HETATM   18  C   UNL     1      42.933 -17.262   0.669  1.00  0.00     0.002 A 
HETATM   19  C   UNL     1      41.910 -16.333   0.490  1.00  0.00     0.030 A 
BRANCH  15  20
HETATM   20  C   UNL     1      42.466 -14.104   3.634  1.00  0.00     0.013 C 
HETATM   21  C   UNL     1      43.733 -13.781   4.427  1.00  0.00     0.015 C 
HETATM   22  C   UNL     1      41.321 -14.439   4.599  1.00  0.00     0.015 C 
ENDBRANCH  15  20
ENDBRANCH   1  14
TORSDOF 2
ENDMDL
MODEL 8
REMARK VINA RESULT:      -6.1      4.464      6.103
REMARK  2 active torsions:
REMARK  status: ('A' for Active; 'I' for Inactive)
REMARK    1  A    between atoms: C_2  and  C_3 
REMARK    2  A    between atoms: C_4  and  N_5 
ROOT
HETATM    1  N   UNL     1      41.601 -14.312   3.020  1.00  0.00    -0.321 N 
HETATM    2  C   UNL     1      41.945 -13.085   3.680  1.00  0.00     0.141 C 
HETATM    3  N   UNL     1      42.791 -13.042   4.670  1.00  0.00    -0.380 N 
HETATM    4  H   UNL     1      43.241 -13.898   4.966  1.00  0.00     0.158 HD
HETATM    5  H   UNL     1      42.992 -12.161   5.121  1.00  0.00     0.158 HD
HETATM    6  S   UNL     1      41.082 -11.715   3.083  1.00  0.00    -0.086 SA
HETATM    7  C   UNL     1      39.828 -12.826   2.366  1.00  0.00     0.093 C 
HETATM    8  C   UNL     1      40.648 -14.055   1.922  1.00  0.00     0.121 C 
HETATM    9  C   UNL     1      39.022 -12.431   1.152  1.00  0.00     0.158 C 
HETATM   10  S   UNL     1      38.480 -14.040   0.537  1.00  0.00     0.147 S 
HETATM   11  O   UNL     1      37.130 -14.278   1.000  1.00  0.00    -0.228 OA
HETATM   12  O   UNL     1      38.859 -14.142  -0.856  1.00  0.00    -0.228 OA
HETATM   13  C   UNL     1      39.603 -15.065   1.509  1.00  0.00     0.167 C 
ENDROOT
BRANCH   1  14
HETATM   14  C   UNL     1      41.608 -15.574   3.629  1.00  0.00     0.043 A 
HETATM   15  C   UNL     1      42.286 -16.694   3.105  1.00  0.00    -0.028 A 
HETATM   16  C   UNL     1      42.217 -17.907   3.837  1.00  0.00     0.010 A 
HETATM   17  C   UNL     1      41.517 -18.015   5.037  1.00  0.00     0.001 A 
HETATM   18  C   UNL     1      40.867 -16.907   5.552  1.00  0.00     0.002 A 
HETATM   19  C   UNL     1      40.917 -15.703   4.856  1.00  0.00     0.030 A 
BRANCH  15  20
HETATM   20  C   UNL     1      43.153 -16.752   1.846  1.00  0.00     0.013 C 
HETATM   21  C   UNL     1      42.457 -16.831   0.488  1.00  0.00     0.015 C 
HETATM   22  C   UNL     1      44.209 -17.861   1.954  1.00  0.00     0.015 C 
ENDBRANCH  15  20
ENDBRANCH   1  14
TORSDOF 2
ENDMDL
MODEL 9
REMARK VINA RESULT:      -6.0      3.573      4.702
REMARK  2 active torsions:
REMARK  status: ('A' for Active; 'I' for Inactive)
REMARK    1  A    between atoms: C_2  and  C_3 
REMARK    2  A    between atoms: C_4  and  N_5 
ROOT
HETATM    1  N   UNL     1      41.284 -14.442   4.029  1.00  0.00    -0.321 N 
HETATM    2  C   UNL     1      40.016 -14.157   4.637  1.00  0.00     0.141 C 
HETATM    3  N   UNL     1      39.594 -14.790   5.694  1.00  0.00    -0.380 N 
HETATM    4  H   UNL     1      40.192 -15.488   6.118  1.00  0.00     0.158 HD
HETATM    5  H   UNL     1      38.686 -14.573   6.080  1.00  0.00     0.158 HD
HETATM    6  S   UNL     1      39.099 -12.963   3.792  1.00  0.00    -0.086 SA
HETATM    7  C   UNL     1      40.109 -13.252   2.302  1.00  0.00     0.093 C 
HETATM    8  C   UNL     1      41.511 -13.554   2.872  1.00  0.00     0.121 C 
HETATM    9  C   UNL     1      40.326 -12.170   1.273  1.00  0.00     0.158 C 
HETATM   10  S   UNL     1      41.824 -12.750   0.448  1.00  0.00     0.147 S 
HETATM   11  O   UNL     1      41.443 -13.433  -0.769  1.00  0.00    -0.228 OA
HETATM   12  O   UNL     1      42.798 -11.679   0.472  1.00  0.00    -0.228 OA
HETATM   13  C   UNL     1      42.310 -13.989   1.666  1.00  0.00     0.167 C 
ENDROOT
BRANCH   1  14
HETATM   14  C   UNL     1      41.921 -15.690   4.060  1.00  0.00     0.043 A 
HETATM   15  C   UNL     1      42.877 -16.059   5.028  1.00  0.00    -0.028 A 
HETATM   16  C   UNL     1      43.430 -17.362   4.942  1.00  0.00     0.010 A 
HETATM   17  C   UNL     1      43.055 -18.269   3.953  1.00  0.00     0.001 A 
HETATM   18  C   UNL     1      42.103 -17.904   3.016  1.00  0.00     0.002 A 
HETATM   19  C   UNL     1      41.543 -16.631   3.073  1.00  0.00     0.030 A 
BRANCH  15  20
HETATM   20  C   UNL     1      43.365 -15.232   6.218  1.00  0.00     0.013 C 
HETATM   21  C   UNL     1      44.330 -14.076   5.953  1.00  0.00     0.015 C 
HETATM   22  C   UNL     1      43.926 -16.134   7.325  1.00  0.00     0.015 C 
ENDBRANCH  15  20
ENDBRANCH   1  14
TORSDOF 2
ENDMDL
MODEL 10
REMARK VINA RESULT:      -6.0      2.824      5.927
REMARK  2 active torsions:
REMARK  status: ('A' for Active; 'I' for Inactive)
REMARK    1  A    between atoms: C_2  and  C_3 
REMARK    2  A    between atoms: C_4  and  N_5 
ROOT
HETATM    1  N   UNL     1      41.844 -14.873   4.589  1.00  0.00    -0.321 N 
HETATM    2  C   UNL     1      41.555 -16.275   4.495  1.00  0.00     0.141 C 
HETATM    3  N   UNL     1      40.492 -16.727   3.892  1.00  0.00    -0.380 N 
HETATM    4  H   UNL     1      39.863 -16.070   3.452  1.00  0.00     0.158 HD
HETATM    5  H   UNL     1      40.316 -17.721   3.865  1.00  0.00     0.158 HD
HETATM    6  S   UNL     1      42.704 -17.272   5.312  1.00  0.00    -0.086 SA
HETATM    7  C   UNL     1      43.249 -15.832   6.288  1.00  0.00     0.093 C 
HETATM    8  C   UNL     1      43.122 -14.657   5.295  1.00  0.00     0.121 C 
HETATM    9  C   UNL     1      44.651 -15.734   6.837  1.00  0.00     0.158 C 
HETATM   10  S   UNL     1      44.813 -13.955   7.102  1.00  0.00     0.147 S 
HETATM   11  O   UNL     1      44.554 -13.673   8.498  1.00  0.00    -0.228 OA
HETATM   12  O   UNL     1      46.008 -13.503   6.421  1.00  0.00    -0.228 OA
HETATM   13  C   UNL     1      43.378 -13.433   6.142  1.00  0.00     0.167 C 
ENDROOT
BRANCH   1  14
HETATM   14  C   UNL     1      40.876 -13.860   4.615  1.00  0.00     0.043 A 
HETATM   15  C   UNL     1      40.574 -13.035   3.513  1.00  0.00    -0.028 A 
HETATM   16  C   UNL     1      39.560 -12.057   3.681  1.00  0.00     0.010 A 
HETATM   17  C   UNL     1      38.866 -11.901   4.879  1.00  0.00     0.001 A 
HETATM   18  C   UNL     1      39.157 -12.725   5.951  1.00  0.00     0.002 A 
HETATM   19  C   UNL     1      40.149 -13.694   5.817  1.00  0.00     0.030 A 
BRANCH  15  20
HETATM   20  C   UNL     1      41.178 -13.098   2.109  1.00  0.00     0.013 C 
HETATM   21  C   UNL     1      41.464 -11.785   1.381  1.00  0.00     0.015 C 
HETATM   22  C   UNL     1      40.364 -14.030   1.199  1.00  0.00     0.015 C 
ENDBRANCH  15  20
ENDBRANCH   1  14
TORSDOF 2
ENDMDL
