MODEL 1
REMARK VINA RESULT:      -9.9      0.000      0.000
REMARK  7 active torsions:
REMARK  status: ('A' for Active; 'I' for Inactive)
REMARK    1  A    between atoms: C_2  and  C_3 
REMARK    2  A    between atoms: N_16  and  C_17 
REMARK    3  A    between atoms: C_17  and  C_18 
REMARK       I    between atoms: C_18  and  N_19 
REMARK    4  A    between atoms: N_19  and  C_20 
REMARK    5  A    between atoms: C_21  and  C_22 
REMARK       I    between atoms: C_22  and  N_23 
REMARK    6  A    between atoms: N_23  and  C_24 
REMARK    7  A    between atoms: C_24  and  C_25 
ROOT
HETATM    1  C   UNL     1      41.705 -12.479   4.111  1.00  0.00     0.240 C 
ENDROOT
BRANCH   1   2
HETATM    2  N   UNL     1      42.076 -13.626   4.920  1.00  0.00    -0.259 N 
HETATM    3  C   UNL     1      41.260 -14.188   5.849  1.00  0.00     0.326 A 
HETATM    4  N   UNL     1      41.950 -15.169   6.509  1.00  0.00    -0.321 N 
HETATM    5  O   UNL     1      40.093 -13.914   6.063  1.00  0.00    -0.247 OA
HETATM    6  C   UNL     1      43.342 -15.247   6.110  1.00  0.00     0.140 A 
HETATM    7  H   UNL     1      41.535 -15.680   7.277  1.00  0.00     0.165 HD
HETATM    8  C   UNL     1      44.229 -14.851   7.292  1.00  0.00     0.054 C 
HETATM    9  C   UNL     1      43.346 -14.122   5.042  1.00  0.00     0.261 A 
HETATM   10  O   UNL     1      44.328 -13.716   4.435  1.00  0.00    -0.270 OA
BRANCH   6  11
HETATM   11  C   UNL     1      43.716 -16.597   5.507  1.00  0.00    -0.020 A 
HETATM   12  C   UNL     1      43.178 -16.980   4.262  1.00  0.00     0.022 A 
HETATM   13  C   UNL     1      43.493 -18.212   3.660  1.00  0.00    -0.025 A 
HETATM   14  C   UNL     1      44.367 -19.099   4.322  1.00  0.00    -0.026 A 
HETATM   15  C   UNL     1      42.955 -18.578   2.416  1.00  0.00     0.012 A 
HETATM   16  C   UNL     1      44.900 -18.729   5.564  1.00  0.00     0.013 A 
HETATM   17  C   UNL     1      44.681 -20.330   3.722  1.00  0.00     0.012 A 
HETATM   18  C   UNL     1      44.581 -17.498   6.147  1.00  0.00     0.011 A 
HETATM   19  C   UNL     1      44.138 -20.679   2.484  1.00  0.00     0.001 A 
HETATM   20  C   UNL     1      43.277 -19.804   1.831  1.00  0.00     0.001 A 
ENDBRANCH   6  11
ENDBRANCH   1   2
BRANCH   1  21
HETATM   21  C   UNL     1      41.212 -12.841   2.709  1.00  0.00     0.240 C 
HETATM   22  N   UNL     1      42.190 -13.274   1.819  1.00  0.00    -0.325 N 
HETATM   23  H   UNL     1      43.003 -13.634   2.303  1.00  0.00     0.169 HD
HETATM   24  O   UNL     1      40.031 -12.675   2.397  1.00  0.00    -0.271 OA
BRANCH  22  25
HETATM   25  C   UNL     1      41.813 -14.039   0.685  1.00  0.00     0.050 A 
HETATM   26  C   UNL     1      41.477 -13.526  -0.583  1.00  0.00     0.058 A 
HETATM   27  C   UNL     1      41.116 -14.430  -1.605  1.00  0.00     0.019 A 
HETATM   28  C   UNL     1      41.097 -15.808  -1.384  1.00  0.00     0.001 A 
HETATM   29  C   UNL     1      41.467 -16.310  -0.145  1.00  0.00     0.002 A 
HETATM   30  C   UNL     1      41.832 -15.433   0.877  1.00  0.00     0.030 A 
BRANCH  26  31
HETATM   31  C   UNL     1      41.641 -12.116  -1.040  1.00  0.00     0.254 C 
HETATM   32  N   UNL     1      42.817 -11.763  -1.642  1.00  0.00    -0.351 N 
HETATM   33  H   UNL     1      43.588 -12.427  -1.641  1.00  0.00     0.163 HD
HETATM   34  O   UNL     1      40.743 -11.310  -0.812  1.00  0.00    -0.268 OA
BRANCH  32  35
HETATM   35  C   UNL     1      43.124 -10.402  -2.009  1.00  0.00     0.187 C 
BRANCH  35  36
HETATM   36  C   UNL     1      42.691 -10.162  -3.409  1.00  0.00     0.070 A 
HETATM   37  O   UNL     1      42.502  -8.863  -3.788  1.00  0.00    -0.325 OA
HETATM   38  C   UNL     1      42.078  -8.886  -5.079  1.00  0.00     0.142 A 
HETATM   39  C   UNL     1      41.995 -10.180  -5.536  1.00  0.00     0.027 A 
HETATM   40  C   UNL     1      42.395 -11.006  -4.459  1.00  0.00     0.036 A 
ENDBRANCH  35  36
ENDBRANCH  32  35
ENDBRANCH  26  31
ENDBRANCH  22  25
ENDBRANCH   1  21
TORSDOF 7
ENDMDL
MODEL 2
REMARK VINA RESULT:      -9.5      1.421      2.003
REMARK  7 active torsions:
REMARK  status: ('A' for Active; 'I' for Inactive)
REMARK    1  A    between atoms: C_2  and  C_3 
REMARK    2  A    between atoms: N_16  and  C_17 
REMARK    3  A    between atoms: C_17  and  C_18 
REMARK       I    between atoms: C_18  and  N_19 
REMARK    4  A    between atoms: N_19  and  C_20 
REMARK    5  A    between atoms: C_21  and  C_22 
REMARK       I    between atoms: C_22  and  N_23 
REMARK    6  A    between atoms: N_23  and  C_24 
REMARK    7  A    between atoms: C_24  and  C_25 
ROOT
HETATM    1  C   UNL     1      41.723 -12.395   3.994  1.00  0.00     0.240 C 
ENDROOT
BRANCH   1   2
HETATM    2  N   UNL     1      42.091 -13.529   4.823  1.00  0.00    -0.259 N 
HETATM    3  C   UNL     1      41.281 -14.061   5.774  1.00  0.00     0.326 A 
HETATM    4  N   UNL     1      41.968 -15.035   6.447  1.00  0.00    -0.321 N 
HETATM    5  O   UNL     1      40.120 -13.768   5.997  1.00  0.00    -0.247 OA
HETATM    6  C   UNL     1      43.354 -15.138   6.032  1.00  0.00     0.140 A 
HETATM    7  H   UNL     1      41.557 -15.524   7.231  1.00  0.00     0.165 HD
HETATM    8  C   UNL     1      44.261 -14.727   7.193  1.00  0.00     0.054 C 
HETATM    9  C   UNL     1      43.357 -14.037   4.940  1.00  0.00     0.261 A 
HETATM   10  O   UNL     1      44.336 -13.656   4.311  1.00  0.00    -0.270 OA
BRANCH   6  11
HETATM   11  C   UNL     1      43.705 -16.505   5.454  1.00  0.00    -0.020 A 
HETATM   12  C   UNL     1      43.198 -16.883   4.194  1.00  0.00     0.022 A 
HETATM   13  C   UNL     1      43.494 -18.131   3.615  1.00  0.00    -0.025 A 
HETATM   14  C   UNL     1      44.315 -19.038   4.314  1.00  0.00    -0.026 A 
HETATM   15  C   UNL     1      42.987 -18.492   2.356  1.00  0.00     0.012 A 
HETATM   16  C   UNL     1      44.817 -18.674   5.571  1.00  0.00     0.013 A 
HETATM   17  C   UNL     1      44.609 -20.285   3.737  1.00  0.00     0.012 A 
HETATM   18  C   UNL     1      44.517 -17.427   6.132  1.00  0.00     0.011 A 
HETATM   19  C   UNL     1      44.099 -20.628   2.484  1.00  0.00     0.001 A 
HETATM   20  C   UNL     1      43.289 -19.732   1.794  1.00  0.00     0.001 A 
ENDBRANCH   6  11
ENDBRANCH   1   2
BRANCH   1  21
HETATM   21  C   UNL     1      41.232 -12.781   2.597  1.00  0.00     0.240 C 
HETATM   22  N   UNL     1      42.215 -13.195   1.705  1.00  0.00    -0.325 N 
HETATM   23  H   UNL     1      43.040 -13.531   2.186  1.00  0.00     0.169 HD
HETATM   24  O   UNL     1      40.045 -12.648   2.290  1.00  0.00    -0.271 OA
BRANCH  22  25
HETATM   25  C   UNL     1      41.852 -13.978   0.578  1.00  0.00     0.050 A 
HETATM   26  C   UNL     1      41.669 -13.503  -0.735  1.00  0.00     0.058 A 
HETATM   27  C   UNL     1      41.298 -14.420  -1.741  1.00  0.00     0.019 A 
HETATM   28  C   UNL     1      41.123 -15.776  -1.461  1.00  0.00     0.001 A 
HETATM   29  C   UNL     1      41.344 -16.246  -0.174  1.00  0.00     0.002 A 
HETATM   30  C   UNL     1      41.716 -15.356   0.834  1.00  0.00     0.030 A 
BRANCH  26  31
HETATM   31  C   UNL     1      42.010 -12.141  -1.239  1.00  0.00     0.254 C 
HETATM   32  N   UNL     1      41.101 -11.136  -1.055  1.00  0.00    -0.351 N 
HETATM   33  H   UNL     1      40.175 -11.369  -0.704  1.00  0.00     0.163 HD
HETATM   34  O   UNL     1      43.064 -11.982  -1.849  1.00  0.00    -0.268 OA
BRANCH  32  35
HETATM   35  C   UNL     1      41.280  -9.817  -1.609  1.00  0.00     0.187 C 
BRANCH  35  36
HETATM   36  C   UNL     1      42.075  -8.991  -0.666  1.00  0.00     0.070 A 
HETATM   37  O   UNL     1      41.404  -8.408   0.371  1.00  0.00    -0.325 OA
HETATM   38  C   UNL     1      42.313  -7.682   1.072  1.00  0.00     0.142 A 
HETATM   39  C   UNL     1      43.560  -7.792   0.504  1.00  0.00     0.027 A 
HETATM   40  C   UNL     1      43.409  -8.641  -0.618  1.00  0.00     0.036 A 
ENDBRANCH  35  36
ENDBRANCH  32  35
ENDBRANCH  26  31
ENDBRANCH  22  25
ENDBRANCH   1  21
TORSDOF 7
ENDMDL
MODEL 3
REMARK VINA RESULT:      -9.5      3.437      4.633
REMARK  7 active torsions:
REMARK  status: ('A' for Active; 'I' for Inactive)
REMARK    1  A    between atoms: C_2  and  C_3 
REMARK    2  A    between atoms: N_16  and  C_17 
REMARK    3  A    between atoms: C_17  and  C_18 
REMARK       I    between atoms: C_18  and  N_19 
REMARK    4  A    between atoms: N_19  and  C_20 
REMARK    5  A    between atoms: C_21  and  C_22 
REMARK       I    between atoms: C_22  and  N_23 
REMARK    6  A    between atoms: N_23  and  C_24 
REMARK    7  A    between atoms: C_24  and  C_25 
ROOT
HETATM    1  C   UNL     1      41.204 -16.274  -0.161  1.00  0.00     0.240 C 
ENDROOT
BRANCH   1   2
HETATM    2  N   UNL     1      41.525 -16.448   1.243  1.00  0.00    -0.259 N 
HETATM    3  C   UNL     1      40.617 -16.328   2.245  1.00  0.00     0.326 A 
HETATM    4  N   UNL     1      41.264 -16.437   3.446  1.00  0.00    -0.321 N 
HETATM    5  O   UNL     1      39.414 -16.181   2.131  1.00  0.00    -0.247 OA
HETATM    6  C   UNL     1      42.703 -16.539   3.305  1.00  0.00     0.140 A 
HETATM    7  H   UNL     1      40.771 -16.327   4.323  1.00  0.00     0.165 HD
HETATM    8  C   UNL     1      43.359 -15.292   3.901  1.00  0.00     0.054 C 
HETATM    9  C   UNL     1      42.793 -16.498   1.757  1.00  0.00     0.261 A 
HETATM   10  O   UNL     1      43.827 -16.476   1.101  1.00  0.00    -0.270 OA
BRANCH   6  11
HETATM   11  C   UNL     1      43.269 -17.839   3.868  1.00  0.00    -0.020 A 
HETATM   12  C   UNL     1      43.438 -18.953   3.021  1.00  0.00     0.022 A 
HETATM   13  C   UNL     1      43.958 -20.174   3.489  1.00  0.00    -0.025 A 
HETATM   14  C   UNL     1      44.316 -20.295   4.847  1.00  0.00    -0.026 A 
HETATM   15  C   UNL     1      44.126 -21.274   2.632  1.00  0.00     0.012 A 
HETATM   16  C   UNL     1      44.143 -19.195   5.698  1.00  0.00     0.013 A 
HETATM   17  C   UNL     1      44.833 -21.515   5.315  1.00  0.00     0.012 A 
HETATM   18  C   UNL     1      43.629 -17.986   5.216  1.00  0.00     0.011 A 
HETATM   19  C   UNL     1      44.996 -22.599   4.451  1.00  0.00     0.001 A 
HETATM   20  C   UNL     1      44.644 -22.478   3.111  1.00  0.00     0.001 A 
ENDBRANCH   6  11
ENDBRANCH   1   2
BRANCH   1  21
HETATM   21  C   UNL     1      41.161 -14.812  -0.612  1.00  0.00     0.240 C 
HETATM   22  N   UNL     1      42.115 -14.444  -1.555  1.00  0.00    -0.325 N 
HETATM   23  H   UNL     1      42.456 -15.244  -2.074  1.00  0.00     0.169 HD
HETATM   24  O   UNL     1      40.370 -14.020  -0.097  1.00  0.00    -0.271 OA
BRANCH  22  25
HETATM   25  C   UNL     1      41.899 -13.292  -2.354  1.00  0.00     0.050 A 
HETATM   26  C   UNL     1      40.946 -13.166  -3.383  1.00  0.00     0.058 A 
HETATM   27  C   UNL     1      40.867 -11.947  -4.088  1.00  0.00     0.019 A 
HETATM   28  C   UNL     1      41.703 -10.872  -3.779  1.00  0.00     0.001 A 
HETATM   29  C   UNL     1      42.614 -10.987  -2.738  1.00  0.00     0.002 A 
HETATM   30  C   UNL     1      42.703 -12.184  -2.025  1.00  0.00     0.030 A 
BRANCH  26  31
HETATM   31  C   UNL     1      39.853 -14.131  -3.700  1.00  0.00     0.254 C 
HETATM   32  N   UNL     1      38.560 -13.691  -3.629  1.00  0.00    -0.351 N 
HETATM   33  H   UNL     1      38.375 -12.770  -3.238  1.00  0.00     0.163 HD
HETATM   34  O   UNL     1      40.147 -15.295  -3.959  1.00  0.00    -0.268 OA
BRANCH  32  35
HETATM   35  C   UNL     1      37.430 -14.572  -3.798  1.00  0.00     0.187 C 
BRANCH  35  36
HETATM   36  C   UNL     1      36.400 -13.897  -4.626  1.00  0.00     0.070 A 
HETATM   37  O   UNL     1      36.106 -14.459  -5.836  1.00  0.00    -0.325 OA
HETATM   38  C   UNL     1      35.177 -13.663  -6.427  1.00  0.00     0.142 A 
HETATM   39  C   UNL     1      34.867 -12.598  -5.614  1.00  0.00     0.027 A 
HETATM   40  C   UNL     1      35.654 -12.750  -4.448  1.00  0.00     0.036 A 
ENDBRANCH  35  36
ENDBRANCH  32  35
ENDBRANCH  26  31
ENDBRANCH  22  25
ENDBRANCH   1  21
TORSDOF 7
ENDMDL
MODEL 4
REMARK VINA RESULT:      -9.5      2.159      3.499
REMARK  7 active torsions:
REMARK  status: ('A' for Active; 'I' for Inactive)
REMARK    1  A    between atoms: C_2  and  C_3 
REMARK    2  A    between atoms: N_16  and  C_17 
REMARK    3  A    between atoms: C_17  and  C_18 
REMARK       I    between atoms: C_18  and  N_19 
REMARK    4  A    between atoms: N_19  and  C_20 
REMARK    5  A    between atoms: C_21  and  C_22 
REMARK       I    between atoms: C_22  and  N_23 
REMARK    6  A    between atoms: N_23  and  C_24 
REMARK    7  A    between atoms: C_24  and  C_25 
ROOT
HETATM    1  C   UNL     1      41.485 -12.940   3.673  1.00  0.00     0.240 C 
ENDROOT
BRANCH   1   2
HETATM    2  N   UNL     1      41.294 -14.319   4.083  1.00  0.00    -0.259 N 
HETATM    3  C   UNL     1      40.216 -15.068   3.734  1.00  0.00     0.326 A 
HETATM    4  N   UNL     1      40.287 -16.274   4.376  1.00  0.00    -0.321 N 
HETATM    5  O   UNL     1      39.331 -14.761   2.956  1.00  0.00    -0.247 OA
HETATM    6  C   UNL     1      41.404 -16.359   5.296  1.00  0.00     0.140 A 
HETATM    7  H   UNL     1      39.552 -16.963   4.287  1.00  0.00     0.165 HD
HETATM    8  C   UNL     1      40.871 -16.462   6.728  1.00  0.00     0.054 C 
HETATM    9  C   UNL     1      42.016 -14.955   5.058  1.00  0.00     0.261 A 
HETATM   10  O   UNL     1      42.965 -14.475   5.665  1.00  0.00    -0.270 OA
BRANCH   6  11
HETATM   11  C   UNL     1      42.388 -17.470   4.943  1.00  0.00    -0.020 A 
HETATM   12  C   UNL     1      42.277 -18.135   3.706  1.00  0.00     0.022 A 
HETATM   13  C   UNL     1      43.160 -19.164   3.330  1.00  0.00    -0.025 A 
HETATM   14  C   UNL     1      44.185 -19.551   4.217  1.00  0.00    -0.026 A 
HETATM   15  C   UNL     1      43.042 -19.813   2.091  1.00  0.00     0.012 A 
HETATM   16  C   UNL     1      44.297 -18.901   5.453  1.00  0.00     0.013 A 
HETATM   17  C   UNL     1      45.065 -20.580   3.843  1.00  0.00     0.012 A 
HETATM   18  C   UNL     1      43.413 -17.876   5.811  1.00  0.00     0.011 A 
HETATM   19  C   UNL     1      44.936 -21.215   2.607  1.00  0.00     0.001 A 
HETATM   20  C   UNL     1      43.926 -20.831   1.731  1.00  0.00     0.001 A 
ENDBRANCH   6  11
ENDBRANCH   1   2
BRANCH   1  21
HETATM   21  C   UNL     1      42.136 -12.786   2.297  1.00  0.00     0.240 C 
HETATM   22  N   UNL     1      41.356 -12.165   1.327  1.00  0.00    -0.325 N 
HETATM   23  H   UNL     1      40.635 -11.587   1.740  1.00  0.00     0.169 HD
HETATM   24  O   UNL     1      43.252 -13.260   2.074  1.00  0.00    -0.271 OA
BRANCH  22  25
HETATM   25  C   UNL     1      41.982 -11.579   0.197  1.00  0.00     0.050 A 
HETATM   26  C   UNL     1      42.285 -12.233  -1.013  1.00  0.00     0.058 A 
HETATM   27  C   UNL     1      42.919 -11.501  -2.039  1.00  0.00     0.019 A 
HETATM   28  C   UNL     1      43.239 -10.152  -1.879  1.00  0.00     0.001 A 
HETATM   29  C   UNL     1      42.903  -9.501  -0.700  1.00  0.00     0.002 A 
HETATM   30  C   UNL     1      42.270 -10.206   0.324  1.00  0.00     0.030 A 
BRANCH  26  31
HETATM   31  C   UNL     1      41.835 -13.596  -1.419  1.00  0.00     0.254 C 
HETATM   32  N   UNL     1      41.872 -13.922  -2.747  1.00  0.00    -0.351 N 
HETATM   33  H   UNL     1      42.075 -13.192  -3.426  1.00  0.00     0.163 HD
HETATM   34  O   UNL     1      41.396 -14.356  -0.560  1.00  0.00    -0.268 OA
BRANCH  32  35
HETATM   35  C   UNL     1      41.347 -15.165  -3.256  1.00  0.00     0.187 C 
BRANCH  35  36
HETATM   36  C   UNL     1      39.894 -15.013  -3.521  1.00  0.00     0.070 A 
HETATM   37  O   UNL     1      39.360 -13.765  -3.370  1.00  0.00    -0.325 OA
HETATM   38  C   UNL     1      38.030 -13.870  -3.624  1.00  0.00     0.142 A 
HETATM   39  C   UNL     1      37.700 -15.168  -3.940  1.00  0.00     0.027 A 
HETATM   40  C   UNL     1      38.905 -15.907  -3.878  1.00  0.00     0.036 A 
ENDBRANCH  35  36
ENDBRANCH  32  35
ENDBRANCH  26  31
ENDBRANCH  22  25
ENDBRANCH   1  21
TORSDOF 7
ENDMDL
MODEL 5
REMARK VINA RESULT:      -9.4      2.363      3.947
REMARK  7 active torsions:
REMARK  status: ('A' for Active; 'I' for Inactive)
REMARK    1  A    between atoms: C_2  and  C_3 
REMARK    2  A    between atoms: N_16  and  C_17 
REMARK    3  A    between atoms: C_17  and  C_18 
REMARK       I    between atoms: C_18  and  N_19 
REMARK    4  A    between atoms: N_19  and  C_20 
REMARK    5  A    between atoms: C_21  and  C_22 
REMARK       I    between atoms: C_22  and  N_23 
REMARK    6  A    between atoms: N_23  and  C_24 
REMARK    7  A    between atoms: C_24  and  C_25 
ROOT
HETATM    1  C   UNL     1      41.777 -11.996   4.668  1.00  0.00     0.240 C 
ENDROOT
BRANCH   1   2
HETATM    2  N   UNL     1      42.011 -13.371   5.071  1.00  0.00    -0.259 N 
HETATM    3  C   UNL     1      41.198 -14.057   5.916  1.00  0.00     0.326 A 
HETATM    4  N   UNL     1      41.760 -15.277   6.179  1.00  0.00    -0.321 N 
HETATM    5  O   UNL     1      40.124 -13.692   6.359  1.00  0.00    -0.247 OA
HETATM    6  C   UNL     1      43.072 -15.435   5.582  1.00  0.00     0.140 A 
HETATM    7  H   UNL     1      41.334 -15.925   6.828  1.00  0.00     0.165 HD
HETATM    8  C   UNL     1      44.122 -15.535   6.691  1.00  0.00     0.054 C 
HETATM    9  C   UNL     1      43.177 -14.059   4.874  1.00  0.00     0.261 A 
HETATM   10  O   UNL     1      44.156 -13.640   4.269  1.00  0.00    -0.270 OA
BRANCH   6  11
HETATM   11  C   UNL     1      43.141 -16.588   4.587  1.00  0.00    -0.020 A 
HETATM   12  C   UNL     1      43.852 -17.758   4.920  1.00  0.00     0.022 A 
HETATM   13  C   UNL     1      43.945 -18.851   4.040  1.00  0.00    -0.025 A 
HETATM   14  C   UNL     1      43.315 -18.777   2.780  1.00  0.00    -0.026 A 
HETATM   15  C   UNL     1      44.652 -20.014   4.388  1.00  0.00     0.012 A 
HETATM   16  C   UNL     1      42.613 -17.615   2.437  1.00  0.00     0.013 A 
HETATM   17  C   UNL     1      43.409 -19.868   1.900  1.00  0.00     0.012 A 
HETATM   18  C   UNL     1      42.526 -16.537   3.326  1.00  0.00     0.011 A 
HETATM   19  C   UNL     1      44.115 -21.018   2.261  1.00  0.00     0.001 A 
HETATM   20  C   UNL     1      44.734 -21.090   3.504  1.00  0.00     0.001 A 
ENDBRANCH   6  11
ENDBRANCH   1   2
BRANCH   1  21
HETATM   21  C   UNL     1      40.846 -11.853   3.462  1.00  0.00     0.240 C 
HETATM   22  N   UNL     1      39.506 -12.140   3.698  1.00  0.00    -0.325 N 
HETATM   23  H   UNL     1      39.270 -12.047   4.678  1.00  0.00     0.169 HD
HETATM   24  O   UNL     1      41.299 -11.573   2.350  1.00  0.00    -0.271 OA
BRANCH  22  25
HETATM   25  C   UNL     1      38.517 -11.627   2.819  1.00  0.00     0.050 A 
HETATM   26  C   UNL     1      38.108 -12.208   1.603  1.00  0.00     0.058 A 
HETATM   27  C   UNL     1      37.112 -11.560   0.844  1.00  0.00     0.019 A 
HETATM   28  C   UNL     1      36.523 -10.371   1.279  1.00  0.00     0.001 A 
HETATM   29  C   UNL     1      36.900  -9.823   2.497  1.00  0.00     0.002 A 
HETATM   30  C   UNL     1      37.881 -10.452   3.265  1.00  0.00     0.030 A 
BRANCH  26  31
HETATM   31  C   UNL     1      38.482 -13.561   1.099  1.00  0.00     0.254 C 
HETATM   32  N   UNL     1      39.790 -13.793   0.774  1.00  0.00    -0.351 N 
HETATM   33  H   UNL     1      40.438 -13.009   0.757  1.00  0.00     0.163 HD
HETATM   34  O   UNL     1      37.599 -14.400   0.941  1.00  0.00    -0.268 OA
BRANCH  32  35
HETATM   35  C   UNL     1      40.233 -15.024   0.166  1.00  0.00     0.187 C 
BRANCH  35  36
HETATM   36  C   UNL     1      40.713 -14.746  -1.211  1.00  0.00     0.070 A 
HETATM   37  O   UNL     1      40.796 -15.807  -2.068  1.00  0.00    -0.325 OA
HETATM   38  C   UNL     1      41.287 -15.331  -3.241  1.00  0.00     0.142 A 
HETATM   39  C   UNL     1      41.517 -13.978  -3.154  1.00  0.00     0.027 A 
HETATM   40  C   UNL     1      41.143 -13.598  -1.843  1.00  0.00     0.036 A 
ENDBRANCH  35  36
ENDBRANCH  32  35
ENDBRANCH  26  31
ENDBRANCH  22  25
ENDBRANCH   1  21
TORSDOF 7
ENDMDL
MODEL 6
REMARK VINA RESULT:      -9.4      4.261      8.944
REMARK  7 active torsions:
REMARK  status: ('A' for Active; 'I' for Inactive)
REMARK    1  A    between atoms: C_2  and  C_3 
REMARK    2  A    between atoms: N_16  and  C_17 
REMARK    3  A    between atoms: C_17  and  C_18 
REMARK       I    between atoms: C_18  and  N_19 
REMARK    4  A    between atoms: N_19  and  C_20 
REMARK    5  A    between atoms: C_21  and  C_22 
REMARK       I    between atoms: C_22  and  N_23 
REMARK    6  A    between atoms: N_23  and  C_24 
REMARK    7  A    between atoms: C_24  and  C_25 
ROOT
HETATM    1  C   UNL     1      42.741 -14.078   5.935  1.00  0.00     0.240 C 
ENDROOT
BRANCH   1   2
HETATM    2  N   UNL     1      42.841 -14.839   4.703  1.00  0.00    -0.259 N 
HETATM    3  C   UNL     1      43.606 -14.464   3.646  1.00  0.00     0.326 A 
HETATM    4  N   UNL     1      43.388 -15.332   2.610  1.00  0.00    -0.321 N 
HETATM    5  O   UNL     1      44.393 -13.535   3.602  1.00  0.00    -0.247 OA
HETATM    6  C   UNL     1      42.355 -16.307   2.899  1.00  0.00     0.140 A 
HETATM    7  H   UNL     1      43.828 -15.199   1.710  1.00  0.00     0.165 HD
HETATM    8  C   UNL     1      41.158 -16.063   1.977  1.00  0.00     0.054 C 
HETATM    9  C   UNL     1      42.009 -15.865   4.345  1.00  0.00     0.261 A 
HETATM   10  O   UNL     1      41.115 -16.330   5.041  1.00  0.00    -0.270 OA
BRANCH   6  11
HETATM   11  C   UNL     1      42.860 -17.745   2.855  1.00  0.00    -0.020 A 
HETATM   12  C   UNL     1      43.430 -18.322   4.008  1.00  0.00     0.022 A 
HETATM   13  C   UNL     1      43.908 -19.645   4.022  1.00  0.00    -0.025 A 
HETATM   14  C   UNL     1      43.825 -20.420   2.847  1.00  0.00    -0.026 A 
HETATM   15  C   UNL     1      44.468 -20.209   5.179  1.00  0.00     0.012 A 
HETATM   16  C   UNL     1      43.268 -19.852   1.694  1.00  0.00     0.013 A 
HETATM   17  C   UNL     1      44.305 -21.741   2.860  1.00  0.00     0.012 A 
HETATM   18  C   UNL     1      42.792 -18.536   1.697  1.00  0.00     0.011 A 
HETATM   19  C   UNL     1      44.858 -22.288   4.019  1.00  0.00     0.001 A 
HETATM   20  C   UNL     1      44.938 -21.523   5.178  1.00  0.00     0.001 A 
ENDBRANCH   6  11
ENDBRANCH   1   2
BRANCH   1  21
HETATM   21  C   UNL     1      41.943 -12.779   5.800  1.00  0.00     0.240 C 
HETATM   22  N   UNL     1      41.072 -12.495   6.846  1.00  0.00    -0.325 N 
HETATM   23  H   UNL     1      41.342 -12.971   7.698  1.00  0.00     0.169 HD
HETATM   24  O   UNL     1      42.034 -12.091   4.782  1.00  0.00    -0.271 OA
BRANCH  22  25
HETATM   25  C   UNL     1      40.637 -11.160   7.050  1.00  0.00     0.050 A 
HETATM   26  C   UNL     1      41.142 -10.263   8.011  1.00  0.00     0.058 A 
HETATM   27  C   UNL     1      40.589  -8.968   8.085  1.00  0.00     0.019 A 
HETATM   28  C   UNL     1      39.568  -8.562   7.224  1.00  0.00     0.001 A 
HETATM   29  C   UNL     1      39.101  -9.436   6.252  1.00  0.00     0.002 A 
HETATM   30  C   UNL     1      39.639 -10.720   6.160  1.00  0.00     0.030 A 
BRANCH  26  31
HETATM   31  C   UNL     1      42.352 -10.464   8.860  1.00  0.00     0.254 C 
HETATM   32  N   UNL     1      42.292 -10.088  10.173  1.00  0.00    -0.351 N 
HETATM   33  H   UNL     1      41.481  -9.567  10.498  1.00  0.00     0.163 HD
HETATM   34  O   UNL     1      43.374 -10.905   8.340  1.00  0.00    -0.268 OA
BRANCH  32  35
HETATM   35  C   UNL     1      43.441 -10.127  11.045  1.00  0.00     0.187 C 
BRANCH  35  36
HETATM   36  C   UNL     1      42.990 -10.019  12.455  1.00  0.00     0.070 A 
HETATM   37  O   UNL     1      41.860 -10.703  12.803  1.00  0.00    -0.325 OA
HETATM   38  C   UNL     1      41.620 -10.433  14.112  1.00  0.00     0.142 A 
HETATM   39  C   UNL     1      42.582  -9.587  14.614  1.00  0.00     0.027 A 
HETATM   40  C   UNL     1      43.470  -9.322  13.545  1.00  0.00     0.036 A 
ENDBRANCH  35  36
ENDBRANCH  32  35
ENDBRANCH  26  31
ENDBRANCH  22  25
ENDBRANCH   1  21
TORSDOF 7
ENDMDL
MODEL 7
REMARK VINA RESULT:      -9.4      2.086      3.965
REMARK  7 active torsions:
REMARK  status: ('A' for Active; 'I' for Inactive)
REMARK    1  A    between atoms: C_2  and  C_3 
REMARK    2  A    between atoms: N_16  and  C_17 
REMARK    3  A    between atoms: C_17  and  C_18 
REMARK       I    between atoms: C_18  and  N_19 
REMARK    4  A    between atoms: N_19  and  C_20 
REMARK    5  A    between atoms: C_21  and  C_22 
REMARK       I    between atoms: C_22  and  N_23 
REMARK    6  A    between atoms: N_23  and  C_24 
REMARK    7  A    between atoms: C_24  and  C_25 
ROOT
HETATM    1  C   UNL     1      41.737 -12.383   3.067  1.00  0.00     0.240 C 
ENDROOT
BRANCH   1   2
HETATM    2  N   UNL     1      41.459 -13.740   3.501  1.00  0.00    -0.259 N 
HETATM    3  C   UNL     1      40.207 -14.254   3.611  1.00  0.00     0.326 A 
HETATM    4  N   UNL     1      40.289 -15.509   4.153  1.00  0.00    -0.321 N 
HETATM    5  O   UNL     1      39.165 -13.729   3.264  1.00  0.00    -0.247 OA
HETATM    6  C   UNL     1      41.639 -15.870   4.539  1.00  0.00     0.140 A 
HETATM    7  H   UNL     1      39.459 -16.048   4.363  1.00  0.00     0.165 HD
HETATM    8  C   UNL     1      41.708 -16.009   6.062  1.00  0.00     0.054 C 
HETATM    9  C   UNL     1      42.368 -14.577   4.090  1.00  0.00     0.261 A 
HETATM   10  O   UNL     1      43.554 -14.327   4.265  1.00  0.00    -0.270 OA
BRANCH   6  11
HETATM   11  C   UNL     1      42.164 -17.098   3.802  1.00  0.00    -0.020 A 
HETATM   12  C   UNL     1      43.021 -17.998   4.466  1.00  0.00     0.022 A 
HETATM   13  C   UNL     1      43.530 -19.147   3.833  1.00  0.00    -0.025 A 
HETATM   14  C   UNL     1      43.183 -19.407   2.492  1.00  0.00    -0.026 A 
HETATM   15  C   UNL     1      44.378 -20.039   4.509  1.00  0.00     0.012 A 
HETATM   16  C   UNL     1      42.338 -18.512   1.822  1.00  0.00     0.013 A 
HETATM   17  C   UNL     1      43.693 -20.553   1.859  1.00  0.00     0.012 A 
HETATM   18  C   UNL     1      41.836 -17.376   2.466  1.00  0.00     0.011 A 
HETATM   19  C   UNL     1      44.534 -21.431   2.545  1.00  0.00     0.001 A 
HETATM   20  C   UNL     1      44.875 -21.175   3.868  1.00  0.00     0.001 A 
ENDBRANCH   6  11
ENDBRANCH   1   2
BRANCH   1  21
HETATM   21  C   UNL     1      41.792 -12.217   1.546  1.00  0.00     0.240 C 
HETATM   22  N   UNL     1      41.480 -10.950   1.067  1.00  0.00    -0.325 N 
HETATM   23  H   UNL     1      41.616 -10.238   1.774  1.00  0.00     0.169 HD
HETATM   24  O   UNL     1      42.027 -13.183   0.818  1.00  0.00    -0.271 OA
BRANCH  22  25
HETATM   25  C   UNL     1      41.919 -10.564  -0.226  1.00  0.00     0.050 A 
HETATM   26  C   UNL     1      41.247 -10.818  -1.438  1.00  0.00     0.058 A 
HETATM   27  C   UNL     1      41.830 -10.369  -2.641  1.00  0.00     0.019 A 
HETATM   28  C   UNL     1      43.042  -9.677  -2.650  1.00  0.00     0.001 A 
HETATM   29  C   UNL     1      43.680  -9.394  -1.451  1.00  0.00     0.002 A 
HETATM   30  C   UNL     1      43.117  -9.825  -0.249  1.00  0.00     0.030 A 
BRANCH  26  31
HETATM   31  C   UNL     1      39.864 -11.356  -1.587  1.00  0.00     0.254 C 
HETATM   32  N   UNL     1      39.642 -12.667  -1.270  1.00  0.00    -0.351 N 
HETATM   33  H   UNL     1      40.439 -13.267  -1.071  1.00  0.00     0.163 HD
HETATM   34  O   UNL     1      38.989 -10.624  -2.041  1.00  0.00    -0.268 OA
BRANCH  32  35
HETATM   35  C   UNL     1      38.373 -13.316  -1.493  1.00  0.00     0.187 C 
BRANCH  35  36
HETATM   36  C   UNL     1      38.537 -14.378  -2.517  1.00  0.00     0.070 A 
HETATM   37  O   UNL     1      39.791 -14.895  -2.683  1.00  0.00    -0.325 OA
HETATM   38  C   UNL     1      39.712 -15.812  -3.682  1.00  0.00     0.142 A 
HETATM   39  C   UNL     1      38.425 -15.895  -4.160  1.00  0.00     0.027 A 
HETATM   40  C   UNL     1      37.664 -14.972  -3.404  1.00  0.00     0.036 A 
ENDBRANCH  35  36
ENDBRANCH  32  35
ENDBRANCH  26  31
ENDBRANCH  22  25
ENDBRANCH   1  21
TORSDOF 7
ENDMDL
MODEL 8
REMARK VINA RESULT:      -9.3      4.381      7.636
REMARK  7 active torsions:
REMARK  status: ('A' for Active; 'I' for Inactive)
REMARK    1  A    between atoms: C_2  and  C_3 
REMARK    2  A    between atoms: N_16  and  C_17 
REMARK    3  A    between atoms: C_17  and  C_18 
REMARK       I    between atoms: C_18  and  N_19 
REMARK    4  A    between atoms: N_19  and  C_20 
REMARK    5  A    between atoms: C_21  and  C_22 
REMARK       I    between atoms: C_22  and  N_23 
REMARK    6  A    between atoms: N_23  and  C_24 
REMARK    7  A    between atoms: C_24  and  C_25 
ROOT
HETATM    1  C   UNL     1      40.629 -15.440   6.089  1.00  0.00     0.240 C 
ENDROOT
BRANCH   1   2
HETATM    2  N   UNL     1      41.753 -15.858   5.272  1.00  0.00    -0.259 N 
HETATM    3  C   UNL     1      43.042 -15.517   5.532  1.00  0.00     0.326 A 
HETATM    4  N   UNL     1      43.835 -15.973   4.514  1.00  0.00    -0.321 N 
HETATM    5  O   UNL     1      43.463 -14.932   6.514  1.00  0.00    -0.247 OA
HETATM    6  C   UNL     1      43.077 -16.576   3.435  1.00  0.00     0.140 A 
HETATM    7  H   UNL     1      44.828 -15.780   4.492  1.00  0.00     0.165 HD
HETATM    8  C   UNL     1      43.221 -15.717   2.176  1.00  0.00     0.054 C 
HETATM    9  C   UNL     1      41.653 -16.416   4.026  1.00  0.00     0.261 A 
HETATM   10  O   UNL     1      40.607 -16.705   3.460  1.00  0.00    -0.270 OA
BRANCH   6  11
HETATM   11  C   UNL     1      43.430 -18.041   3.203  1.00  0.00    -0.020 A 
HETATM   12  C   UNL     1      43.890 -18.829   4.277  1.00  0.00     0.022 A 
HETATM   13  C   UNL     1      44.226 -20.185   4.117  1.00  0.00    -0.025 A 
HETATM   14  C   UNL     1      44.107 -20.780   2.844  1.00  0.00    -0.026 A 
HETATM   15  C   UNL     1      44.678 -20.960   5.198  1.00  0.00     0.012 A 
HETATM   16  C   UNL     1      43.658 -20.002   1.769  1.00  0.00     0.013 A 
HETATM   17  C   UNL     1      44.444 -22.135   2.684  1.00  0.00     0.012 A 
HETATM   18  C   UNL     1      43.324 -18.655   1.944  1.00  0.00     0.011 A 
HETATM   19  C   UNL     1      44.891 -22.891   3.769  1.00  0.00     0.001 A 
HETATM   20  C   UNL     1      45.006 -22.305   5.025  1.00  0.00     0.001 A 
ENDBRANCH   6  11
ENDBRANCH   1   2
BRANCH   1  21
HETATM   21  C   UNL     1      40.150 -14.015   5.803  1.00  0.00     0.240 C 
HETATM   22  N   UNL     1      40.940 -12.997   6.326  1.00  0.00    -0.325 N 
HETATM   23  H   UNL     1      41.887 -13.309   6.499  1.00  0.00     0.169 HD
HETATM   24  O   UNL     1      39.087 -13.818   5.211  1.00  0.00    -0.271 OA
BRANCH  22  25
HETATM   25  C   UNL     1      40.860 -11.694   5.769  1.00  0.00     0.050 A 
HETATM   26  C   UNL     1      40.726 -10.492   6.492  1.00  0.00     0.058 A 
HETATM   27  C   UNL     1      40.653  -9.278   5.778  1.00  0.00     0.019 A 
HETATM   28  C   UNL     1      40.720  -9.247   4.384  1.00  0.00     0.001 A 
HETATM   29  C   UNL     1      40.891 -10.430   3.679  1.00  0.00     0.002 A 
HETATM   30  C   UNL     1      40.971 -11.641   4.367  1.00  0.00     0.030 A 
BRANCH  26  31
HETATM   31  C   UNL     1      40.843 -10.331   7.970  1.00  0.00     0.254 C 
HETATM   32  N   UNL     1      42.064 -10.002   8.491  1.00  0.00    -0.351 N 
HETATM   33  H   UNL     1      42.877 -10.008   7.879  1.00  0.00     0.163 HD
HETATM   34  O   UNL     1      39.859 -10.552   8.671  1.00  0.00    -0.268 OA
BRANCH  32  35
HETATM   35  C   UNL     1      42.311  -9.941   9.911  1.00  0.00     0.187 C 
BRANCH  35  36
HETATM   36  C   UNL     1      43.591 -10.629  10.216  1.00  0.00     0.070 A 
HETATM   37  O   UNL     1      44.592 -10.521   9.294  1.00  0.00    -0.325 OA
HETATM   38  C   UNL     1      45.640 -11.249   9.760  1.00  0.00     0.142 A 
HETATM   39  C   UNL     1      45.328 -11.822  10.971  1.00  0.00     0.027 A 
HETATM   40  C   UNL     1      44.006 -11.418  11.269  1.00  0.00     0.036 A 
ENDBRANCH  35  36
ENDBRANCH  32  35
ENDBRANCH  26  31
ENDBRANCH  22  25
ENDBRANCH   1  21
TORSDOF 7
ENDMDL
MODEL 9
REMARK VINA RESULT:      -9.3      2.503      3.739
REMARK  7 active torsions:
REMARK  status: ('A' for Active; 'I' for Inactive)
REMARK    1  A    between atoms: C_2  and  C_3 
REMARK    2  A    between atoms: N_16  and  C_17 
REMARK    3  A    between atoms: C_17  and  C_18 
REMARK       I    between atoms: C_18  and  N_19 
REMARK    4  A    between atoms: N_19  and  C_20 
REMARK    5  A    between atoms: C_21  and  C_22 
REMARK       I    between atoms: C_22  and  N_23 
REMARK    6  A    between atoms: N_23  and  C_24 
REMARK    7  A    between atoms: C_24  and  C_25 
ROOT
HETATM    1  C   UNL     1      41.683 -12.592   3.476  1.00  0.00     0.240 C 
ENDROOT
BRANCH   1   2
HETATM    2  N   UNL     1      42.029 -13.645   4.413  1.00  0.00    -0.259 N 
HETATM    3  C   UNL     1      41.176 -14.128   5.353  1.00  0.00     0.326 A 
HETATM    4  N   UNL     1      41.847 -15.024   6.142  1.00  0.00    -0.321 N 
HETATM    5  O   UNL     1      39.996 -13.857   5.482  1.00  0.00    -0.247 OA
HETATM    6  C   UNL     1      43.257 -15.114   5.821  1.00  0.00     0.140 A 
HETATM    7  H   UNL     1      41.401 -15.464   6.936  1.00  0.00     0.165 HD
HETATM    8  C   UNL     1      44.078 -14.584   6.999  1.00  0.00     0.054 C 
HETATM    9  C   UNL     1      43.299 -14.101   4.647  1.00  0.00     0.261 A 
HETATM   10  O   UNL     1      44.304 -13.739   4.050  1.00  0.00    -0.270 OA
BRANCH   6  11
HETATM   11  C   UNL     1      43.682 -16.509   5.376  1.00  0.00    -0.020 A 
HETATM   12  C   UNL     1      43.240 -17.013   4.136  1.00  0.00     0.022 A 
HETATM   13  C   UNL     1      43.605 -18.292   3.677  1.00  0.00    -0.025 A 
HETATM   14  C   UNL     1      44.431 -19.103   4.481  1.00  0.00    -0.026 A 
HETATM   15  C   UNL     1      43.163 -18.778   2.436  1.00  0.00     0.012 A 
HETATM   16  C   UNL     1      44.868 -18.614   5.719  1.00  0.00     0.013 A 
HETATM   17  C   UNL     1      44.794 -20.381   4.024  1.00  0.00     0.012 A 
HETATM   18  C   UNL     1      44.500 -17.337   6.160  1.00  0.00     0.011 A 
HETATM   19  C   UNL     1      44.347 -20.850   2.788  1.00  0.00     0.001 A 
HETATM   20  C   UNL     1      43.533 -20.048   1.994  1.00  0.00     0.001 A 
ENDBRANCH   6  11
ENDBRANCH   1   2
BRANCH   1  21
HETATM   21  C   UNL     1      41.744 -13.022   2.009  1.00  0.00     0.240 C 
HETATM   22  N   UNL     1      40.914 -14.081   1.656  1.00  0.00    -0.325 N 
HETATM   23  H   UNL     1      40.138 -14.179   2.299  1.00  0.00     0.169 HD
HETATM   24  O   UNL     1      42.543 -12.495   1.233  1.00  0.00    -0.271 OA
BRANCH  22  25
HETATM   25  C   UNL     1      40.556 -14.264   0.295  1.00  0.00     0.050 A 
HETATM   26  C   UNL     1      39.602 -13.512  -0.418  1.00  0.00     0.058 A 
HETATM   27  C   UNL     1      39.361 -13.833  -1.770  1.00  0.00     0.019 A 
HETATM   28  C   UNL     1      40.051 -14.865  -2.409  1.00  0.00     0.001 A 
HETATM   29  C   UNL     1      41.018 -15.577  -1.713  1.00  0.00     0.002 A 
HETATM   30  C   UNL     1      41.276 -15.272  -0.376  1.00  0.00     0.030 A 
BRANCH  26  31
HETATM   31  C   UNL     1      38.933 -12.263   0.046  1.00  0.00     0.254 C 
HETATM   32  N   UNL     1      38.047 -12.350   1.084  1.00  0.00    -0.351 N 
HETATM   33  H   UNL     1      37.771 -13.270   1.418  1.00  0.00     0.163 HD
HETATM   34  O   UNL     1      39.157 -11.213  -0.551  1.00  0.00    -0.268 OA
BRANCH  32  35
HETATM   35  C   UNL     1      37.258 -11.227   1.528  1.00  0.00     0.187 C 
BRANCH  35  36
HETATM   36  C   UNL     1      37.951 -10.555   2.655  1.00  0.00     0.070 A 
HETATM   37  O   UNL     1      38.334  -9.257   2.467  1.00  0.00    -0.325 OA
HETATM   38  C   UNL     1      38.972  -8.865   3.600  1.00  0.00     0.142 A 
HETATM   39  C   UNL     1      39.004  -9.890   4.516  1.00  0.00     0.027 A 
HETATM   40  C   UNL     1      38.340 -10.982   3.908  1.00  0.00     0.036 A 
ENDBRANCH  35  36
ENDBRANCH  32  35
ENDBRANCH  26  31
ENDBRANCH  22  25
ENDBRANCH   1  21
TORSDOF 7
ENDMDL
MODEL 10
REMARK VINA RESULT:      -9.2      2.635      4.190
REMARK  7 active torsions:
REMARK  status: ('A' for Active; 'I' for Inactive)
REMARK    1  A    between atoms: C_2  and  C_3 
REMARK    2  A    between atoms: N_16  and  C_17 
REMARK    3  A    between atoms: C_17  and  C_18 
REMARK       I    between atoms: C_18  and  N_19 
REMARK    4  A    between atoms: N_19  and  C_20 
REMARK    5  A    between atoms: C_21  and  C_22 
REMARK       I    between atoms: C_22  and  N_23 
REMARK    6  A    between atoms: N_23  and  C_24 
REMARK    7  A    between atoms: C_24  and  C_25 
ROOT
HETATM    1  C   UNL     1      41.069 -13.869   4.096  1.00  0.00     0.240 C 
ENDROOT
BRANCH   1   2
HETATM    2  N   UNL     1      42.063 -14.786   3.569  1.00  0.00    -0.259 N 
HETATM    3  C   UNL     1      43.337 -14.425   3.269  1.00  0.00     0.326 A 
HETATM    4  N   UNL     1      43.974 -15.489   2.689  1.00  0.00    -0.321 N 
HETATM    5  O   UNL     1      43.869 -13.353   3.496  1.00  0.00    -0.247 OA
HETATM    6  C   UNL     1      43.098 -16.623   2.473  1.00  0.00     0.140 A 
HETATM    7  H   UNL     1      44.923 -15.412   2.346  1.00  0.00     0.165 HD
HETATM    8  C   UNL     1      42.927 -16.849   0.969  1.00  0.00     0.054 C 
HETATM    9  C   UNL     1      41.795 -16.033   3.072  1.00  0.00     0.261 A 
HETATM   10  O   UNL     1      40.697 -16.576   3.069  1.00  0.00    -0.270 OA
BRANCH   6  11
HETATM   11  C   UNL     1      43.544 -17.875   3.219  1.00  0.00    -0.020 A 
HETATM   12  C   UNL     1      43.677 -19.094   2.524  1.00  0.00     0.022 A 
HETATM   13  C   UNL     1      44.088 -20.278   3.163  1.00  0.00    -0.025 A 
HETATM   14  C   UNL     1      44.371 -20.252   4.544  1.00  0.00    -0.026 A 
HETATM   15  C   UNL     1      44.222 -21.483   2.457  1.00  0.00     0.012 A 
HETATM   16  C   UNL     1      44.234 -19.047   5.245  1.00  0.00     0.013 A 
HETATM   17  C   UNL     1      44.780 -21.434   5.184  1.00  0.00     0.012 A 
HETATM   18  C   UNL     1      43.828 -17.877   4.594  1.00  0.00     0.011 A 
HETATM   19  C   UNL     1      44.909 -22.625   4.467  1.00  0.00     0.001 A 
HETATM   20  C   UNL     1      44.632 -22.649   3.105  1.00  0.00     0.001 A 
ENDBRANCH   6  11
ENDBRANCH   1   2
BRANCH   1  21
HETATM   21  C   UNL     1      40.688 -12.744   3.132  1.00  0.00     0.240 C 
HETATM   22  N   UNL     1      39.744 -13.073   2.165  1.00  0.00    -0.325 N 
HETATM   23  H   UNL     1      39.181 -13.866   2.445  1.00  0.00     0.169 HD
HETATM   24  O   UNL     1      41.256 -11.652   3.188  1.00  0.00    -0.271 OA
BRANCH  22  25
HETATM   25  C   UNL     1      39.004 -12.040   1.532  1.00  0.00     0.050 A 
HETATM   26  C   UNL     1      39.117 -11.650   0.183  1.00  0.00     0.058 A 
HETATM   27  C   UNL     1      38.308 -10.594  -0.286  1.00  0.00     0.019 A 
HETATM   28  C   UNL     1      37.401  -9.944   0.553  1.00  0.00     0.001 A 
HETATM   29  C   UNL     1      37.265 -10.358   1.871  1.00  0.00     0.002 A 
HETATM   30  C   UNL     1      38.053 -11.405   2.352  1.00  0.00     0.030 A 
BRANCH  26  31
HETATM   31  C   UNL     1      39.876 -12.364  -0.885  1.00  0.00     0.254 C 
HETATM   32  N   UNL     1      39.625 -12.035  -2.188  1.00  0.00    -0.351 N 
HETATM   33  H   UNL     1      38.843 -11.418  -2.397  1.00  0.00     0.163 HD
HETATM   34  O   UNL     1      40.656 -13.256  -0.562  1.00  0.00    -0.268 OA
BRANCH  32  35
HETATM   35  C   UNL     1      40.214 -12.747  -3.296  1.00  0.00     0.187 C 
BRANCH  35  36
HETATM   36  C   UNL     1      39.456 -14.000  -3.533  1.00  0.00     0.070 A 
HETATM   37  O   UNL     1      40.177 -15.113  -3.860  1.00  0.00    -0.325 OA
HETATM   38  C   UNL     1      39.286 -16.117  -4.064  1.00  0.00     0.142 A 
HETATM   39  C   UNL     1      38.001 -15.668  -3.870  1.00  0.00     0.027 A 
HETATM   40  C   UNL     1      38.109 -14.301  -3.522  1.00  0.00     0.036 A 
ENDBRANCH  35  36
ENDBRANCH  32  35
ENDBRANCH  26  31
ENDBRANCH  22  25
ENDBRANCH   1  21
TORSDOF 7
ENDMDL
