MODEL 1
REMARK VINA RESULT:      -9.4      0.000      0.000
REMARK  6 active torsions:
REMARK  status: ('A' for Active; 'I' for Inactive)
REMARK    1  A    between atoms: C_3  and  N_4 
REMARK    2  A    between atoms: N_4  and  C_5 
REMARK    3  A    between atoms: C_5  and  C_6 
REMARK    4  A    between atoms: N_8  and  C_10 
REMARK    5  A    between atoms: C_10  and  C_11 
REMARK    6  A    between atoms: C_12  and  C_13 
ROOT
HETATM    1  C   UNL     1      44.217 -15.881   6.615  1.00  0.00     0.031 C 
HETATM    2  C   UNL     1      43.090 -15.716   5.598  1.00  0.00     0.241 C 
HETATM    3  N   UNL     1      42.150 -16.875   5.866  1.00  0.00    -0.067 N 
HETATM    4  H   UNL     1      41.213 -16.489   6.051  1.00  0.00     0.280 HD
HETATM    5  C   UNL     1      42.613 -17.567   7.127  1.00  0.00     0.235 C 
HETATM    6  C   UNL     1      43.508 -16.539   7.797  1.00  0.00     0.035 C 
ENDROOT
BRANCH   3   7
HETATM    7  C   UNL     1      41.949 -17.832   4.711  1.00  0.00     0.277 C 
BRANCH   7   8
HETATM    8  C   UNL     1      42.789 -17.546   3.521  1.00  0.00     0.016 A 
HETATM    9  C   UNL     1      43.790 -18.409   2.958  1.00  0.00     0.102 A 
HETATM   10  N   UNL     1      44.371 -17.826   1.905  1.00  0.00    -0.174 NA
HETATM   11  N   UNL     1      43.734 -16.668   1.736  1.00  0.00    -0.288 N 
HETATM   12  H   UNL     1      44.003 -16.084   0.946  1.00  0.00     0.188 HD
HETATM   13  C   UNL     1      42.782 -16.439   2.689  1.00  0.00     0.120 A 
BRANCH   9  14
HETATM   14  C   UNL     1      44.185 -19.753   3.366  1.00  0.00     0.072 A 
HETATM   15  C   UNL     1      44.777 -19.979   4.612  1.00  0.00     0.132 A 
HETATM   16  F   UNL     1      45.065 -18.947   5.420  1.00  0.00    -0.205 F 
HETATM   17  C   UNL     1      45.110 -21.265   5.039  1.00  0.00     0.043 A 
HETATM   18  C   UNL     1      44.852 -22.357   4.212  1.00  0.00     0.006 A 
HETATM   19  C   UNL     1      44.276 -22.151   2.959  1.00  0.00     0.043 A 
HETATM   20  C   UNL     1      43.949 -20.859   2.544  1.00  0.00     0.132 A 
HETATM   21  F   UNL     1      43.447 -20.700   1.311  1.00  0.00    -0.205 F 
ENDBRANCH   9  14
ENDBRANCH   7   8
ENDBRANCH   3   7
BRANCH   1  22
HETATM   22  C   UNL     1      44.898 -14.550   6.964  1.00  0.00     0.127 C 
BRANCH  22  23
HETATM   23  N   UNL     1      43.992 -13.709   7.756  1.00  0.00    -0.376 N 
HETATM   24  H   UNL     1      43.131 -14.184   8.018  1.00  0.00     0.161 HD
BRANCH  23  25
HETATM   25  C   UNL     1      44.513 -12.854   8.720  1.00  0.00     0.100 A 
HETATM   26  C   UNL     1      45.616 -12.011   8.515  1.00  0.00     0.048 A 
HETATM   27  C   UNL     1      46.054 -11.161   9.531  1.00  0.00     0.005 A 
HETATM   28  C   UNL     1      45.384 -11.141  10.746  1.00  0.00     0.017 A 
HETATM   29  C   UNL     1      44.283 -11.964  10.908  1.00  0.00     0.089 A 
HETATM   30  N   UNL     1      43.887 -12.768   9.909  1.00  0.00    -0.353 N 
HETATM   31  H   UNL     1      43.061 -13.338  10.060  1.00  0.00     0.166 HD
ENDBRANCH  23  25
ENDBRANCH  22  23
ENDBRANCH   1  22
TORSDOF 6
ENDMDL
MODEL 2
REMARK VINA RESULT:      -9.2      0.566      1.684
REMARK  6 active torsions:
REMARK  status: ('A' for Active; 'I' for Inactive)
REMARK    1  A    between atoms: C_3  and  N_4 
REMARK    2  A    between atoms: N_4  and  C_5 
REMARK    3  A    between atoms: C_5  and  C_6 
REMARK    4  A    between atoms: N_8  and  C_10 
REMARK    5  A    between atoms: C_10  and  C_11 
REMARK    6  A    between atoms: C_12  and  C_13 
ROOT
HETATM    1  C   UNL     1      44.220 -15.712   6.607  1.00  0.00     0.031 C 
HETATM    2  C   UNL     1      43.035 -15.523   5.660  1.00  0.00     0.241 C 
HETATM    3  N   UNL     1      42.124 -16.703   5.936  1.00  0.00    -0.067 N 
HETATM    4  H   UNL     1      41.195 -16.336   6.188  1.00  0.00     0.280 HD
HETATM    5  C   UNL     1      42.665 -17.436   7.142  1.00  0.00     0.235 C 
HETATM    6  C   UNL     1      43.585 -16.422   7.800  1.00  0.00     0.035 C 
ENDROOT
BRANCH   3   7
HETATM    7  C   UNL     1      41.869 -17.619   4.759  1.00  0.00     0.277 C 
BRANCH   7   8
HETATM    8  C   UNL     1      42.712 -17.341   3.568  1.00  0.00     0.016 A 
HETATM    9  C   UNL     1      43.691 -18.221   2.995  1.00  0.00     0.102 A 
HETATM   10  N   UNL     1      44.282 -17.641   1.945  1.00  0.00    -0.174 NA
HETATM   11  N   UNL     1      43.671 -16.467   1.788  1.00  0.00    -0.288 N 
HETATM   12  H   UNL     1      43.951 -15.883   1.003  1.00  0.00     0.188 HD
HETATM   13  C   UNL     1      42.728 -16.226   2.747  1.00  0.00     0.120 A 
BRANCH   9  14
HETATM   14  C   UNL     1      44.056 -19.577   3.388  1.00  0.00     0.072 A 
HETATM   15  C   UNL     1      43.742 -20.669   2.573  1.00  0.00     0.132 A 
HETATM   16  F   UNL     1      43.027 -20.490   1.451  1.00  0.00    -0.205 F 
HETATM   17  C   UNL     1      44.132 -21.966   2.907  1.00  0.00     0.043 A 
HETATM   18  C   UNL     1      44.851 -22.191   4.079  1.00  0.00     0.006 A 
HETATM   19  C   UNL     1      45.161 -21.118   4.914  1.00  0.00     0.043 A 
HETATM   20  C   UNL     1      44.763 -19.826   4.567  1.00  0.00     0.132 A 
HETATM   21  F   UNL     1      45.035 -18.831   5.425  1.00  0.00    -0.205 F 
ENDBRANCH   9  14
ENDBRANCH   7   8
ENDBRANCH   3   7
BRANCH   1  22
HETATM   22  C   UNL     1      44.905 -14.387   6.967  1.00  0.00     0.127 C 
BRANCH  22  23
HETATM   23  N   UNL     1      43.904 -13.396   7.384  1.00  0.00    -0.376 N 
HETATM   24  H   UNL     1      42.962 -13.774   7.432  1.00  0.00     0.161 HD
BRANCH  23  25
HETATM   25  C   UNL     1      44.223 -12.470   8.372  1.00  0.00     0.100 A 
HETATM   26  C   UNL     1      45.528 -12.192   8.803  1.00  0.00     0.048 A 
HETATM   27  C   UNL     1      45.758 -11.224   9.780  1.00  0.00     0.005 A 
HETATM   28  C   UNL     1      44.688 -10.524  10.319  1.00  0.00     0.017 A 
HETATM   29  C   UNL     1      43.414 -10.803   9.854  1.00  0.00     0.089 A 
HETATM   30  N   UNL     1      43.229 -11.739   8.911  1.00  0.00    -0.353 N 
HETATM   31  H   UNL     1      42.282 -11.896   8.579  1.00  0.00     0.166 HD
ENDBRANCH  23  25
ENDBRANCH  22  23
ENDBRANCH   1  22
TORSDOF 6
ENDMDL
MODEL 3
REMARK VINA RESULT:      -9.0      3.487      7.039
REMARK  6 active torsions:
REMARK  status: ('A' for Active; 'I' for Inactive)
REMARK    1  A    between atoms: C_3  and  N_4 
REMARK    2  A    between atoms: N_4  and  C_5 
REMARK    3  A    between atoms: C_5  and  C_6 
REMARK    4  A    between atoms: N_8  and  C_10 
REMARK    5  A    between atoms: C_10  and  C_11 
REMARK    6  A    between atoms: C_12  and  C_13 
ROOT
HETATM    1  C   UNL     1      43.200 -18.483   6.809  1.00  0.00     0.031 C 
HETATM    2  C   UNL     1      42.357 -18.056   5.607  1.00  0.00     0.241 C 
HETATM    3  N   UNL     1      42.194 -16.556   5.759  1.00  0.00    -0.067 N 
HETATM    4  H   UNL     1      42.542 -16.110   4.899  1.00  0.00     0.280 HD
HETATM    5  C   UNL     1      43.082 -16.105   6.896  1.00  0.00     0.235 C 
HETATM    6  C   UNL     1      44.064 -17.251   7.066  1.00  0.00     0.035 C 
ENDROOT
BRANCH   3   7
HETATM    7  C   UNL     1      40.769 -16.067   5.898  1.00  0.00     0.277 C 
BRANCH   7   8
HETATM    8  C   UNL     1      40.452 -14.857   5.096  1.00  0.00     0.016 A 
HETATM    9  C   UNL     1      40.761 -14.650   3.709  1.00  0.00     0.102 A 
HETATM   10  N   UNL     1      40.354 -13.440   3.315  1.00  0.00    -0.174 NA
HETATM   11  N   UNL     1      39.741 -12.903   4.370  1.00  0.00    -0.288 N 
HETATM   12  H   UNL     1      39.316 -11.985   4.261  1.00  0.00     0.188 HD
HETATM   13  C   UNL     1      39.783 -13.705   5.475  1.00  0.00     0.120 A 
BRANCH   9  14
HETATM   14  C   UNL     1      41.393 -15.559   2.759  1.00  0.00     0.072 A 
HETATM   15  C   UNL     1      40.622 -16.399   1.950  1.00  0.00     0.132 A 
HETATM   16  F   UNL     1      39.288 -16.438   2.094  1.00  0.00    -0.205 F 
HETATM   17  C   UNL     1      41.207 -17.234   0.997  1.00  0.00     0.043 A 
HETATM   18  C   UNL     1      42.592 -17.239   0.840  1.00  0.00     0.006 A 
HETATM   19  C   UNL     1      43.380 -16.421   1.649  1.00  0.00     0.043 A 
HETATM   20  C   UNL     1      42.781 -15.591   2.598  1.00  0.00     0.132 A 
HETATM   21  F   UNL     1      43.578 -14.860   3.391  1.00  0.00    -0.205 F 
ENDBRANCH   9  14
ENDBRANCH   7   8
ENDBRANCH   3   7
BRANCH   1  22
HETATM   22  C   UNL     1      44.006 -19.761   6.540  1.00  0.00     0.127 C 
BRANCH  22  23
HETATM   23  N   UNL     1      44.842 -19.591   5.344  1.00  0.00    -0.376 N 
HETATM   24  H   UNL     1      45.829 -19.472   5.559  1.00  0.00     0.161 HD
BRANCH  23  25
HETATM   25  C   UNL     1      44.569 -20.337   4.203  1.00  0.00     0.100 A 
HETATM   26  C   UNL     1      44.160 -19.788   2.979  1.00  0.00     0.048 A 
HETATM   27  C   UNL     1      43.938 -20.611   1.875  1.00  0.00     0.005 A 
HETATM   28  C   UNL     1      44.137 -21.980   1.987  1.00  0.00     0.017 A 
HETATM   29  C   UNL     1      44.567 -22.488   3.200  1.00  0.00     0.089 A 
HETATM   30  N   UNL     1      44.773 -21.668   4.242  1.00  0.00    -0.353 N 
HETATM   31  H   UNL     1      45.113 -22.077   5.107  1.00  0.00     0.166 HD
ENDBRANCH  23  25
ENDBRANCH  22  23
ENDBRANCH   1  22
TORSDOF 6
ENDMDL
MODEL 4
REMARK VINA RESULT:      -9.0      2.273      3.095
REMARK  6 active torsions:
REMARK  status: ('A' for Active; 'I' for Inactive)
REMARK    1  A    between atoms: C_3  and  N_4 
REMARK    2  A    between atoms: N_4  and  C_5 
REMARK    3  A    between atoms: C_5  and  C_6 
REMARK    4  A    between atoms: N_8  and  C_10 
REMARK    5  A    between atoms: C_10  and  C_11 
REMARK    6  A    between atoms: C_12  and  C_13 
ROOT
HETATM    1  C   UNL     1      43.562 -14.634   5.415  1.00  0.00     0.031 C 
HETATM    2  C   UNL     1      43.909 -13.905   4.117  1.00  0.00     0.241 C 
HETATM    3  N   UNL     1      42.570 -13.555   3.498  1.00  0.00    -0.067 N 
HETATM    4  H   UNL     1      42.546 -12.537   3.346  1.00  0.00     0.280 HD
HETATM    5  C   UNL     1      41.491 -13.889   4.503  1.00  0.00     0.235 C 
HETATM    6  C   UNL     1      42.240 -13.985   5.821  1.00  0.00     0.035 C 
ENDROOT
BRANCH   3   7
HETATM    7  C   UNL     1      42.306 -14.154   2.134  1.00  0.00     0.277 C 
BRANCH   7   8
HETATM    8  C   UNL     1      41.100 -15.018   2.063  1.00  0.00     0.016 A 
HETATM    9  C   UNL     1      41.054 -16.435   2.294  1.00  0.00     0.102 A 
HETATM   10  N   UNL     1      39.812 -16.896   2.121  1.00  0.00    -0.174 NA
HETATM   11  N   UNL     1      39.061 -15.825   1.861  1.00  0.00    -0.288 N 
HETATM   12  H   UNL     1      38.059 -15.961   1.739  1.00  0.00     0.188 HD
HETATM   13  C   UNL     1      39.786 -14.670   1.798  1.00  0.00     0.120 A 
BRANCH   9  14
HETATM   14  C   UNL     1      42.126 -17.340   2.692  1.00  0.00     0.072 A 
HETATM   15  C   UNL     1      42.246 -17.769   4.018  1.00  0.00     0.132 A 
HETATM   16  F   UNL     1      41.422 -17.287   4.960  1.00  0.00    -0.205 F 
HETATM   17  C   UNL     1      43.232 -18.678   4.404  1.00  0.00     0.043 A 
HETATM   18  C   UNL     1      44.123 -19.176   3.456  1.00  0.00     0.006 A 
HETATM   19  C   UNL     1      44.030 -18.749   2.132  1.00  0.00     0.043 A 
HETATM   20  C   UNL     1      43.039 -17.839   1.759  1.00  0.00     0.132 A 
HETATM   21  F   UNL     1      43.019 -17.414   0.487  1.00  0.00    -0.205 F 
ENDBRANCH   9  14
ENDBRANCH   7   8
ENDBRANCH   3   7
BRANCH   1  22
HETATM   22  C   UNL     1      44.665 -14.508   6.476  1.00  0.00     0.127 C 
BRANCH  22  23
HETATM   23  N   UNL     1      44.086 -14.106   7.764  1.00  0.00    -0.376 N 
HETATM   24  H   UNL     1      43.773 -14.894   8.325  1.00  0.00     0.161 HD
BRANCH  23  25
HETATM   25  C   UNL     1      44.658 -13.059   8.479  1.00  0.00     0.100 A 
HETATM   26  C   UNL     1      45.892 -12.470   8.165  1.00  0.00     0.048 A 
HETATM   27  C   UNL     1      46.376 -11.401   8.920  1.00  0.00     0.005 A 
HETATM   28  C   UNL     1      45.625 -10.912   9.979  1.00  0.00     0.017 A 
HETATM   29  C   UNL     1      44.400 -11.498  10.247  1.00  0.00     0.089 A 
HETATM   30  N   UNL     1      43.963 -12.523   9.499  1.00  0.00    -0.353 N 
HETATM   31  H   UNL     1      43.048 -12.908   9.713  1.00  0.00     0.166 HD
ENDBRANCH  23  25
ENDBRANCH  22  23
ENDBRANCH   1  22
TORSDOF 6
ENDMDL
MODEL 5
REMARK VINA RESULT:      -9.0      3.477      6.921
REMARK  6 active torsions:
REMARK  status: ('A' for Active; 'I' for Inactive)
REMARK    1  A    between atoms: C_3  and  N_4 
REMARK    2  A    between atoms: N_4  and  C_5 
REMARK    3  A    between atoms: C_5  and  C_6 
REMARK    4  A    between atoms: N_8  and  C_10 
REMARK    5  A    between atoms: C_10  and  C_11 
REMARK    6  A    between atoms: C_12  and  C_13 
ROOT
HETATM    1  C   UNL     1      43.274 -18.227   6.776  1.00  0.00     0.031 C 
HETATM    2  C   UNL     1      42.310 -17.920   5.631  1.00  0.00     0.241 C 
HETATM    3  N   UNL     1      42.177 -16.409   5.629  1.00  0.00    -0.067 N 
HETATM    4  H   UNL     1      42.433 -16.068   4.692  1.00  0.00     0.280 HD
HETATM    5  C   UNL     1      43.186 -15.853   6.606  1.00  0.00     0.235 C 
HETATM    6  C   UNL     1      44.172 -16.992   6.798  1.00  0.00     0.035 C 
ENDROOT
BRANCH   3   7
HETATM    7  C   UNL     1      40.779 -15.878   5.863  1.00  0.00     0.277 C 
BRANCH   7   8
HETATM    8  C   UNL     1      40.429 -14.686   5.050  1.00  0.00     0.016 A 
HETATM    9  C   UNL     1      40.692 -14.502   3.651  1.00  0.00     0.102 A 
HETATM   10  N   UNL     1      40.265 -13.302   3.248  1.00  0.00    -0.174 NA
HETATM   11  N   UNL     1      39.681 -12.750   4.312  1.00  0.00    -0.288 N 
HETATM   12  H   UNL     1      39.246 -11.836   4.199  1.00  0.00     0.188 HD
HETATM   13  C   UNL     1      39.764 -13.531   5.429  1.00  0.00     0.120 A 
BRANCH   9  14
HETATM   14  C   UNL     1      41.301 -15.424   2.697  1.00  0.00     0.072 A 
HETATM   15  C   UNL     1      42.687 -15.462   2.522  1.00  0.00     0.132 A 
HETATM   16  F   UNL     1      43.474 -14.591   3.173  1.00  0.00    -0.205 F 
HETATM   17  C   UNL     1      43.288 -16.375   1.656  1.00  0.00     0.043 A 
HETATM   18  C   UNL     1      42.499 -17.275   0.942  1.00  0.00     0.006 A 
HETATM   19  C   UNL     1      41.113 -17.242   1.090  1.00  0.00     0.043 A 
HETATM   20  C   UNL     1      40.525 -16.323   1.960  1.00  0.00     0.132 A 
HETATM   21  F   UNL     1      39.185 -16.290   2.033  1.00  0.00    -0.205 F 
ENDBRANCH   9  14
ENDBRANCH   7   8
ENDBRANCH   3   7
BRANCH   1  22
HETATM   22  C   UNL     1      44.036 -19.544   6.568  1.00  0.00     0.127 C 
BRANCH  22  23
HETATM   23  N   UNL     1      44.876 -19.459   5.366  1.00  0.00    -0.376 N 
HETATM   24  H   UNL     1      45.867 -19.364   5.575  1.00  0.00     0.161 HD
BRANCH  23  25
HETATM   25  C   UNL     1      44.576 -20.248   4.261  1.00  0.00     0.100 A 
HETATM   26  C   UNL     1      44.109 -19.748   3.036  1.00  0.00     0.048 A 
HETATM   27  C   UNL     1      43.863 -20.611   1.969  1.00  0.00     0.005 A 
HETATM   28  C   UNL     1      44.095 -21.971   2.117  1.00  0.00     0.017 A 
HETATM   29  C   UNL     1      44.581 -22.430   3.329  1.00  0.00     0.089 A 
HETATM   30  N   UNL     1      44.809 -21.572   4.335  1.00  0.00    -0.353 N 
HETATM   31  H   UNL     1      45.189 -21.946   5.199  1.00  0.00     0.166 HD
ENDBRANCH  23  25
ENDBRANCH  22  23
ENDBRANCH   1  22
TORSDOF 6
ENDMDL
MODEL 6
REMARK VINA RESULT:      -9.0      2.831      5.629
REMARK  6 active torsions:
REMARK  status: ('A' for Active; 'I' for Inactive)
REMARK    1  A    between atoms: C_3  and  N_4 
REMARK    2  A    between atoms: N_4  and  C_5 
REMARK    3  A    between atoms: C_5  and  C_6 
REMARK    4  A    between atoms: N_8  and  C_10 
REMARK    5  A    between atoms: C_10  and  C_11 
REMARK    6  A    between atoms: C_12  and  C_13 
ROOT
HETATM    1  C   UNL     1      42.508 -14.566   5.555  1.00  0.00     0.031 C 
HETATM    2  C   UNL     1      42.575 -15.855   6.373  1.00  0.00     0.241 C 
HETATM    3  N   UNL     1      43.971 -15.867   6.965  1.00  0.00    -0.067 N 
HETATM    4  H   UNL     1      43.882 -15.945   7.988  1.00  0.00     0.280 HD
HETATM    5  C   UNL     1      44.615 -14.533   6.665  1.00  0.00     0.235 C 
HETATM    6  C   UNL     1      43.441 -13.633   6.323  1.00  0.00     0.035 C 
ENDROOT
BRANCH   3   7
HETATM    7  C   UNL     1      44.839 -17.040   6.564  1.00  0.00     0.277 C 
BRANCH   7   8
HETATM    8  C   UNL     1      44.347 -18.360   7.035  1.00  0.00     0.016 A 
HETATM    9  C   UNL     1      43.932 -19.458   6.209  1.00  0.00     0.102 A 
HETATM   10  N   UNL     1      43.523 -20.483   6.963  1.00  0.00    -0.174 NA
HETATM   11  N   UNL     1      43.729 -20.107   8.225  1.00  0.00    -0.288 N 
HETATM   12  H   UNL     1      43.520 -20.776   8.964  1.00  0.00     0.188 HD
HETATM   13  C   UNL     1      44.209 -18.833   8.330  1.00  0.00     0.120 A 
BRANCH   9  14
HETATM   14  C   UNL     1      43.936 -19.572   4.754  1.00  0.00     0.072 A 
HETATM   15  C   UNL     1      44.849 -20.407   4.103  1.00  0.00     0.132 A 
HETATM   16  F   UNL     1      45.790 -21.056   4.806  1.00  0.00    -0.205 F 
HETATM   17  C   UNL     1      44.831 -20.569   2.718  1.00  0.00     0.043 A 
HETATM   18  C   UNL     1      43.885 -19.887   1.954  1.00  0.00     0.006 A 
HETATM   19  C   UNL     1      42.976 -19.037   2.582  1.00  0.00     0.043 A 
HETATM   20  C   UNL     1      43.006 -18.884   3.969  1.00  0.00     0.132 A 
HETATM   21  F   UNL     1      42.149 -18.016   4.527  1.00  0.00    -0.205 F 
ENDBRANCH   9  14
ENDBRANCH   7   8
ENDBRANCH   3   7
BRANCH   1  22
HETATM   22  C   UNL     1      41.076 -14.031   5.413  1.00  0.00     0.127 C 
BRANCH  22  23
HETATM   23  N   UNL     1      40.820 -13.630   4.023  1.00  0.00    -0.376 N 
HETATM   24  H   UNL     1      41.183 -12.707   3.799  1.00  0.00     0.161 HD
BRANCH  23  25
HETATM   25  C   UNL     1      40.925 -14.571   3.005  1.00  0.00     0.100 A 
HETATM   26  C   UNL     1      41.887 -14.527   1.985  1.00  0.00     0.048 A 
HETATM   27  C   UNL     1      41.939 -15.533   1.020  1.00  0.00     0.005 A 
HETATM   28  C   UNL     1      41.041 -16.589   1.079  1.00  0.00     0.017 A 
HETATM   29  C   UNL     1      40.121 -16.618   2.113  1.00  0.00     0.089 A 
HETATM   30  N   UNL     1      40.100 -15.635   3.026  1.00  0.00    -0.353 N 
HETATM   31  H   UNL     1      39.426 -15.706   3.783  1.00  0.00     0.166 HD
ENDBRANCH  23  25
ENDBRANCH  22  23
ENDBRANCH   1  22
TORSDOF 6
ENDMDL
MODEL 7
REMARK VINA RESULT:      -8.8      2.118      2.909
REMARK  6 active torsions:
REMARK  status: ('A' for Active; 'I' for Inactive)
REMARK    1  A    between atoms: C_3  and  N_4 
REMARK    2  A    between atoms: N_4  and  C_5 
REMARK    3  A    between atoms: C_5  and  C_6 
REMARK    4  A    between atoms: N_8  and  C_10 
REMARK    5  A    between atoms: C_10  and  C_11 
REMARK    6  A    between atoms: C_12  and  C_13 
ROOT
HETATM    1  C   UNL     1      44.572 -13.817   6.966  1.00  0.00     0.031 C 
HETATM    2  C   UNL     1      43.309 -13.400   6.214  1.00  0.00     0.241 C 
HETATM    3  N   UNL     1      42.830 -14.662   5.524  1.00  0.00    -0.067 N 
HETATM    4  H   UNL     1      41.860 -14.838   5.818  1.00  0.00     0.280 HD
HETATM    5  C   UNL     1      43.673 -15.813   6.024  1.00  0.00     0.235 C 
HETATM    6  C   UNL     1      44.291 -15.280   7.305  1.00  0.00     0.035 C 
ENDROOT
BRANCH   3   7
HETATM    7  C   UNL     1      42.767 -14.595   4.013  1.00  0.00     0.277 C 
BRANCH   7   8
HETATM    8  C   UNL     1      41.537 -15.179   3.421  1.00  0.00     0.016 A 
HETATM    9  C   UNL     1      41.407 -16.488   2.847  1.00  0.00     0.102 A 
HETATM   10  N   UNL     1      40.167 -16.675   2.385  1.00  0.00    -0.174 NA
HETATM   11  N   UNL     1      39.491 -15.572   2.705  1.00  0.00    -0.288 N 
HETATM   12  H   UNL     1      38.500 -15.533   2.475  1.00  0.00     0.188 HD
HETATM   13  C   UNL     1      40.269 -14.630   3.316  1.00  0.00     0.120 A 
BRANCH   9  14
HETATM   14  C   UNL     1      42.397 -17.556   2.751  1.00  0.00     0.072 A 
HETATM   15  C   UNL     1      42.602 -18.441   3.813  1.00  0.00     0.132 A 
HETATM   16  F   UNL     1      41.946 -18.269   4.971  1.00  0.00    -0.205 F 
HETATM   17  C   UNL     1      43.505 -19.500   3.716  1.00  0.00     0.043 A 
HETATM   18  C   UNL     1      44.225 -19.690   2.538  1.00  0.00     0.006 A 
HETATM   19  C   UNL     1      44.046 -18.809   1.473  1.00  0.00     0.043 A 
HETATM   20  C   UNL     1      43.140 -17.753   1.584  1.00  0.00     0.132 A 
HETATM   21  F   UNL     1      43.039 -16.897   0.555  1.00  0.00    -0.205 F 
ENDBRANCH   9  14
ENDBRANCH   7   8
ENDBRANCH   3   7
BRANCH   1  22
HETATM   22  C   UNL     1      44.846 -12.938   8.194  1.00  0.00     0.127 C 
BRANCH  22  23
HETATM   23  N   UNL     1      43.651 -12.156   8.535  1.00  0.00    -0.376 N 
HETATM   24  H   UNL     1      42.789 -12.571   8.189  1.00  0.00     0.161 HD
BRANCH  23  25
HETATM   25  C   UNL     1      43.558 -11.551   9.783  1.00  0.00     0.100 A 
HETATM   26  C   UNL     1      44.638 -10.962  10.458  1.00  0.00     0.048 A 
HETATM   27  C   UNL     1      44.447 -10.348  11.696  1.00  0.00     0.005 A 
HETATM   28  C   UNL     1      43.178 -10.310  12.255  1.00  0.00     0.017 A 
HETATM   29  C   UNL     1      42.128 -10.876  11.553  1.00  0.00     0.089 A 
HETATM   30  N   UNL     1      42.346 -11.456  10.362  1.00  0.00    -0.353 N 
HETATM   31  H   UNL     1      41.545 -11.838   9.868  1.00  0.00     0.166 HD
ENDBRANCH  23  25
ENDBRANCH  22  23
ENDBRANCH   1  22
TORSDOF 6
ENDMDL
MODEL 8
REMARK VINA RESULT:      -8.7      3.375      7.517
REMARK  6 active torsions:
REMARK  status: ('A' for Active; 'I' for Inactive)
REMARK    1  A    between atoms: C_3  and  N_4 
REMARK    2  A    between atoms: N_4  and  C_5 
REMARK    3  A    between atoms: C_5  and  C_6 
REMARK    4  A    between atoms: N_8  and  C_10 
REMARK    5  A    between atoms: C_10  and  C_11 
REMARK    6  A    between atoms: C_12  and  C_13 
ROOT
HETATM    1  C   UNL     1      42.854 -17.968   2.029  1.00  0.00     0.031 C 
HETATM    2  C   UNL     1      42.885 -17.359   3.430  1.00  0.00     0.241 C 
HETATM    3  N   UNL     1      43.640 -18.365   4.276  1.00  0.00    -0.067 N 
HETATM    4  H   UNL     1      44.437 -17.881   4.712  1.00  0.00     0.280 HD
HETATM    5  C   UNL     1      44.200 -19.422   3.352  1.00  0.00     0.235 C 
HETATM    6  C   UNL     1      44.155 -18.767   1.983  1.00  0.00     0.035 C 
ENDROOT
BRANCH   3   7
HETATM    7  C   UNL     1      42.865 -18.952   5.436  1.00  0.00     0.277 C 
BRANCH   7   8
HETATM    8  C   UNL     1      43.224 -18.391   6.764  1.00  0.00     0.016 A 
HETATM    9  C   UNL     1      43.000 -17.045   7.208  1.00  0.00     0.102 A 
HETATM   10  N   UNL     1      43.470 -16.877   8.448  1.00  0.00    -0.174 NA
HETATM   11  N   UNL     1      43.915 -18.074   8.830  1.00  0.00    -0.288 N 
HETATM   12  H   UNL     1      44.280 -18.169   9.777  1.00  0.00     0.188 HD
HETATM   13  C   UNL     1      43.807 -19.020   7.851  1.00  0.00     0.120 A 
BRANCH   9  14
HETATM   14  C   UNL     1      42.342 -15.942   6.516  1.00  0.00     0.072 A 
HETATM   15  C   UNL     1      40.960 -15.951   6.305  1.00  0.00     0.132 A 
HETATM   16  F   UNL     1      40.229 -17.016   6.667  1.00  0.00    -0.205 F 
HETATM   17  C   UNL     1      40.308 -14.879   5.694  1.00  0.00     0.043 A 
HETATM   18  C   UNL     1      41.041 -13.769   5.279  1.00  0.00     0.006 A 
HETATM   19  C   UNL     1      42.423 -13.748   5.465  1.00  0.00     0.043 A 
HETATM   20  C   UNL     1      43.062 -14.827   6.077  1.00  0.00     0.132 A 
HETATM   21  F   UNL     1      44.399 -14.789   6.189  1.00  0.00    -0.205 F 
ENDBRANCH   9  14
ENDBRANCH   7   8
ENDBRANCH   3   7
BRANCH   1  22
HETATM   22  C   UNL     1      42.738 -16.907   0.926  1.00  0.00     0.127 C 
BRANCH  22  23
HETATM   23  N   UNL     1      41.385 -16.915   0.355  1.00  0.00    -0.376 N 
HETATM   24  H   UNL     1      40.976 -17.845   0.307  1.00  0.00     0.161 HD
BRANCH  23  25
HETATM   25  C   UNL     1      40.498 -15.892   0.674  1.00  0.00     0.100 A 
HETATM   26  C   UNL     1      39.984 -15.665   1.959  1.00  0.00     0.048 A 
HETATM   27  C   UNL     1      39.121 -14.595   2.195  1.00  0.00     0.005 A 
HETATM   28  C   UNL     1      38.783 -13.743   1.154  1.00  0.00     0.017 A 
HETATM   29  C   UNL     1      39.328 -13.977  -0.096  1.00  0.00     0.089 A 
HETATM   30  N   UNL     1      40.156 -15.015  -0.289  1.00  0.00    -0.353 N 
HETATM   31  H   UNL     1      40.554 -15.138  -1.215  1.00  0.00     0.166 HD
ENDBRANCH  23  25
ENDBRANCH  22  23
ENDBRANCH   1  22
TORSDOF 6
ENDMDL
MODEL 9
REMARK VINA RESULT:      -8.6      5.354      8.806
REMARK  6 active torsions:
REMARK  status: ('A' for Active; 'I' for Inactive)
REMARK    1  A    between atoms: C_3  and  N_4 
REMARK    2  A    between atoms: N_4  and  C_5 
REMARK    3  A    between atoms: C_5  and  C_6 
REMARK    4  A    between atoms: N_8  and  C_10 
REMARK    5  A    between atoms: C_10  and  C_11 
REMARK    6  A    between atoms: C_12  and  C_13 
ROOT
HETATM    1  C   UNL     1      42.205 -16.995   2.609  1.00  0.00     0.031 C 
HETATM    2  C   UNL     1      40.714 -16.662   2.625  1.00  0.00     0.241 C 
HETATM    3  N   UNL     1      40.380 -16.301   1.191  1.00  0.00    -0.067 N 
HETATM    4  H   UNL     1      39.614 -16.915   0.878  1.00  0.00     0.280 HD
HETATM    5  C   UNL     1      41.589 -16.613   0.339  1.00  0.00     0.235 C 
HETATM    6  C   UNL     1      42.407 -17.556   1.203  1.00  0.00     0.035 C 
ENDROOT
BRANCH   3   7
HETATM    7  C   UNL     1      39.857 -14.897   0.976  1.00  0.00     0.277 C 
BRANCH   7   8
HETATM    8  C   UNL     1      40.748 -14.025   0.169  1.00  0.00     0.016 A 
HETATM    9  C   UNL     1      40.713 -13.857  -1.256  1.00  0.00     0.102 A 
HETATM   10  N   UNL     1      41.673 -13.017  -1.652  1.00  0.00    -0.174 NA
HETATM   11  N   UNL     1      42.265 -12.592  -0.536  1.00  0.00    -0.288 N 
HETATM   12  H   UNL     1      43.008 -11.901  -0.621  1.00  0.00     0.188 HD
HETATM   13  C   UNL     1      41.760 -13.178   0.590  1.00  0.00     0.120 A 
BRANCH   9  14
HETATM   14  C   UNL     1      39.796 -14.438  -2.231  1.00  0.00     0.072 A 
HETATM   15  C   UNL     1      40.208 -15.477  -3.072  1.00  0.00     0.132 A 
HETATM   16  F   UNL     1      41.481 -15.900  -3.048  1.00  0.00    -0.205 F 
HETATM   17  C   UNL     1      39.329 -16.081  -3.971  1.00  0.00     0.043 A 
HETATM   18  C   UNL     1      38.006 -15.646  -4.042  1.00  0.00     0.006 A 
HETATM   19  C   UNL     1      37.580 -14.601  -3.224  1.00  0.00     0.043 A 
HETATM   20  C   UNL     1      38.471 -14.006  -2.329  1.00  0.00     0.132 A 
HETATM   21  F   UNL     1      38.034 -12.969  -1.599  1.00  0.00    -0.205 F 
ENDBRANCH   9  14
ENDBRANCH   7   8
ENDBRANCH   3   7
BRANCH   1  22
HETATM   22  C   UNL     1      42.605 -17.966   3.728  1.00  0.00     0.127 C 
BRANCH  22  23
HETATM   23  N   UNL     1      43.958 -18.486   3.488  1.00  0.00    -0.376 N 
HETATM   24  H   UNL     1      44.684 -17.941   3.947  1.00  0.00     0.161 HD
BRANCH  23  25
HETATM   25  C   UNL     1      44.173 -19.860   3.466  1.00  0.00     0.100 A 
HETATM   26  C   UNL     1      44.027 -20.664   2.326  1.00  0.00     0.048 A 
HETATM   27  C   UNL     1      44.294 -22.032   2.389  1.00  0.00     0.005 A 
HETATM   28  C   UNL     1      44.719 -22.595   3.583  1.00  0.00     0.017 A 
HETATM   29  C   UNL     1      44.879 -21.771   4.683  1.00  0.00     0.089 A 
HETATM   30  N   UNL     1      44.615 -20.458   4.588  1.00  0.00    -0.353 N 
HETATM   31  H   UNL     1      44.769 -19.884   5.411  1.00  0.00     0.166 HD
ENDBRANCH  23  25
ENDBRANCH  22  23
ENDBRANCH   1  22
TORSDOF 6
ENDMDL
MODEL 10
REMARK VINA RESULT:      -8.6      5.322      8.742
REMARK  6 active torsions:
REMARK  status: ('A' for Active; 'I' for Inactive)
REMARK    1  A    between atoms: C_3  and  N_4 
REMARK    2  A    between atoms: N_4  and  C_5 
REMARK    3  A    between atoms: C_5  and  C_6 
REMARK    4  A    between atoms: N_8  and  C_10 
REMARK    5  A    between atoms: C_10  and  C_11 
REMARK    6  A    between atoms: C_12  and  C_13 
ROOT
HETATM    1  C   UNL     1      42.519 -16.930   2.555  1.00  0.00     0.031 C 
HETATM    2  C   UNL     1      41.007 -16.732   2.655  1.00  0.00     0.241 C 
HETATM    3  N   UNL     1      40.561 -16.417   1.241  1.00  0.00    -0.067 N 
HETATM    4  H   UNL     1      39.838 -17.101   0.975  1.00  0.00     0.280 HD
HETATM    5  C   UNL     1      41.744 -16.627   0.323  1.00  0.00     0.235 C 
HETATM    6  C   UNL     1      42.692 -17.484   1.143  1.00  0.00     0.035 C 
ENDROOT
BRANCH   3   7
HETATM    7  C   UNL     1      39.903 -15.068   1.050  1.00  0.00     0.277 C 
BRANCH   7   8
HETATM    8  C   UNL     1      40.711 -14.091   0.276  1.00  0.00     0.016 A 
HETATM    9  C   UNL     1      40.636 -13.857  -1.139  1.00  0.00     0.102 A 
HETATM   10  N   UNL     1      41.524 -12.928  -1.506  1.00  0.00    -0.174 NA
HETATM   11  N   UNL     1      42.103 -12.515  -0.378  1.00  0.00    -0.288 N 
HETATM   12  H   UNL     1      42.790 -11.766  -0.439  1.00  0.00     0.188 HD
HETATM   13  C   UNL     1      41.664 -13.192   0.724  1.00  0.00     0.120 A 
BRANCH   9  14
HETATM   14  C   UNL     1      39.748 -14.457  -2.128  1.00  0.00     0.072 A 
HETATM   15  C   UNL     1      38.409 -14.067  -2.219  1.00  0.00     0.132 A 
HETATM   16  F   UNL     1      37.900 -13.189  -1.340  1.00  0.00    -0.205 F 
HETATM   17  C   UNL     1      37.560 -14.590  -3.195  1.00  0.00     0.043 A 
HETATM   18  C   UNL     1      38.048 -15.525  -4.106  1.00  0.00     0.006 A 
HETATM   19  C   UNL     1      39.376 -15.940  -4.022  1.00  0.00     0.043 A 
HETATM   20  C   UNL     1      40.214 -15.409  -3.040  1.00  0.00     0.132 A 
HETATM   21  F   UNL     1      41.469 -15.875  -2.961  1.00  0.00    -0.205 F 
ENDBRANCH   9  14
ENDBRANCH   7   8
ENDBRANCH   3   7
BRANCH   1  22
HETATM   22  C   UNL     1      43.069 -17.850   3.654  1.00  0.00     0.127 C 
BRANCH  22  23
HETATM   23  N   UNL     1      44.252 -18.570   3.167  1.00  0.00    -0.376 N 
HETATM   24  H   UNL     1      45.115 -18.042   3.274  1.00  0.00     0.161 HD
BRANCH  23  25
HETATM   25  C   UNL     1      44.364 -19.939   3.388  1.00  0.00     0.100 A 
HETATM   26  C   UNL     1      44.231 -20.914   2.388  1.00  0.00     0.048 A 
HETATM   27  C   UNL     1      44.389 -22.265   2.694  1.00  0.00     0.005 A 
HETATM   28  C   UNL     1      44.694 -22.644   3.993  1.00  0.00     0.017 A 
HETATM   29  C   UNL     1      44.846 -21.657   4.952  1.00  0.00     0.089 A 
HETATM   30  N   UNL     1      44.688 -20.365   4.623  1.00  0.00    -0.353 N 
HETATM   31  H   UNL     1      44.833 -19.671   5.349  1.00  0.00     0.166 HD
ENDBRANCH  23  25
ENDBRANCH  22  23
ENDBRANCH   1  22
TORSDOF 6
ENDMDL
