MODEL 1
REMARK VINA RESULT:      -8.4      0.000      0.000
REMARK  5 active torsions:
REMARK  status: ('A' for Active; 'I' for Inactive)
REMARK    1  A    between atoms: C_2  and  O_3 
REMARK    2  A    between atoms: C_2  and  C_4 
REMARK    3  A    between atoms: C_4  and  N_5 
REMARK       I    between atoms: N_5  and  C_6 
REMARK    4  A    between atoms: C_6  and  C_7 
REMARK    5  A    between atoms: C_15  and  C_16 
ROOT
HETATM    1  C   UNL     1      43.904 -14.601   6.521  1.00  0.00     0.046 A 
HETATM    2  C   UNL     1      42.693 -14.167   5.939  1.00  0.00     0.008 A 
HETATM    3  C   UNL     1      41.943 -15.153   5.273  1.00  0.00     0.068 A 
HETATM    4  C   UNL     1      40.735 -14.797   4.688  1.00  0.00     0.032 A 
HETATM    5  C   UNL     1      40.241 -13.492   4.741  1.00  0.00     0.002 A 
HETATM    6  C   UNL     1      40.969 -12.511   5.398  1.00  0.00     0.001 A 
HETATM    7  C   UNL     1      42.184 -12.843   5.995  1.00  0.00     0.015 A 
HETATM    8  N   UNL     1      42.338 -16.435   5.180  1.00  0.00    -0.248 NA
HETATM    9  C   UNL     1      43.516 -16.826   5.722  1.00  0.00     0.068 A 
HETATM   10  C   UNL     1      44.321 -15.931   6.405  1.00  0.00     0.050 A 
ENDROOT
BRANCH   1  11
HETATM   11  C   UNL     1      44.795 -13.669   7.257  1.00  0.00     0.252 C 
HETATM   12  N   UNL     1      44.359 -13.317   8.516  1.00  0.00    -0.354 N 
HETATM   13  H   UNL     1      43.433 -13.586   8.823  1.00  0.00     0.162 HD
HETATM   14  O   UNL     1      45.831 -13.259   6.753  1.00  0.00    -0.268 OA
BRANCH  12  15
HETATM   15  C   UNL     1      45.125 -12.419   9.361  1.00  0.00     0.154 C 
BRANCH  15  16
HETATM   16  C   UNL     1      44.497 -12.160  10.740  1.00  0.00     0.132 C 
HETATM   17  C   UNL     1      43.192 -11.380  10.643  1.00  0.00     0.041 C 
BRANCH  16  18
HETATM   18  O   UNL     1      44.220 -13.420  11.356  1.00  0.00    -0.394 OA
HETATM   19  H   UNL     1      43.791 -13.233  12.209  1.00  0.00     0.210 HD
ENDBRANCH  16  18
ENDBRANCH  15  16
ENDBRANCH  12  15
ENDBRANCH   1  11
BRANCH   9  20
HETATM   20  C   UNL     1      43.859 -18.254   5.545  1.00  0.00    -0.007 A 
HETATM   21  C   UNL     1      44.332 -18.770   4.323  1.00  0.00     0.015 A 
HETATM   22  C   UNL     1      44.660 -20.124   4.180  1.00  0.00     0.024 A 
HETATM   23  C   UNL     1      44.515 -20.990   5.260  1.00  0.00     0.034 A 
HETATM   24 CL   UNL     1      44.919 -22.653   5.084  1.00  0.00    -0.084 Cl
HETATM   25  C   UNL     1      44.040 -20.517   6.476  1.00  0.00     0.024 A 
HETATM   26  C   UNL     1      43.714 -19.162   6.614  1.00  0.00     0.015 A 
ENDBRANCH   9  20
TORSDOF 5
ENDMDL
MODEL 2
REMARK VINA RESULT:      -8.4      5.653      8.216
REMARK  5 active torsions:
REMARK  status: ('A' for Active; 'I' for Inactive)
REMARK    1  A    between atoms: C_2  and  O_3 
REMARK    2  A    between atoms: C_2  and  C_4 
REMARK    3  A    between atoms: C_4  and  N_5 
REMARK       I    between atoms: N_5  and  C_6 
REMARK    4  A    between atoms: C_6  and  C_7 
REMARK    5  A    between atoms: C_15  and  C_16 
ROOT
HETATM    1  C   UNL     1      41.122 -15.308   0.128  1.00  0.00     0.046 A 
HETATM    2  C   UNL     1      40.408 -14.486   1.028  1.00  0.00     0.008 A 
HETATM    3  C   UNL     1      40.532 -14.813   2.389  1.00  0.00     0.068 A 
HETATM    4  C   UNL     1      39.866 -14.038   3.330  1.00  0.00     0.032 A 
HETATM    5  C   UNL     1      39.077 -12.945   2.965  1.00  0.00     0.002 A 
HETATM    6  C   UNL     1      38.949 -12.610   1.625  1.00  0.00     0.001 A 
HETATM    7  C   UNL     1      39.610 -13.371   0.663  1.00  0.00     0.015 A 
HETATM    8  N   UNL     1      41.275 -15.843   2.831  1.00  0.00    -0.248 NA
HETATM    9  C   UNL     1      41.932 -16.636   1.951  1.00  0.00     0.068 A 
HETATM   10  C   UNL     1      41.878 -16.390   0.589  1.00  0.00     0.050 A 
ENDROOT
BRANCH   1  11
HETATM   11  C   UNL     1      41.085 -15.078  -1.337  1.00  0.00     0.252 C 
HETATM   12  N   UNL     1      40.290 -15.951  -2.046  1.00  0.00    -0.354 N 
HETATM   13  H   UNL     1      39.889 -16.757  -1.583  1.00  0.00     0.162 HD
HETATM   14  O   UNL     1      41.728 -14.171  -1.849  1.00  0.00    -0.268 OA
BRANCH  12  15
HETATM   15  C   UNL     1      40.145 -15.850  -3.487  1.00  0.00     0.154 C 
BRANCH  15  16
HETATM   16  C   UNL     1      38.769 -16.283  -4.016  1.00  0.00     0.132 C 
HETATM   17  C   UNL     1      37.731 -15.174  -3.906  1.00  0.00     0.041 C 
BRANCH  16  18
HETATM   18  O   UNL     1      38.904 -16.634  -5.396  1.00  0.00    -0.394 OA
HETATM   19  H   UNL     1      39.830 -16.465  -5.645  1.00  0.00     0.210 HD
ENDBRANCH  16  18
ENDBRANCH  15  16
ENDBRANCH  12  15
ENDBRANCH   1  11
BRANCH   9  20
HETATM   20  C   UNL     1      42.705 -17.749   2.544  1.00  0.00    -0.007 A 
HETATM   21  C   UNL     1      43.293 -18.760   1.761  1.00  0.00     0.015 A 
HETATM   22  C   UNL     1      44.030 -19.800   2.342  1.00  0.00     0.024 A 
HETATM   23  C   UNL     1      44.187 -19.849   3.724  1.00  0.00     0.034 A 
HETATM   24 CL   UNL     1      45.093 -21.125   4.438  1.00  0.00    -0.084 Cl
HETATM   25  C   UNL     1      43.610 -18.873   4.527  1.00  0.00     0.024 A 
HETATM   26  C   UNL     1      42.876 -17.836   3.941  1.00  0.00     0.015 A 
ENDBRANCH   9  20
TORSDOF 5
ENDMDL
MODEL 3
REMARK VINA RESULT:      -8.3      4.529      7.066
REMARK  5 active torsions:
REMARK  status: ('A' for Active; 'I' for Inactive)
REMARK    1  A    between atoms: C_2  and  O_3 
REMARK    2  A    between atoms: C_2  and  C_4 
REMARK    3  A    between atoms: C_4  and  N_5 
REMARK       I    between atoms: N_5  and  C_6 
REMARK    4  A    between atoms: C_6  and  C_7 
REMARK    5  A    between atoms: C_15  and  C_16 
ROOT
HETATM    1  C   UNL     1      41.805 -15.537   1.857  1.00  0.00     0.046 A 
HETATM    2  C   UNL     1      42.107 -14.681   2.938  1.00  0.00     0.008 A 
HETATM    3  C   UNL     1      42.877 -15.245   3.971  1.00  0.00     0.068 A 
HETATM    4  C   UNL     1      43.221 -14.454   5.060  1.00  0.00     0.032 A 
HETATM    5  C   UNL     1      42.828 -13.119   5.161  1.00  0.00     0.002 A 
HETATM    6  C   UNL     1      42.072 -12.549   4.147  1.00  0.00     0.001 A 
HETATM    7  C   UNL     1      41.715 -13.321   3.042  1.00  0.00     0.015 A 
HETATM    8  N   UNL     1      43.305 -16.519   3.954  1.00  0.00    -0.248 NA
HETATM    9  C   UNL     1      42.981 -17.333   2.920  1.00  0.00     0.068 A 
HETATM   10  C   UNL     1      42.235 -16.868   1.851  1.00  0.00     0.050 A 
ENDROOT
BRANCH   1  11
HETATM   11  C   UNL     1      41.003 -15.075   0.696  1.00  0.00     0.252 C 
HETATM   12  N   UNL     1      41.716 -14.886  -0.468  1.00  0.00    -0.354 N 
HETATM   13  H   UNL     1      42.727 -14.937  -0.454  1.00  0.00     0.162 HD
HETATM   14  O   UNL     1      39.800 -14.882   0.798  1.00  0.00    -0.268 OA
BRANCH  12  15
HETATM   15  C   UNL     1      41.072 -14.443  -1.691  1.00  0.00     0.154 C 
BRANCH  15  16
HETATM   16  C   UNL     1      41.084 -15.482  -2.824  1.00  0.00     0.132 C 
HETATM   17  C   UNL     1      39.804 -15.454  -3.649  1.00  0.00     0.041 C 
BRANCH  16  18
HETATM   18  O   UNL     1      42.182 -15.193  -3.692  1.00  0.00    -0.394 OA
HETATM   19  H   UNL     1      42.838 -15.902  -3.570  1.00  0.00     0.210 HD
ENDBRANCH  16  18
ENDBRANCH  15  16
ENDBRANCH  12  15
ENDBRANCH   1  11
BRANCH   9  20
HETATM   20  C   UNL     1      43.490 -18.718   3.013  1.00  0.00    -0.007 A 
HETATM   21  C   UNL     1      44.196 -19.188   4.137  1.00  0.00     0.015 A 
HETATM   22  C   UNL     1      44.661 -20.507   4.209  1.00  0.00     0.024 A 
HETATM   23  C   UNL     1      44.433 -21.381   3.150  1.00  0.00     0.034 A 
HETATM   24 CL   UNL     1      45.004 -23.001   3.239  1.00  0.00    -0.084 Cl
HETATM   25  C   UNL     1      43.751 -20.947   2.021  1.00  0.00     0.024 A 
HETATM   26  C   UNL     1      43.287 -19.628   1.955  1.00  0.00     0.015 A 
ENDBRANCH   9  20
TORSDOF 5
ENDMDL
MODEL 4
REMARK VINA RESULT:      -8.1      3.970      6.569
REMARK  5 active torsions:
REMARK  status: ('A' for Active; 'I' for Inactive)
REMARK    1  A    between atoms: C_2  and  O_3 
REMARK    2  A    between atoms: C_2  and  C_4 
REMARK    3  A    between atoms: C_4  and  N_5 
REMARK       I    between atoms: N_5  and  C_6 
REMARK    4  A    between atoms: C_6  and  C_7 
REMARK    5  A    between atoms: C_15  and  C_16 
ROOT
HETATM    1  C   UNL     1      42.836 -17.489   4.323  1.00  0.00     0.046 A 
HETATM    2  C   UNL     1      43.313 -18.661   3.695  1.00  0.00     0.008 A 
HETATM    3  C   UNL     1      42.938 -18.833   2.351  1.00  0.00     0.068 A 
HETATM    4  C   UNL     1      43.383 -19.959   1.669  1.00  0.00     0.032 A 
HETATM    5  C   UNL     1      44.191 -20.922   2.275  1.00  0.00     0.002 A 
HETATM    6  C   UNL     1      44.571 -20.761   3.599  1.00  0.00     0.001 A 
HETATM    7  C   UNL     1      44.139 -19.640   4.305  1.00  0.00     0.015 A 
HETATM    8  N   UNL     1      42.169 -17.954   1.686  1.00  0.00    -0.248 NA
HETATM    9  C   UNL     1      41.698 -16.849   2.313  1.00  0.00     0.068 A 
HETATM   10  C   UNL     1      42.020 -16.586   3.634  1.00  0.00     0.050 A 
ENDROOT
BRANCH   1  11
HETATM   11  C   UNL     1      43.156 -17.176   5.738  1.00  0.00     0.252 C 
HETATM   12  N   UNL     1      43.969 -16.080   5.924  1.00  0.00    -0.354 N 
HETATM   13  H   UNL     1      44.403 -15.633   5.127  1.00  0.00     0.162 HD
HETATM   14  O   UNL     1      42.718 -17.864   6.649  1.00  0.00    -0.268 OA
BRANCH  12  15
HETATM   15  C   UNL     1      44.364 -15.643   7.251  1.00  0.00     0.154 C 
BRANCH  15  16
HETATM   16  C   UNL     1      44.554 -14.124   7.385  1.00  0.00     0.132 C 
HETATM   17  C   UNL     1      43.579 -13.339   6.517  1.00  0.00     0.041 C 
BRANCH  16  18
HETATM   18  O   UNL     1      44.331 -13.759   8.750  1.00  0.00    -0.394 OA
HETATM   19  H   UNL     1      43.424 -13.412   8.808  1.00  0.00     0.210 HD
ENDBRANCH  16  18
ENDBRANCH  15  16
ENDBRANCH  12  15
ENDBRANCH   1  11
BRANCH   9  20
HETATM   20  C   UNL     1      40.849 -15.959   1.492  1.00  0.00    -0.007 A 
HETATM   21  C   UNL     1      41.216 -15.554   0.195  1.00  0.00     0.015 A 
HETATM   22  C   UNL     1      40.393 -14.717  -0.570  1.00  0.00     0.024 A 
HETATM   23  C   UNL     1      39.185 -14.267  -0.046  1.00  0.00     0.034 A 
HETATM   24 CL   UNL     1      38.174 -13.241  -0.986  1.00  0.00    -0.084 Cl
HETATM   25  C   UNL     1      38.798 -14.638   1.235  1.00  0.00     0.024 A 
HETATM   26  C   UNL     1      39.624 -15.474   1.995  1.00  0.00     0.015 A 
ENDBRANCH   9  20
TORSDOF 5
ENDMDL
MODEL 5
REMARK VINA RESULT:      -8.0      4.551      6.721
REMARK  5 active torsions:
REMARK  status: ('A' for Active; 'I' for Inactive)
REMARK    1  A    between atoms: C_2  and  O_3 
REMARK    2  A    between atoms: C_2  and  C_4 
REMARK    3  A    between atoms: C_4  and  N_5 
REMARK       I    between atoms: N_5  and  C_6 
REMARK    4  A    between atoms: C_6  and  C_7 
REMARK    5  A    between atoms: C_15  and  C_16 
ROOT
HETATM    1  C   UNL     1      42.438 -16.162   3.607  1.00  0.00     0.046 A 
HETATM    2  C   UNL     1      43.046 -17.421   3.408  1.00  0.00     0.008 A 
HETATM    3  C   UNL     1      42.950 -17.951   2.109  1.00  0.00     0.068 A 
HETATM    4  C   UNL     1      43.536 -19.181   1.840  1.00  0.00     0.032 A 
HETATM    5  C   UNL     1      44.218 -19.907   2.818  1.00  0.00     0.002 A 
HETATM    6  C   UNL     1      44.323 -19.394   4.102  1.00  0.00     0.001 A 
HETATM    7  C   UNL     1      43.745 -18.160   4.397  1.00  0.00     0.015 A 
HETATM    8  N   UNL     1      42.319 -17.318   1.104  1.00  0.00    -0.248 NA
HETATM    9  C   UNL     1      41.719 -16.122   1.322  1.00  0.00     0.068 A 
HETATM   10  C   UNL     1      41.766 -15.515   2.565  1.00  0.00     0.050 A 
ENDROOT
BRANCH   1  11
HETATM   11  C   UNL     1      42.465 -15.482   4.926  1.00  0.00     0.252 C 
HETATM   12  N   UNL     1      43.338 -14.421   5.019  1.00  0.00    -0.354 N 
HETATM   13  H   UNL     1      43.991 -14.238   4.268  1.00  0.00     0.162 HD
HETATM   14  O   UNL     1      41.754 -15.864   5.846  1.00  0.00    -0.268 OA
BRANCH  12  15
HETATM   15  C   UNL     1      43.472 -13.651   6.243  1.00  0.00     0.154 C 
BRANCH  15  16
HETATM   16  C   UNL     1      44.551 -14.175   7.204  1.00  0.00     0.132 C 
HETATM   17  C   UNL     1      45.096 -13.081   8.113  1.00  0.00     0.041 C 
BRANCH  16  18
HETATM   18  O   UNL     1      43.971 -15.191   8.025  1.00  0.00    -0.394 OA
HETATM   19  H   UNL     1      44.670 -15.843   8.209  1.00  0.00     0.210 HD
ENDBRANCH  16  18
ENDBRANCH  15  16
ENDBRANCH  12  15
ENDBRANCH   1  11
BRANCH   9  20
HETATM   20  C   UNL     1      41.041 -15.524   0.152  1.00  0.00    -0.007 A 
HETATM   21  C   UNL     1      41.346 -15.901  -1.170  1.00  0.00     0.015 A 
HETATM   22  C   UNL     1      40.685 -15.328  -2.264  1.00  0.00     0.024 A 
HETATM   23  C   UNL     1      39.707 -14.361  -2.054  1.00  0.00     0.034 A 
HETATM   24 CL   UNL     1      38.895 -13.659  -3.398  1.00  0.00    -0.084 Cl
HETATM   25  C   UNL     1      39.390 -13.958  -0.764  1.00  0.00     0.024 A 
HETATM   26  C   UNL     1      40.053 -14.534   0.326  1.00  0.00     0.015 A 
ENDBRANCH   9  20
TORSDOF 5
ENDMDL
MODEL 6
REMARK VINA RESULT:      -7.9      3.173      4.350
REMARK  5 active torsions:
REMARK  status: ('A' for Active; 'I' for Inactive)
REMARK    1  A    between atoms: C_2  and  O_3 
REMARK    2  A    between atoms: C_2  and  C_4 
REMARK    3  A    between atoms: C_4  and  N_5 
REMARK       I    between atoms: N_5  and  C_6 
REMARK    4  A    between atoms: C_6  and  C_7 
REMARK    5  A    between atoms: C_15  and  C_16 
ROOT
HETATM    1  C   UNL     1      42.840 -15.213   2.867  1.00  0.00     0.046 A 
HETATM    2  C   UNL     1      42.191 -15.034   1.626  1.00  0.00     0.008 A 
HETATM    3  C   UNL     1      42.045 -16.189   0.838  1.00  0.00     0.068 A 
HETATM    4  C   UNL     1      41.405 -16.088  -0.391  1.00  0.00     0.032 A 
HETATM    5  C   UNL     1      40.901 -14.876  -0.866  1.00  0.00     0.002 A 
HETATM    6  C   UNL     1      41.034 -13.730  -0.096  1.00  0.00     0.001 A 
HETATM    7  C   UNL     1      41.671 -13.806   1.141  1.00  0.00     0.015 A 
HETATM    8  N   UNL     1      42.493 -17.398   1.219  1.00  0.00    -0.248 NA
HETATM    9  C   UNL     1      43.138 -17.544   2.402  1.00  0.00     0.068 A 
HETATM   10  C   UNL     1      43.322 -16.468   3.252  1.00  0.00     0.050 A 
ENDROOT
BRANCH   1  11
HETATM   11  C   UNL     1      43.060 -14.082   3.803  1.00  0.00     0.252 C 
HETATM   12  N   UNL     1      42.112 -13.951   4.794  1.00  0.00    -0.354 N 
HETATM   13  H   UNL     1      41.274 -14.518   4.769  1.00  0.00     0.162 HD
HETATM   14  O   UNL     1      44.021 -13.335   3.674  1.00  0.00    -0.268 OA
BRANCH  12  15
HETATM   15  C   UNL     1      42.194 -12.898   5.790  1.00  0.00     0.154 C 
BRANCH  15  16
HETATM   16  C   UNL     1      40.928 -12.033   5.900  1.00  0.00     0.132 C 
HETATM   17  C   UNL     1      39.772 -12.592   5.081  1.00  0.00     0.041 C 
BRANCH  16  18
HETATM   18  O   UNL     1      40.525 -11.993   7.272  1.00  0.00    -0.394 OA
HETATM   19  H   UNL     1      41.190 -12.491   7.780  1.00  0.00     0.210 HD
ENDBRANCH  16  18
ENDBRANCH  15  16
ENDBRANCH  12  15
ENDBRANCH   1  11
BRANCH   9  20
HETATM   20  C   UNL     1      43.602 -18.913   2.713  1.00  0.00    -0.007 A 
HETATM   21  C   UNL     1      44.241 -19.234   3.926  1.00  0.00     0.015 A 
HETATM   22  C   UNL     1      44.665 -20.540   4.205  1.00  0.00     0.024 A 
HETATM   23  C   UNL     1      44.461 -21.550   3.270  1.00  0.00     0.034 A 
HETATM   24 CL   UNL     1      44.980 -23.153   3.614  1.00  0.00    -0.084 Cl
HETATM   25  C   UNL     1      43.844 -21.265   2.059  1.00  0.00     0.024 A 
HETATM   26  C   UNL     1      43.422 -19.959   1.785  1.00  0.00     0.015 A 
ENDBRANCH   9  20
TORSDOF 5
ENDMDL
MODEL 7
REMARK VINA RESULT:      -7.7      4.744      8.141
REMARK  5 active torsions:
REMARK  status: ('A' for Active; 'I' for Inactive)
REMARK    1  A    between atoms: C_2  and  O_3 
REMARK    2  A    between atoms: C_2  and  C_4 
REMARK    3  A    between atoms: C_4  and  N_5 
REMARK       I    between atoms: N_5  and  C_6 
REMARK    4  A    between atoms: C_6  and  C_7 
REMARK    5  A    between atoms: C_15  and  C_16 
ROOT
HETATM    1  C   UNL     1      42.743 -17.133   3.097  1.00  0.00     0.046 A 
HETATM    2  C   UNL     1      43.091 -16.864   4.439  1.00  0.00     0.008 A 
HETATM    3  C   UNL     1      42.366 -15.836   5.067  1.00  0.00     0.068 A 
HETATM    4  C   UNL     1      42.649 -15.528   6.392  1.00  0.00     0.032 A 
HETATM    5  C   UNL     1      43.628 -16.207   7.118  1.00  0.00     0.002 A 
HETATM    6  C   UNL     1      44.348 -17.227   6.511  1.00  0.00     0.001 A 
HETATM    7  C   UNL     1      44.081 -17.556   5.184  1.00  0.00     0.015 A 
HETATM    8  N   UNL     1      41.402 -15.135   4.447  1.00  0.00    -0.248 NA
HETATM    9  C   UNL     1      41.101 -15.389   3.150  1.00  0.00     0.068 A 
HETATM   10  C   UNL     1      41.752 -16.389   2.448  1.00  0.00     0.050 A 
ENDROOT
BRANCH   1  11
HETATM   11  C   UNL     1      43.423 -18.193   2.311  1.00  0.00     0.252 C 
HETATM   12  N   UNL     1      42.965 -19.473   2.539  1.00  0.00    -0.354 N 
HETATM   13  H   UNL     1      42.311 -19.648   3.291  1.00  0.00     0.162 HD
HETATM   14  O   UNL     1      44.323 -17.919   1.530  1.00  0.00    -0.268 OA
BRANCH  12  15
HETATM   15  C   UNL     1      43.525 -20.616   1.841  1.00  0.00     0.154 C 
BRANCH  15  16
HETATM   16  C   UNL     1      44.723 -21.266   2.551  1.00  0.00     0.132 C 
HETATM   17  C   UNL     1      44.704 -21.025   4.055  1.00  0.00     0.041 C 
BRANCH  16  18
HETATM   18  O   UNL     1      44.673 -22.676   2.323  1.00  0.00    -0.394 OA
HETATM   19  H   UNL     1      44.121 -22.820   1.535  1.00  0.00     0.210 HD
ENDBRANCH  16  18
ENDBRANCH  15  16
ENDBRANCH  12  15
ENDBRANCH   1  11
BRANCH   9  20
HETATM   20  C   UNL     1      40.036 -14.547   2.563  1.00  0.00    -0.007 A 
HETATM   21  C   UNL     1      39.957 -13.161   2.797  1.00  0.00     0.015 A 
HETATM   22  C   UNL     1      38.945 -12.380   2.223  1.00  0.00     0.024 A 
HETATM   23  C   UNL     1      37.988 -12.976   1.407  1.00  0.00     0.034 A 
HETATM   24 CL   UNL     1      36.747 -12.016   0.702  1.00  0.00    -0.084 Cl
HETATM   25  C   UNL     1      38.030 -14.343   1.166  1.00  0.00     0.024 A 
HETATM   26  C   UNL     1      39.044 -15.118   1.741  1.00  0.00     0.015 A 
ENDBRANCH   9  20
TORSDOF 5
ENDMDL
MODEL 8
REMARK VINA RESULT:      -7.7      4.392      6.797
REMARK  5 active torsions:
REMARK  status: ('A' for Active; 'I' for Inactive)
REMARK    1  A    between atoms: C_2  and  O_3 
REMARK    2  A    between atoms: C_2  and  C_4 
REMARK    3  A    between atoms: C_4  and  N_5 
REMARK       I    between atoms: N_5  and  C_6 
REMARK    4  A    between atoms: C_6  and  C_7 
REMARK    5  A    between atoms: C_15  and  C_16 
ROOT
HETATM    1  C   UNL     1      41.423 -15.435   1.775  1.00  0.00     0.046 A 
HETATM    2  C   UNL     1      40.926 -14.955   3.006  1.00  0.00     0.008 A 
HETATM    3  C   UNL     1      41.169 -15.769   4.126  1.00  0.00     0.068 A 
HETATM    4  C   UNL     1      40.718 -15.350   5.372  1.00  0.00     0.032 A 
HETATM    5  C   UNL     1      40.032 -14.147   5.546  1.00  0.00     0.002 A 
HETATM    6  C   UNL     1      39.789 -13.333   4.449  1.00  0.00     0.001 A 
HETATM    7  C   UNL     1      40.233 -13.730   3.189  1.00  0.00     0.015 A 
HETATM    8  N   UNL     1      41.828 -16.939   4.053  1.00  0.00    -0.248 NA
HETATM    9  C   UNL     1      42.273 -17.396   2.858  1.00  0.00     0.068 A 
HETATM   10  C   UNL     1      42.090 -16.662   1.699  1.00  0.00     0.050 A 
ENDROOT
BRANCH   1  11
HETATM   11  C   UNL     1      41.241 -14.678   0.511  1.00  0.00     0.252 C 
HETATM   12  N   UNL     1      40.296 -15.195  -0.348  1.00  0.00    -0.354 N 
HETATM   13  H   UNL     1      39.880 -16.097  -0.157  1.00  0.00     0.162 HD
HETATM   14  O   UNL     1      41.901 -13.675   0.278  1.00  0.00    -0.268 OA
BRANCH  12  15
HETATM   15  C   UNL     1      40.000 -14.562  -1.621  1.00  0.00     0.154 C 
BRANCH  15  16
HETATM   16  C   UNL     1      38.639 -13.848  -1.670  1.00  0.00     0.132 C 
HETATM   17  C   UNL     1      37.863 -14.169  -2.940  1.00  0.00     0.041 C 
BRANCH  16  18
HETATM   18  O   UNL     1      37.862 -14.279  -0.550  1.00  0.00    -0.394 OA
HETATM   19  H   UNL     1      37.564 -13.478  -0.084  1.00  0.00     0.210 HD
ENDBRANCH  16  18
ENDBRANCH  15  16
ENDBRANCH  12  15
ENDBRANCH   1  11
BRANCH   9  20
HETATM   20  C   UNL     1      42.969 -18.701   2.891  1.00  0.00    -0.007 A 
HETATM   21  C   UNL     1      42.871 -19.633   1.840  1.00  0.00     0.015 A 
HETATM   22  C   UNL     1      43.547 -20.860   1.887  1.00  0.00     0.024 A 
HETATM   23  C   UNL     1      44.330 -21.178   2.992  1.00  0.00     0.034 A 
HETATM   24 CL   UNL     1      45.160 -22.683   3.048  1.00  0.00    -0.084 Cl
HETATM   25  C   UNL     1      44.439 -20.285   4.051  1.00  0.00     0.024 A 
HETATM   26  C   UNL     1      43.763 -19.061   3.998  1.00  0.00     0.015 A 
ENDBRANCH   9  20
TORSDOF 5
ENDMDL
MODEL 9
REMARK VINA RESULT:      -7.6      4.658      7.567
REMARK  5 active torsions:
REMARK  status: ('A' for Active; 'I' for Inactive)
REMARK    1  A    between atoms: C_2  and  O_3 
REMARK    2  A    between atoms: C_2  and  C_4 
REMARK    3  A    between atoms: C_4  and  N_5 
REMARK       I    between atoms: N_5  and  C_6 
REMARK    4  A    between atoms: C_6  and  C_7 
REMARK    5  A    between atoms: C_15  and  C_16 
ROOT
HETATM    1  C   UNL     1      43.325 -17.455   4.216  1.00  0.00     0.046 A 
HETATM    2  C   UNL     1      43.565 -16.374   5.093  1.00  0.00     0.008 A 
HETATM    3  C   UNL     1      43.247 -15.098   4.597  1.00  0.00     0.068 A 
HETATM    4  C   UNL     1      43.447 -13.991   5.411  1.00  0.00     0.032 A 
HETATM    5  C   UNL     1      43.953 -14.106   6.707  1.00  0.00     0.002 A 
HETATM    6  C   UNL     1      44.268 -15.360   7.211  1.00  0.00     0.001 A 
HETATM    7  C   UNL     1      44.074 -16.486   6.413  1.00  0.00     0.015 A 
HETATM    8  N   UNL     1      42.748 -14.895   3.365  1.00  0.00    -0.248 NA
HETATM    9  C   UNL     1      42.550 -15.942   2.528  1.00  0.00     0.068 A 
HETATM   10  C   UNL     1      42.825 -17.238   2.929  1.00  0.00     0.050 A 
ENDROOT
BRANCH   1  11
HETATM   11  C   UNL     1      43.612 -18.857   4.609  1.00  0.00     0.252 C 
HETATM   12  N   UNL     1      44.541 -19.505   3.824  1.00  0.00    -0.354 N 
HETATM   13  H   UNL     1      44.875 -19.069   2.975  1.00  0.00     0.162 HD
HETATM   14  O   UNL     1      43.046 -19.372   5.563  1.00  0.00    -0.268 OA
BRANCH  12  15
HETATM   15  C   UNL     1      44.933 -20.878   4.087  1.00  0.00     0.154 C 
BRANCH  15  16
HETATM   16  C   UNL     1      44.172 -21.923   3.255  1.00  0.00     0.132 C 
HETATM   17  C   UNL     1      44.142 -21.572   1.773  1.00  0.00     0.041 C 
BRANCH  16  18
HETATM   18  O   UNL     1      44.828 -23.185   3.403  1.00  0.00    -0.394 OA
HETATM   19  H   UNL     1      45.391 -23.307   2.618  1.00  0.00     0.210 HD
ENDBRANCH  16  18
ENDBRANCH  15  16
ENDBRANCH  12  15
ENDBRANCH   1  11
BRANCH   9  20
HETATM   20  C   UNL     1      42.013 -15.602   1.193  1.00  0.00    -0.007 A 
HETATM   21  C   UNL     1      41.679 -16.586   0.242  1.00  0.00     0.015 A 
HETATM   22  C   UNL     1      41.163 -16.242  -1.014  1.00  0.00     0.024 A 
HETATM   23  C   UNL     1      40.977 -14.903  -1.345  1.00  0.00     0.034 A 
HETATM   24 CL   UNL     1      40.342 -14.483  -2.887  1.00  0.00    -0.084 Cl
HETATM   25  C   UNL     1      41.307 -13.907  -0.435  1.00  0.00     0.024 A 
HETATM   26  C   UNL     1      41.822 -14.256   0.820  1.00  0.00     0.015 A 
ENDBRANCH   9  20
TORSDOF 5
ENDMDL
MODEL 10
REMARK VINA RESULT:      -7.5      3.913      6.647
REMARK  5 active torsions:
REMARK  status: ('A' for Active; 'I' for Inactive)
REMARK    1  A    between atoms: C_2  and  O_3 
REMARK    2  A    between atoms: C_2  and  C_4 
REMARK    3  A    between atoms: C_4  and  N_5 
REMARK       I    between atoms: N_5  and  C_6 
REMARK    4  A    between atoms: C_6  and  C_7 
REMARK    5  A    between atoms: C_15  and  C_16 
ROOT
HETATM    1  C   UNL     1      42.204 -16.155   4.661  1.00  0.00     0.046 A 
HETATM    2  C   UNL     1      42.589 -17.260   3.870  1.00  0.00     0.008 A 
HETATM    3  C   UNL     1      41.970 -17.360   2.612  1.00  0.00     0.068 A 
HETATM    4  C   UNL     1      42.311 -18.417   1.778  1.00  0.00     0.032 A 
HETATM    5  C   UNL     1      43.250 -19.381   2.149  1.00  0.00     0.002 A 
HETATM    6  C   UNL     1      43.872 -19.291   3.385  1.00  0.00     0.001 A 
HETATM    7  C   UNL     1      43.548 -18.239   4.240  1.00  0.00     0.015 A 
HETATM    8  N   UNL     1      41.061 -16.474   2.171  1.00  0.00    -0.248 NA
HETATM    9  C   UNL     1      40.684 -15.435   2.955  1.00  0.00     0.068 A 
HETATM   10  C   UNL     1      41.244 -15.246   4.207  1.00  0.00     0.050 A 
ENDROOT
BRANCH   1  11
HETATM   11  C   UNL     1      42.779 -15.922   6.009  1.00  0.00     0.252 C 
HETATM   12  N   UNL     1      43.821 -15.021   6.052  1.00  0.00    -0.354 N 
HETATM   13  H   UNL     1      44.221 -14.672   5.191  1.00  0.00     0.162 HD
HETATM   14  O   UNL     1      42.341 -16.506   6.990  1.00  0.00    -0.268 OA
BRANCH  12  15
HETATM   15  C   UNL     1      44.482 -14.682   7.300  1.00  0.00     0.154 C 
BRANCH  15  16
HETATM   16  C   UNL     1      44.997 -13.236   7.370  1.00  0.00     0.132 C 
HETATM   17  C   UNL     1      45.141 -12.741   8.803  1.00  0.00     0.041 C 
BRANCH  16  18
HETATM   18  O   UNL     1      46.283 -13.182   6.746  1.00  0.00    -0.394 OA
HETATM   19  H   UNL     1      46.598 -14.099   6.663  1.00  0.00     0.210 HD
ENDBRANCH  16  18
ENDBRANCH  15  16
ENDBRANCH  12  15
ENDBRANCH   1  11
BRANCH   9  20
HETATM   20  C   UNL     1      39.666 -14.532   2.376  1.00  0.00    -0.007 A 
HETATM   21  C   UNL     1      39.654 -13.148   2.633  1.00  0.00     0.015 A 
HETATM   22  C   UNL     1      38.686 -12.308   2.067  1.00  0.00     0.024 A 
HETATM   23  C   UNL     1      37.707 -12.842   1.235  1.00  0.00     0.034 A 
HETATM   24 CL   UNL     1      36.519 -11.810   0.539  1.00  0.00    -0.084 Cl
HETATM   25  C   UNL     1      37.683 -14.205   0.970  1.00  0.00     0.024 A 
HETATM   26  C   UNL     1      38.653 -15.039   1.538  1.00  0.00     0.015 A 
ENDBRANCH   9  20
TORSDOF 5
ENDMDL
