MODEL 1
REMARK VINA RESULT:      -9.3      0.000      0.000
REMARK  2 active torsions:
REMARK  status: ('A' for Active; 'I' for Inactive)
REMARK    1  A    between atoms: C_4  and  C_5 
REMARK    2  A    between atoms: C_11  and  C_12 
ROOT
HETATM    1  C   UNL     1      43.159 -18.144   1.941  1.00  0.00     0.098 A 
HETATM    2  N   UNL     1      43.729 -17.764   0.779  1.00  0.00    -0.172 NA
HETATM    3  N   UNL     1      43.013 -16.706   0.371  1.00  0.00    -0.261 N 
HETATM    4  H   UNL     1      43.278 -16.249  -0.494  1.00  0.00     0.191 HD
HETATM    5  C   UNL     1      42.011 -16.388   1.227  1.00  0.00     0.133 A 
HETATM    6  C   UNL     1      42.053 -17.298   2.251  1.00  0.00     0.028 A 
HETATM    7  C   UNL     1      41.100 -17.209   3.391  1.00  0.00     0.067 C 
HETATM    8  C   UNL     1      39.912 -16.288   3.061  1.00  0.00     0.117 C 
HETATM    9  C   UNL     1      40.200 -15.137   2.100  1.00  0.00     0.224 C 
HETATM   10  O   UNL     1      39.522 -14.110   2.103  1.00  0.00    -0.273 OA
HETATM   11  N   UNL     1      41.158 -15.324   1.131  1.00  0.00    -0.312 N 
HETATM   12  H   UNL     1      41.263 -14.596   0.435  1.00  0.00     0.170 HD
ENDROOT
BRANCH   7  13
HETATM   13  C   UNL     1      41.870 -16.754   4.623  1.00  0.00    -0.046 A 
HETATM   14  C   UNL     1      42.696 -15.617   4.505  1.00  0.00     0.047 A 
HETATM   15  C   UNL     1      43.430 -15.215   5.601  1.00  0.00     0.105 A 
HETATM   16  C   UNL     1      43.376 -15.888   6.796  1.00  0.00     0.105 A 
HETATM   17  O   UNL     1      44.275 -14.151   5.641  1.00  0.00    -0.323 OA
HETATM   18  O   UNL     1      44.175 -15.330   7.743  1.00  0.00    -0.323 OA
HETATM   19  C   UNL     1      42.590 -17.006   6.958  1.00  0.00     0.040 A 
HETATM   20  C   UNL     1      44.750 -14.234   7.000  1.00  0.00     0.352 A 
HETATM   21  C   UNL     1      41.843 -17.448   5.858  1.00  0.00     0.011 A 
ENDBRANCH   7  13
BRANCH   1  22
HETATM   22  C   UNL     1      43.729 -19.246   2.718  1.00  0.00    -0.005 A 
HETATM   23  C   UNL     1      43.736 -20.542   2.179  1.00  0.00     0.014 A 
HETATM   24  C   UNL     1      44.293 -21.608   2.888  1.00  0.00     0.001 A 
HETATM   25  C   UNL     1      44.848 -21.390   4.147  1.00  0.00     0.000 A 
HETATM   26  C   UNL     1      44.835 -20.110   4.700  1.00  0.00     0.001 A 
HETATM   27  C   UNL     1      44.273 -19.044   3.992  1.00  0.00     0.014 A 
ENDBRANCH   1  22
TORSDOF 2
ENDMDL
MODEL 2
REMARK VINA RESULT:      -9.1      3.082      5.135
REMARK  2 active torsions:
REMARK  status: ('A' for Active; 'I' for Inactive)
REMARK    1  A    between atoms: C_4  and  C_5 
REMARK    2  A    between atoms: C_11  and  C_12 
ROOT
HETATM    1  C   UNL     1      44.089 -20.417   5.868  1.00  0.00     0.098 A 
HETATM    2  N   UNL     1      43.768 -21.232   6.895  1.00  0.00    -0.172 NA
HETATM    3  N   UNL     1      43.611 -20.417   7.949  1.00  0.00    -0.261 N 
HETATM    4  H   UNL     1      43.355 -20.826   8.840  1.00  0.00     0.191 HD
HETATM    5  C   UNL     1      43.811 -19.112   7.638  1.00  0.00     0.133 A 
HETATM    6  C   UNL     1      44.138 -19.060   6.308  1.00  0.00     0.028 A 
HETATM    7  C   UNL     1      44.387 -17.758   5.634  1.00  0.00     0.067 C 
HETATM    8  C   UNL     1      44.614 -16.629   6.655  1.00  0.00     0.117 C 
HETATM    9  C   UNL     1      43.884 -16.772   7.988  1.00  0.00     0.224 C 
HETATM   10  O   UNL     1      43.609 -15.793   8.682  1.00  0.00    -0.273 OA
HETATM   11  N   UNL     1      43.653 -18.039   8.470  1.00  0.00    -0.312 N 
HETATM   12  H   UNL     1      43.266 -18.118   9.402  1.00  0.00     0.170 HD
ENDROOT
BRANCH   7  13
HETATM   13  C   UNL     1      43.221 -17.474   4.697  1.00  0.00    -0.046 A 
HETATM   14  C   UNL     1      43.508 -16.914   3.435  1.00  0.00     0.047 A 
HETATM   15  C   UNL     1      42.460 -16.614   2.589  1.00  0.00     0.105 A 
HETATM   16  C   UNL     1      41.155 -16.849   2.943  1.00  0.00     0.105 A 
HETATM   17  O   UNL     1      42.574 -16.063   1.352  1.00  0.00    -0.323 OA
HETATM   18  O   UNL     1      40.279 -16.481   1.969  1.00  0.00    -0.323 OA
HETATM   19  C   UNL     1      40.824 -17.388   4.165  1.00  0.00     0.040 A 
HETATM   20  C   UNL     1      41.187 -15.975   0.968  1.00  0.00     0.352 A 
HETATM   21  C   UNL     1      41.866 -17.690   5.052  1.00  0.00     0.011 A 
ENDBRANCH   7  13
BRANCH   1  22
HETATM   22  C   UNL     1      44.271 -20.961   4.522  1.00  0.00    -0.005 A 
HETATM   23  C   UNL     1      44.662 -22.300   4.363  1.00  0.00     0.014 A 
HETATM   24  C   UNL     1      44.821 -22.852   3.091  1.00  0.00     0.001 A 
HETATM   25  C   UNL     1      44.594 -22.070   1.961  1.00  0.00     0.000 A 
HETATM   26  C   UNL     1      44.219 -20.734   2.104  1.00  0.00     0.001 A 
HETATM   27  C   UNL     1      44.064 -20.181   3.378  1.00  0.00     0.014 A 
ENDBRANCH   1  22
TORSDOF 2
ENDMDL
MODEL 3
REMARK VINA RESULT:      -9.0      0.776      1.533
REMARK  2 active torsions:
REMARK  status: ('A' for Active; 'I' for Inactive)
REMARK    1  A    between atoms: C_4  and  C_5 
REMARK    2  A    between atoms: C_11  and  C_12 
ROOT
HETATM    1  C   UNL     1      43.049 -18.174   1.680  1.00  0.00     0.098 A 
HETATM    2  N   UNL     1      43.590 -17.795   0.503  1.00  0.00    -0.172 NA
HETATM    3  N   UNL     1      42.886 -16.715   0.130  1.00  0.00    -0.261 N 
HETATM    4  H   UNL     1      43.134 -16.256  -0.739  1.00  0.00     0.191 HD
HETATM    5  C   UNL     1      41.921 -16.382   1.022  1.00  0.00     0.133 A 
HETATM    6  C   UNL     1      41.975 -17.304   2.035  1.00  0.00     0.028 A 
HETATM    7  C   UNL     1      41.063 -17.204   3.206  1.00  0.00     0.067 C 
HETATM    8  C   UNL     1      39.887 -16.251   2.926  1.00  0.00     0.117 C 
HETATM    9  C   UNL     1      40.171 -15.097   1.967  1.00  0.00     0.224 C 
HETATM   10  O   UNL     1      39.520 -14.054   2.001  1.00  0.00    -0.273 OA
HETATM   11  N   UNL     1      41.092 -15.297   0.965  1.00  0.00    -0.312 N 
HETATM   12  H   UNL     1      41.192 -14.565   0.273  1.00  0.00     0.170 HD
ENDROOT
BRANCH   7  13
HETATM   13  C   UNL     1      41.884 -16.781   4.417  1.00  0.00    -0.046 A 
HETATM   14  C   UNL     1      41.891 -17.631   5.540  1.00  0.00     0.047 A 
HETATM   15  C   UNL     1      42.598 -17.244   6.660  1.00  0.00     0.105 A 
HETATM   16  C   UNL     1      43.292 -16.060   6.704  1.00  0.00     0.105 A 
HETATM   17  O   UNL     1      42.693 -17.947   7.820  1.00  0.00    -0.323 OA
HETATM   18  O   UNL     1      43.916 -15.869   7.897  1.00  0.00    -0.323 OA
HETATM   19  C   UNL     1      43.309 -15.194   5.636  1.00  0.00     0.040 A 
HETATM   20  C   UNL     1      43.524 -17.066   8.602  1.00  0.00     0.352 A 
HETATM   21  C   UNL     1      42.588 -15.553   4.489  1.00  0.00     0.011 A 
ENDBRANCH   7  13
BRANCH   1  22
HETATM   22  C   UNL     1      43.617 -19.296   2.427  1.00  0.00    -0.005 A 
HETATM   23  C   UNL     1      43.539 -20.593   1.894  1.00  0.00     0.014 A 
HETATM   24  C   UNL     1      44.092 -21.680   2.573  1.00  0.00     0.001 A 
HETATM   25  C   UNL     1      44.727 -21.484   3.797  1.00  0.00     0.000 A 
HETATM   26  C   UNL     1      44.798 -20.204   4.346  1.00  0.00     0.001 A 
HETATM   27  C   UNL     1      44.241 -19.116   3.667  1.00  0.00     0.014 A 
ENDBRANCH   1  22
TORSDOF 2
ENDMDL
MODEL 4
REMARK VINA RESULT:      -8.9      2.379      4.790
REMARK  2 active torsions:
REMARK  status: ('A' for Active; 'I' for Inactive)
REMARK    1  A    between atoms: C_4  and  C_5 
REMARK    2  A    between atoms: C_11  and  C_12 
ROOT
HETATM    1  C   UNL     1      41.372 -15.732   4.479  1.00  0.00     0.098 A 
HETATM    2  N   UNL     1      40.066 -15.420   4.620  1.00  0.00    -0.172 NA
HETATM    3  N   UNL     1      39.592 -15.339   3.368  1.00  0.00    -0.261 N 
HETATM    4  H   UNL     1      38.611 -15.119   3.238  1.00  0.00     0.191 HD
HETATM    5  C   UNL     1      40.538 -15.592   2.430  1.00  0.00     0.133 A 
HETATM    6  C   UNL     1      41.710 -15.836   3.097  1.00  0.00     0.028 A 
HETATM    7  C   UNL     1      42.951 -16.187   2.354  1.00  0.00     0.067 C 
HETATM    8  C   UNL     1      42.827 -15.851   0.857  1.00  0.00     0.117 C 
HETATM    9  C   UNL     1      41.424 -15.942   0.262  1.00  0.00     0.224 C 
HETATM   10  O   UNL     1      41.244 -16.145  -0.938  1.00  0.00    -0.273 OA
HETATM   11  N   UNL     1      40.353 -15.659   1.078  1.00  0.00    -0.312 N 
HETATM   12  H   UNL     1      39.438 -15.618   0.645  1.00  0.00     0.170 HD
ENDROOT
BRANCH   7  13
HETATM   13  C   UNL     1      43.255 -17.658   2.601  1.00  0.00    -0.046 A 
HETATM   14  C   UNL     1      44.005 -17.996   3.745  1.00  0.00     0.047 A 
HETATM   15  C   UNL     1      44.323 -19.320   3.963  1.00  0.00     0.105 A 
HETATM   16  C   UNL     1      43.927 -20.311   3.099  1.00  0.00     0.105 A 
HETATM   17  O   UNL     1      45.046 -19.800   5.010  1.00  0.00    -0.323 OA
HETATM   18  O   UNL     1      44.345 -21.543   3.496  1.00  0.00    -0.323 OA
HETATM   19  C   UNL     1      43.198 -20.031   1.966  1.00  0.00     0.040 A 
HETATM   20  C   UNL     1      45.062 -21.209   4.703  1.00  0.00     0.352 A 
HETATM   21  C   UNL     1      42.872 -18.693   1.710  1.00  0.00     0.011 A 
ENDBRANCH   7  13
BRANCH   1  22
HETATM   22  C   UNL     1      42.206 -15.970   5.657  1.00  0.00    -0.005 A 
HETATM   23  C   UNL     1      41.931 -17.066   6.490  1.00  0.00     0.014 A 
HETATM   24  C   UNL     1      42.724 -17.331   7.608  1.00  0.00     0.001 A 
HETATM   25  C   UNL     1      43.801 -16.500   7.908  1.00  0.00     0.000 A 
HETATM   26  C   UNL     1      44.077 -15.399   7.098  1.00  0.00     0.001 A 
HETATM   27  C   UNL     1      43.279 -15.132   5.981  1.00  0.00     0.014 A 
ENDBRANCH   1  22
TORSDOF 2
ENDMDL
MODEL 5
REMARK VINA RESULT:      -8.9      3.050      5.315
REMARK  2 active torsions:
REMARK  status: ('A' for Active; 'I' for Inactive)
REMARK    1  A    between atoms: C_4  and  C_5 
REMARK    2  A    between atoms: C_11  and  C_12 
ROOT
HETATM    1  C   UNL     1      41.492 -16.900   4.794  1.00  0.00     0.098 A 
HETATM    2  N   UNL     1      40.789 -17.540   5.752  1.00  0.00    -0.172 NA
HETATM    3  N   UNL     1      40.176 -16.567   6.442  1.00  0.00    -0.261 N 
HETATM    4  H   UNL     1      39.578 -16.829   7.217  1.00  0.00     0.191 HD
HETATM    5  C   UNL     1      40.450 -15.329   5.961  1.00  0.00     0.133 A 
HETATM    6  C   UNL     1      41.310 -15.489   4.905  1.00  0.00     0.028 A 
HETATM    7  C   UNL     1      41.783 -14.315   4.123  1.00  0.00     0.067 C 
HETATM    8  C   UNL     1      41.523 -12.996   4.872  1.00  0.00     0.117 C 
HETATM    9  C   UNL     1      40.300 -12.973   5.786  1.00  0.00     0.224 C 
HETATM   10  O   UNL     1      39.728 -11.921   6.072  1.00  0.00    -0.273 OA
HETATM   11  N   UNL     1      39.923 -14.146   6.397  1.00  0.00    -0.312 N 
HETATM   12  H   UNL     1      39.179 -14.094   7.083  1.00  0.00     0.170 HD
ENDROOT
BRANCH   7  13
HETATM   13  C   UNL     1      41.118 -14.353   2.754  1.00  0.00    -0.046 A 
HETATM   14  C   UNL     1      41.917 -14.092   1.623  1.00  0.00     0.047 A 
HETATM   15  C   UNL     1      41.323 -14.084   0.378  1.00  0.00     0.105 A 
HETATM   16  C   UNL     1      39.981 -14.325   0.216  1.00  0.00     0.105 A 
HETATM   17  O   UNL     1      41.954 -13.839  -0.800  1.00  0.00    -0.323 OA
HETATM   18  O   UNL     1      39.598 -14.268  -1.088  1.00  0.00    -0.323 OA
HETATM   19  C   UNL     1      39.158 -14.578   1.289  1.00  0.00     0.040 A 
HETATM   20  C   UNL     1      40.853 -13.951  -1.724  1.00  0.00     0.352 A 
HETATM   21  C   UNL     1      39.731 -14.579   2.568  1.00  0.00     0.011 A 
ENDBRANCH   7  13
BRANCH   1  22
HETATM   22  C   UNL     1      42.244 -17.660   3.796  1.00  0.00    -0.005 A 
HETATM   23  C   UNL     1      43.371 -18.397   4.192  1.00  0.00     0.014 A 
HETATM   24  C   UNL     1      44.095 -19.151   3.266  1.00  0.00     0.001 A 
HETATM   25  C   UNL     1      43.701 -19.173   1.930  1.00  0.00     0.000 A 
HETATM   26  C   UNL     1      42.591 -18.435   1.520  1.00  0.00     0.001 A 
HETATM   27  C   UNL     1      41.870 -17.677   2.447  1.00  0.00     0.014 A 
ENDBRANCH   1  22
TORSDOF 2
ENDMDL
MODEL 6
REMARK VINA RESULT:      -8.6      2.936      5.980
REMARK  2 active torsions:
REMARK  status: ('A' for Active; 'I' for Inactive)
REMARK    1  A    between atoms: C_4  and  C_5 
REMARK    2  A    between atoms: C_11  and  C_12 
ROOT
HETATM    1  C   UNL     1      42.190 -14.394   4.311  1.00  0.00     0.098 A 
HETATM    2  N   UNL     1      42.997 -13.345   4.573  1.00  0.00    -0.172 NA
HETATM    3  N   UNL     1      43.600 -13.650   5.731  1.00  0.00    -0.261 N 
HETATM    4  H   UNL     1      44.268 -12.991   6.115  1.00  0.00     0.191 HD
HETATM    5  C   UNL     1      43.218 -14.856   6.221  1.00  0.00     0.133 A 
HETATM    6  C   UNL     1      42.295 -15.370   5.347  1.00  0.00     0.028 A 
HETATM    7  C   UNL     1      41.696 -16.712   5.574  1.00  0.00     0.067 C 
HETATM    8  C   UNL     1      41.931 -17.199   7.016  1.00  0.00     0.117 C 
HETATM    9  C   UNL     1      43.214 -16.714   7.687  1.00  0.00     0.224 C 
HETATM   10  O   UNL     1      43.741 -17.345   8.603  1.00  0.00    -0.273 OA
HETATM   11  N   UNL     1      43.703 -15.478   7.336  1.00  0.00    -0.312 N 
HETATM   12  H   UNL     1      44.491 -15.123   7.865  1.00  0.00     0.170 HD
ENDROOT
BRANCH   7  13
HETATM   13  C   UNL     1      42.260 -17.670   4.533  1.00  0.00    -0.046 A 
HETATM   14  C   UNL     1      43.321 -18.514   4.918  1.00  0.00     0.047 A 
HETATM   15  C   UNL     1      43.870 -19.360   3.977  1.00  0.00     0.105 A 
HETATM   16  C   UNL     1      43.410 -19.400   2.684  1.00  0.00     0.105 A 
HETATM   17  O   UNL     1      44.900 -20.222   4.190  1.00  0.00    -0.323 OA
HETATM   18  O   UNL     1      44.088 -20.298   1.920  1.00  0.00    -0.323 OA
HETATM   19  C   UNL     1      42.382 -18.591   2.259  1.00  0.00     0.040 A 
HETATM   20  C   UNL     1      45.037 -20.807   2.880  1.00  0.00     0.352 A 
HETATM   21  C   UNL     1      41.813 -17.711   3.189  1.00  0.00     0.011 A 
ENDBRANCH   7  13
BRANCH   1  22
HETATM   22  C   UNL     1      41.414 -14.439   3.072  1.00  0.00    -0.005 A 
HETATM   23  C   UNL     1      42.075 -14.351   1.837  1.00  0.00     0.014 A 
HETATM   24  C   UNL     1      41.363 -14.415   0.638  1.00  0.00     0.001 A 
HETATM   25  C   UNL     1      39.978 -14.563   0.660  1.00  0.00     0.000 A 
HETATM   26  C   UNL     1      39.307 -14.637   1.880  1.00  0.00     0.001 A 
HETATM   27  C   UNL     1      40.020 -14.569   3.080  1.00  0.00     0.014 A 
ENDBRANCH   1  22
TORSDOF 2
ENDMDL
MODEL 7
REMARK VINA RESULT:      -8.1      2.268      3.154
REMARK  2 active torsions:
REMARK  status: ('A' for Active; 'I' for Inactive)
REMARK    1  A    between atoms: C_4  and  C_5 
REMARK    2  A    between atoms: C_11  and  C_12 
ROOT
HETATM    1  C   UNL     1      43.342 -17.449   3.017  1.00  0.00     0.098 A 
HETATM    2  N   UNL     1      44.347 -17.760   2.172  1.00  0.00    -0.172 NA
HETATM    3  N   UNL     1      43.949 -17.301   0.976  1.00  0.00    -0.261 N 
HETATM    4  H   UNL     1      44.568 -17.424   0.183  1.00  0.00     0.191 HD
HETATM    5  C   UNL     1      42.733 -16.703   1.021  1.00  0.00     0.133 A 
HETATM    6  C   UNL     1      42.291 -16.786   2.316  1.00  0.00     0.028 A 
HETATM    7  C   UNL     1      40.990 -16.187   2.717  1.00  0.00     0.067 C 
HETATM    8  C   UNL     1      40.114 -15.866   1.493  1.00  0.00     0.117 C 
HETATM    9  C   UNL     1      40.860 -15.502   0.211  1.00  0.00     0.224 C 
HETATM   10  O   UNL     1      40.338 -14.813  -0.665  1.00  0.00    -0.273 OA
HETATM   11  N   UNL     1      42.091 -16.074  -0.009  1.00  0.00    -0.312 N 
HETATM   12  H   UNL     1      42.525 -15.909  -0.909  1.00  0.00     0.170 HD
ENDROOT
BRANCH   7  13
HETATM   13  C   UNL     1      41.273 -14.960   3.573  1.00  0.00    -0.046 A 
HETATM   14  C   UNL     1      40.362 -14.648   4.603  1.00  0.00     0.047 A 
HETATM   15  C   UNL     1      40.583 -13.517   5.362  1.00  0.00     0.105 A 
HETATM   16  C   UNL     1      41.661 -12.697   5.143  1.00  0.00     0.105 A 
HETATM   17  O   UNL     1      39.793 -13.079   6.379  1.00  0.00    -0.323 OA
HETATM   18  O   UNL     1      41.691 -11.640   5.997  1.00  0.00    -0.323 OA
HETATM   19  C   UNL     1      42.574 -12.956   4.146  1.00  0.00     0.040 A 
HETATM   20  C   UNL     1      40.499 -11.884   6.771  1.00  0.00     0.352 A 
HETATM   21  C   UNL     1      42.369 -14.089   3.348  1.00  0.00     0.011 A 
ENDBRANCH   7  13
BRANCH   1  22
HETATM   22  C   UNL     1      43.460 -17.743   4.445  1.00  0.00    -0.005 A 
HETATM   23  C   UNL     1      43.457 -19.078   4.880  1.00  0.00     0.014 A 
HETATM   24  C   UNL     1      43.591 -19.389   6.235  1.00  0.00     0.001 A 
HETATM   25  C   UNL     1      43.726 -18.368   7.172  1.00  0.00     0.000 A 
HETATM   26  C   UNL     1      43.716 -17.037   6.755  1.00  0.00     0.001 A 
HETATM   27  C   UNL     1      43.577 -16.726   5.400  1.00  0.00     0.014 A 
ENDBRANCH   1  22
TORSDOF 2
ENDMDL
MODEL 8
REMARK VINA RESULT:      -8.0      3.024      5.510
REMARK  2 active torsions:
REMARK  status: ('A' for Active; 'I' for Inactive)
REMARK    1  A    between atoms: C_4  and  C_5 
REMARK    2  A    between atoms: C_11  and  C_12 
ROOT
HETATM    1  C   UNL     1      42.654 -16.827   4.828  1.00  0.00     0.098 A 
HETATM    2  N   UNL     1      42.217 -17.747   5.713  1.00  0.00    -0.172 NA
HETATM    3  N   UNL     1      42.623 -17.299   6.910  1.00  0.00    -0.261 N 
HETATM    4  H   UNL     1      42.391 -17.843   7.732  1.00  0.00     0.191 HD
HETATM    5  C   UNL     1      43.297 -16.124   6.830  1.00  0.00     0.133 A 
HETATM    6  C   UNL     1      43.358 -15.785   5.503  1.00  0.00     0.028 A 
HETATM    7  C   UNL     1      44.006 -14.518   5.069  1.00  0.00     0.067 C 
HETATM    8  C   UNL     1      44.880 -13.920   6.186  1.00  0.00     0.117 C 
HETATM    9  C   UNL     1      44.424 -14.197   7.617  1.00  0.00     0.224 C 
HETATM   10  O   UNL     1      44.728 -13.450   8.546  1.00  0.00    -0.273 OA
HETATM   11  N   UNL     1      43.771 -15.380   7.873  1.00  0.00    -0.312 N 
HETATM   12  H   UNL     1      43.570 -15.599   8.841  1.00  0.00     0.170 HD
ENDROOT
BRANCH   7  13
HETATM   13  C   UNL     1      42.919 -13.561   4.601  1.00  0.00    -0.046 A 
HETATM   14  C   UNL     1      42.778 -13.348   3.214  1.00  0.00     0.047 A 
HETATM   15  C   UNL     1      41.823 -12.455   2.775  1.00  0.00     0.105 A 
HETATM   16  C   UNL     1      41.012 -11.774   3.648  1.00  0.00     0.105 A 
HETATM   17  O   UNL     1      41.575 -12.135   1.477  1.00  0.00    -0.323 OA
HETATM   18  O   UNL     1      40.144 -10.944   3.011  1.00  0.00    -0.323 OA
HETATM   19  C   UNL     1      41.116 -11.944   5.010  1.00  0.00     0.040 A 
HETATM   20  C   UNL     1      40.514 -11.171   1.635  1.00  0.00     0.352 A 
HETATM   21  C   UNL     1      42.086 -12.834   5.488  1.00  0.00     0.011 A 
ENDBRANCH   7  13
BRANCH   1  22
HETATM   22  C   UNL     1      42.331 -16.955   3.407  1.00  0.00    -0.005 A 
HETATM   23  C   UNL     1      40.998 -16.824   2.985  1.00  0.00     0.014 A 
HETATM   24  C   UNL     1      40.663 -16.919   1.633  1.00  0.00     0.001 A 
HETATM   25  C   UNL     1      41.657 -17.150   0.686  1.00  0.00     0.000 A 
HETATM   26  C   UNL     1      42.983 -17.297   1.092  1.00  0.00     0.001 A 
HETATM   27  C   UNL     1      43.318 -17.206   2.447  1.00  0.00     0.014 A 
ENDBRANCH   1  22
TORSDOF 2
ENDMDL
MODEL 9
REMARK VINA RESULT:      -8.0      2.696      5.255
REMARK  2 active torsions:
REMARK  status: ('A' for Active; 'I' for Inactive)
REMARK    1  A    between atoms: C_4  and  C_5 
REMARK    2  A    between atoms: C_11  and  C_12 
ROOT
HETATM    1  C   UNL     1      40.676 -15.162   3.112  1.00  0.00     0.098 A 
HETATM    2  N   UNL     1      39.512 -15.646   2.629  1.00  0.00    -0.172 NA
HETATM    3  N   UNL     1      39.846 -16.770   1.978  1.00  0.00    -0.261 N 
HETATM    4  H   UNL     1      39.109 -17.308   1.537  1.00  0.00     0.191 HD
HETATM    5  C   UNL     1      41.176 -17.031   2.029  1.00  0.00     0.133 A 
HETATM    6  C   UNL     1      41.759 -16.013   2.737  1.00  0.00     0.028 A 
HETATM    7  C   UNL     1      43.221 -16.014   3.010  1.00  0.00     0.067 C 
HETATM    8  C   UNL     1      43.964 -17.012   2.104  1.00  0.00     0.117 C 
HETATM    9  C   UNL     1      43.175 -18.249   1.680  1.00  0.00     0.224 C 
HETATM   10  O   UNL     1      43.739 -19.296   1.364  1.00  0.00    -0.273 OA
HETATM   11  N   UNL     1      41.813 -18.132   1.530  1.00  0.00    -0.312 N 
HETATM   12  H   UNL     1      41.318 -18.928   1.146  1.00  0.00     0.170 HD
ENDROOT
BRANCH   7  13
HETATM   13  C   UNL     1      43.431 -16.300   4.491  1.00  0.00    -0.046 A 
HETATM   14  C   UNL     1      43.578 -17.643   4.891  1.00  0.00     0.047 A 
HETATM   15  C   UNL     1      43.729 -17.922   6.234  1.00  0.00     0.105 A 
HETATM   16  C   UNL     1      43.742 -16.930   7.182  1.00  0.00     0.105 A 
HETATM   17  O   UNL     1      43.870 -19.162   6.774  1.00  0.00    -0.323 OA
HETATM   18  O   UNL     1      43.900 -17.418   8.442  1.00  0.00    -0.323 OA
HETATM   19  C   UNL     1      43.596 -15.605   6.842  1.00  0.00     0.040 A 
HETATM   20  C   UNL     1      43.971 -18.834   8.175  1.00  0.00     0.352 A 
HETATM   21  C   UNL     1      43.426 -15.291   5.487  1.00  0.00     0.011 A 
ENDBRANCH   7  13
BRANCH   1  22
HETATM   22  C   UNL     1      40.688 -13.961   3.946  1.00  0.00    -0.005 A 
HETATM   23  C   UNL     1      39.986 -13.954   5.162  1.00  0.00     0.014 A 
HETATM   24  C   UNL     1      39.999 -12.830   5.989  1.00  0.00     0.001 A 
HETATM   25  C   UNL     1      40.711 -11.695   5.608  1.00  0.00     0.000 A 
HETATM   26  C   UNL     1      41.401 -11.683   4.396  1.00  0.00     0.001 A 
HETATM   27  C   UNL     1      41.385 -12.807   3.566  1.00  0.00     0.014 A 
ENDBRANCH   1  22
TORSDOF 2
ENDMDL
MODEL 10
REMARK VINA RESULT:      -7.9      1.326      2.023
REMARK  2 active torsions:
REMARK  status: ('A' for Active; 'I' for Inactive)
REMARK    1  A    between atoms: C_4  and  C_5 
REMARK    2  A    between atoms: C_11  and  C_12 
ROOT
HETATM    1  C   UNL     1      41.889 -17.454   2.190  1.00  0.00     0.098 A 
HETATM    2  N   UNL     1      41.775 -17.547   0.848  1.00  0.00    -0.172 NA
HETATM    3  N   UNL     1      40.970 -16.533   0.498  1.00  0.00    -0.261 N 
HETATM    4  H   UNL     1      40.753 -16.408  -0.485  1.00  0.00     0.191 HD
HETATM    5  C   UNL     1      40.568 -15.789   1.558  1.00  0.00     0.133 A 
HETATM    6  C   UNL     1      41.123 -16.354   2.678  1.00  0.00     0.028 A 
HETATM    7  C   UNL     1      40.907 -15.752   4.021  1.00  0.00     0.067 C 
HETATM    8  C   UNL     1      39.738 -14.751   4.010  1.00  0.00     0.117 C 
HETATM    9  C   UNL     1      39.503 -14.008   2.697  1.00  0.00     0.224 C 
HETATM   10  O   UNL     1      38.945 -12.912   2.667  1.00  0.00    -0.273 OA
HETATM   11  N   UNL     1      39.811 -14.653   1.522  1.00  0.00    -0.312 N 
HETATM   12  H   UNL     1      39.549 -14.193   0.658  1.00  0.00     0.170 HD
ENDROOT
BRANCH   7  13
HETATM   13  C   UNL     1      42.215 -15.121   4.478  1.00  0.00    -0.046 A 
HETATM   14  C   UNL     1      42.479 -15.074   5.862  1.00  0.00     0.047 A 
HETATM   15  C   UNL     1      43.641 -14.470   6.295  1.00  0.00     0.105 A 
HETATM   16  C   UNL     1      44.542 -13.921   5.417  1.00  0.00     0.105 A 
HETATM   17  O   UNL     1      44.030 -14.336   7.591  1.00  0.00    -0.323 OA
HETATM   18  O   UNL     1      45.616 -13.376   6.048  1.00  0.00    -0.323 OA
HETATM   19  C   UNL     1      44.326 -13.937   4.058  1.00  0.00     0.040 A 
HETATM   20  C   UNL     1      45.279 -13.636   7.427  1.00  0.00     0.352 A 
HETATM   21  C   UNL     1      43.147 -14.530   3.588  1.00  0.00     0.011 A 
ENDBRANCH   7  13
BRANCH   1  22
HETATM   22  C   UNL     1      42.761 -18.373   2.923  1.00  0.00    -0.005 A 
HETATM   23  C   UNL     1      43.586 -19.259   2.213  1.00  0.00     0.014 A 
HETATM   24  C   UNL     1      44.445 -20.131   2.885  1.00  0.00     0.001 A 
HETATM   25  C   UNL     1      44.485 -20.129   4.277  1.00  0.00     0.000 A 
HETATM   26  C   UNL     1      43.660 -19.264   4.995  1.00  0.00     0.001 A 
HETATM   27  C   UNL     1      42.798 -18.395   4.322  1.00  0.00     0.014 A 
ENDBRANCH   1  22
TORSDOF 2
ENDMDL
