MODEL 1
REMARK VINA RESULT:      -8.3      0.000      0.000
REMARK  3 active torsions:
REMARK  status: ('A' for Active; 'I' for Inactive)
REMARK    1  A    between atoms: C_10  and  C_11 
REMARK       I    between atoms: C_11  and  N_12 
REMARK    2  A    between atoms: C_14  and  O_15 
REMARK    3  A    between atoms: O_15  and  C_16 
ROOT
HETATM    1  C   UNL     1      43.783 -15.317   6.419  1.00  0.00     0.255 C 
HETATM    2  N   UNL     1      42.591 -14.705   6.078  1.00  0.00    -0.345 N 
HETATM    3  C   UNL     1      41.406 -15.330   5.493  1.00  0.00     0.158 C 
HETATM    4  C   UNL     1      40.633 -14.186   4.820  1.00  0.00     0.148 C 
HETATM    5  C   UNL     1      41.066 -12.967   5.636  1.00  0.00     0.054 C 
HETATM    6  C   UNL     1      42.528 -13.261   5.942  1.00  0.00     0.129 C 
HETATM    7  O   UNL     1      44.810 -14.691   6.669  1.00  0.00    -0.267 OA
ENDROOT
BRANCH   1   8
HETATM    8  C   UNL     1      43.842 -16.791   6.459  1.00  0.00     0.050 A 
HETATM    9  C   UNL     1      43.568 -17.430   7.667  1.00  0.00     0.136 A 
HETATM   10  N   UNL     1      43.596 -18.772   7.875  1.00  0.00    -0.240 NA
HETATM   11  C   UNL     1      43.905 -19.459   6.758  1.00  0.00     0.155 A 
HETATM   12  N   UNL     1      44.013 -20.813   6.645  1.00  0.00    -0.260 N 
HETATM   13  C   UNL     1      44.169 -18.951   5.495  1.00  0.00     0.038 A 
HETATM   14  N   UNL     1      44.340 -21.233   5.405  1.00  0.00    -0.177 NA
HETATM   15  H   UNL     1      43.877 -21.495   7.380  1.00  0.00     0.191 HD
HETATM   16  C   UNL     1      44.429 -20.097   4.697  1.00  0.00     0.065 A 
HETATM   17  C   UNL     1      44.780 -20.136   3.257  1.00  0.00     0.073 C 
HETATM   18  C   UNL     1      44.121 -17.558   5.323  1.00  0.00     0.036 A 
ENDBRANCH   1   8
BRANCH   4  19
HETATM   19  O   UNL     1      41.089 -14.076   3.467  1.00  0.00    -0.344 OA
BRANCH  19  20
HETATM   20  C   UNL     1      41.400 -15.221   2.790  1.00  0.00     0.070 A 
HETATM   21  C   UNL     1      42.678 -15.652   2.439  1.00  0.00     0.060 A 
HETATM   22  C   UNL     1      42.837 -16.848   1.736  1.00  0.00     0.036 A 
HETATM   23 CL   UNL     1      44.418 -17.370   1.292  1.00  0.00    -0.084 Cl
HETATM   24  C   UNL     1      41.734 -17.625   1.388  1.00  0.00     0.024 A 
HETATM   25  C   UNL     1      40.457 -17.206   1.750  1.00  0.00     0.004 A 
HETATM   26  C   UNL     1      40.295 -16.009   2.450  1.00  0.00     0.037 A 
ENDBRANCH  19  20
ENDBRANCH   4  19
TORSDOF 3
ENDMDL
MODEL 2
REMARK VINA RESULT:      -8.3      4.164      7.125
REMARK  3 active torsions:
REMARK  status: ('A' for Active; 'I' for Inactive)
REMARK    1  A    between atoms: C_10  and  C_11 
REMARK       I    between atoms: C_11  and  N_12 
REMARK    2  A    between atoms: C_14  and  O_15 
REMARK    3  A    between atoms: O_15  and  C_16 
ROOT
HETATM    1  C   UNL     1      40.740 -14.066   2.102  1.00  0.00     0.255 C 
HETATM    2  N   UNL     1      41.665 -14.663   2.940  1.00  0.00    -0.345 N 
HETATM    3  C   UNL     1      42.861 -15.411   2.555  1.00  0.00     0.158 C 
HETATM    4  C   UNL     1      43.195 -16.295   3.766  1.00  0.00     0.148 C 
HETATM    5  C   UNL     1      42.601 -15.502   4.930  1.00  0.00     0.054 C 
HETATM    6  C   UNL     1      41.332 -14.911   4.331  1.00  0.00     0.129 C 
HETATM    7  O   UNL     1      39.641 -13.676   2.487  1.00  0.00    -0.267 OA
ENDROOT
BRANCH   1   8
HETATM    8  C   UNL     1      41.068 -13.911   0.672  1.00  0.00     0.050 A 
HETATM    9  C   UNL     1      41.911 -12.866   0.298  1.00  0.00     0.136 A 
HETATM   10  N   UNL     1      42.296 -12.577  -0.973  1.00  0.00    -0.240 NA
HETATM   11  C   UNL     1      41.785 -13.440  -1.873  1.00  0.00     0.155 A 
HETATM   12  N   UNL     1      41.984 -13.415  -3.222  1.00  0.00    -0.260 N 
HETATM   13  C   UNL     1      40.964 -14.531  -1.631  1.00  0.00     0.038 A 
HETATM   14  N   UNL     1      41.346 -14.401  -3.886  1.00  0.00    -0.177 NA
HETATM   15  H   UNL     1      42.541 -12.748  -3.738  1.00  0.00     0.191 HD
HETATM   16  C   UNL     1      40.727 -15.090  -2.916  1.00  0.00     0.065 A 
HETATM   17  C   UNL     1      39.900 -16.276  -3.248  1.00  0.00     0.073 C 
HETATM   18  C   UNL     1      40.598 -14.798  -0.302  1.00  0.00     0.036 A 
ENDBRANCH   1   8
BRANCH   4  19
HETATM   19  O   UNL     1      42.515 -17.544   3.606  1.00  0.00    -0.344 OA
BRANCH  19  20
HETATM   20  C   UNL     1      43.257 -18.691   3.573  1.00  0.00     0.070 A 
HETATM   21  C   UNL     1      43.299 -19.617   2.532  1.00  0.00     0.060 A 
HETATM   22  C   UNL     1      44.105 -20.751   2.647  1.00  0.00     0.036 A 
HETATM   23 CL   UNL     1      44.143 -21.901   1.364  1.00  0.00    -0.084 Cl
HETATM   24  C   UNL     1      44.878 -20.967   3.785  1.00  0.00     0.024 A 
HETATM   25  C   UNL     1      44.851 -20.036   4.821  1.00  0.00     0.004 A 
HETATM   26  C   UNL     1      44.044 -18.902   4.709  1.00  0.00     0.037 A 
ENDBRANCH  19  20
ENDBRANCH   4  19
TORSDOF 3
ENDMDL
MODEL 3
REMARK VINA RESULT:      -8.1      4.212      7.243
REMARK  3 active torsions:
REMARK  status: ('A' for Active; 'I' for Inactive)
REMARK    1  A    between atoms: C_10  and  C_11 
REMARK       I    between atoms: C_11  and  N_12 
REMARK    2  A    between atoms: C_14  and  O_15 
REMARK    3  A    between atoms: O_15  and  C_16 
ROOT
HETATM    1  C   UNL     1      40.638 -14.214   2.163  1.00  0.00     0.255 C 
HETATM    2  N   UNL     1      41.520 -14.784   3.062  1.00  0.00    -0.345 N 
HETATM    3  C   UNL     1      42.771 -15.478   2.762  1.00  0.00     0.158 C 
HETATM    4  C   UNL     1      43.050 -16.362   3.987  1.00  0.00     0.148 C 
HETATM    5  C   UNL     1      42.339 -15.606   5.110  1.00  0.00     0.054 C 
HETATM    6  C   UNL     1      41.095 -15.061   4.422  1.00  0.00     0.129 C 
HETATM    7  O   UNL     1      39.498 -13.874   2.467  1.00  0.00    -0.267 OA
ENDROOT
BRANCH   1   8
HETATM    8  C   UNL     1      41.065 -14.030   0.763  1.00  0.00     0.050 A 
HETATM    9  C   UNL     1      40.788 -15.045  -0.151  1.00  0.00     0.136 A 
HETATM   10  N   UNL     1      41.127 -15.039  -1.467  1.00  0.00    -0.240 NA
HETATM   11  C   UNL     1      41.764 -13.907  -1.828  1.00  0.00     0.155 A 
HETATM   12  N   UNL     1      42.230 -13.603  -3.072  1.00  0.00    -0.260 N 
HETATM   13  C   UNL     1      42.073 -12.816  -1.030  1.00  0.00     0.038 A 
HETATM   14  N   UNL     1      42.834 -12.399  -3.150  1.00  0.00    -0.177 NA
HETATM   15  H   UNL     1      42.166 -14.181  -3.900  1.00  0.00     0.191 HD
HETATM   16  C   UNL     1      42.733 -11.911  -1.904  1.00  0.00     0.065 A 
HETATM   17  C   UNL     1      43.292 -10.578  -1.573  1.00  0.00     0.073 C 
HETATM   18  C   UNL     1      41.696 -12.861   0.322  1.00  0.00     0.036 A 
ENDBRANCH   1   8
BRANCH   4  19
HETATM   19  O   UNL     1      42.436 -17.636   3.766  1.00  0.00    -0.344 OA
BRANCH  19  20
HETATM   20  C   UNL     1      43.236 -18.741   3.691  1.00  0.00     0.070 A 
HETATM   21  C   UNL     1      43.296 -19.645   2.632  1.00  0.00     0.060 A 
HETATM   22  C   UNL     1      44.162 -20.737   2.703  1.00  0.00     0.036 A 
HETATM   23 CL   UNL     1      44.224 -21.861   1.398  1.00  0.00    -0.084 Cl
HETATM   24  C   UNL     1      44.979 -20.932   3.816  1.00  0.00     0.024 A 
HETATM   25  C   UNL     1      44.932 -20.022   4.869  1.00  0.00     0.004 A 
HETATM   26  C   UNL     1      44.065 -18.930   4.801  1.00  0.00     0.037 A 
ENDBRANCH  19  20
ENDBRANCH   4  19
TORSDOF 3
ENDMDL
MODEL 4
REMARK VINA RESULT:      -7.9      2.348      4.500
REMARK  3 active torsions:
REMARK  status: ('A' for Active; 'I' for Inactive)
REMARK    1  A    between atoms: C_10  and  C_11 
REMARK       I    between atoms: C_11  and  N_12 
REMARK    2  A    between atoms: C_14  and  O_15 
REMARK    3  A    between atoms: O_15  and  C_16 
ROOT
HETATM    1  C   UNL     1      41.271 -16.549   2.337  1.00  0.00     0.255 C 
HETATM    2  N   UNL     1      41.673 -15.226   2.361  1.00  0.00    -0.345 N 
HETATM    3  C   UNL     1      42.957 -14.695   2.813  1.00  0.00     0.158 C 
HETATM    4  C   UNL     1      42.691 -13.220   3.153  1.00  0.00     0.148 C 
HETATM    5  C   UNL     1      41.504 -12.881   2.250  1.00  0.00     0.054 C 
HETATM    6  C   UNL     1      40.687 -14.165   2.260  1.00  0.00     0.129 C 
HETATM    7  O   UNL     1      40.102 -16.892   2.183  1.00  0.00    -0.267 OA
ENDROOT
BRANCH   1   8
HETATM    8  C   UNL     1      42.282 -17.605   2.536  1.00  0.00     0.050 A 
HETATM    9  C   UNL     1      42.934 -18.114   1.415  1.00  0.00     0.136 A 
HETATM   10  N   UNL     1      43.874 -19.096   1.424  1.00  0.00    -0.240 NA
HETATM   11  C   UNL     1      44.145 -19.535   2.668  1.00  0.00     0.155 A 
HETATM   12  N   UNL     1      45.037 -20.510   3.005  1.00  0.00    -0.260 N 
HETATM   13  C   UNL     1      43.594 -19.096   3.862  1.00  0.00     0.038 A 
HETATM   14  N   UNL     1      45.104 -20.754   4.331  1.00  0.00    -0.177 NA
HETATM   15  H   UNL     1      45.620 -21.042   2.373  1.00  0.00     0.191 HD
HETATM   16  C   UNL     1      44.229 -19.885   4.859  1.00  0.00     0.065 A 
HETATM   17  C   UNL     1      44.007 -19.842   6.325  1.00  0.00     0.073 C 
HETATM   18  C   UNL     1      42.633 -18.074   3.807  1.00  0.00     0.036 A 
ENDBRANCH   1   8
BRANCH   4  19
HETATM   19  O   UNL     1      42.315 -13.143   4.532  1.00  0.00    -0.344 OA
BRANCH  19  20
HETATM   20  C   UNL     1      42.855 -14.043   5.406  1.00  0.00     0.070 A 
HETATM   21  C   UNL     1      42.232 -15.187   5.903  1.00  0.00     0.060 A 
HETATM   22  C   UNL     1      42.913 -16.011   6.801  1.00  0.00     0.036 A 
HETATM   23 CL   UNL     1      42.135 -17.417   7.422  1.00  0.00    -0.084 Cl
HETATM   24  C   UNL     1      44.214 -15.712   7.202  1.00  0.00     0.024 A 
HETATM   25  C   UNL     1      44.844 -14.578   6.696  1.00  0.00     0.004 A 
HETATM   26  C   UNL     1      44.165 -13.751   5.800  1.00  0.00     0.037 A 
ENDBRANCH  19  20
ENDBRANCH   4  19
TORSDOF 3
ENDMDL
MODEL 5
REMARK VINA RESULT:      -7.7      3.970      4.939
REMARK  3 active torsions:
REMARK  status: ('A' for Active; 'I' for Inactive)
REMARK    1  A    between atoms: C_10  and  C_11 
REMARK       I    between atoms: C_11  and  N_12 
REMARK    2  A    between atoms: C_14  and  O_15 
REMARK    3  A    between atoms: O_15  and  C_16 
ROOT
HETATM    1  C   UNL     1      42.804 -14.668   2.605  1.00  0.00     0.255 C 
HETATM    2  N   UNL     1      41.548 -14.345   2.125  1.00  0.00    -0.345 N 
HETATM    3  C   UNL     1      40.642 -15.198   1.358  1.00  0.00     0.158 C 
HETATM    4  C   UNL     1      39.695 -14.234   0.627  1.00  0.00     0.148 C 
HETATM    5  C   UNL     1      39.700 -13.008   1.542  1.00  0.00     0.054 C 
HETATM    6  C   UNL     1      41.138 -12.955   2.037  1.00  0.00     0.129 C 
HETATM    7  O   UNL     1      43.599 -13.829   3.019  1.00  0.00    -0.267 OA
ENDROOT
BRANCH   1   8
HETATM    8  C   UNL     1      43.229 -16.081   2.596  1.00  0.00     0.050 A 
HETATM    9  C   UNL     1      43.519 -16.675   1.370  1.00  0.00     0.136 A 
HETATM   10  N   UNL     1      43.906 -17.965   1.188  1.00  0.00    -0.240 NA
HETATM   11  C   UNL     1      44.007 -18.639   2.350  1.00  0.00     0.155 A 
HETATM   12  N   UNL     1      44.370 -19.945   2.498  1.00  0.00    -0.260 N 
HETATM   13  C   UNL     1      43.778 -18.161   3.631  1.00  0.00     0.038 A 
HETATM   14  N   UNL     1      44.384 -20.365   3.780  1.00  0.00    -0.177 NA
HETATM   15  H   UNL     1      44.614 -20.593   1.761  1.00  0.00     0.191 HD
HETATM   16  C   UNL     1      44.030 -19.275   4.477  1.00  0.00     0.065 A 
HETATM   17  C   UNL     1      43.926 -19.331   5.955  1.00  0.00     0.073 C 
HETATM   18  C   UNL     1      43.388 -16.820   3.774  1.00  0.00     0.036 A 
ENDBRANCH   1   8
BRANCH   4  19
HETATM   19  O   UNL     1      40.274 -13.918  -0.643  1.00  0.00    -0.344 OA
BRANCH  19  20
HETATM   20  C   UNL     1      39.752 -14.506  -1.761  1.00  0.00     0.070 A 
HETATM   21  C   UNL     1      38.520 -14.218  -2.345  1.00  0.00     0.060 A 
HETATM   22  C   UNL     1      38.118 -14.911  -3.489  1.00  0.00     0.036 A 
HETATM   23 CL   UNL     1      36.588 -14.562  -4.200  1.00  0.00    -0.084 Cl
HETATM   24  C   UNL     1      38.937 -15.881  -4.062  1.00  0.00     0.024 A 
HETATM   25  C   UNL     1      40.175 -16.160  -3.490  1.00  0.00     0.004 A 
HETATM   26  C   UNL     1      40.579 -15.471  -2.345  1.00  0.00     0.037 A 
ENDBRANCH  19  20
ENDBRANCH   4  19
TORSDOF 3
ENDMDL
MODEL 6
REMARK VINA RESULT:      -7.6      1.586      2.167
REMARK  3 active torsions:
REMARK  status: ('A' for Active; 'I' for Inactive)
REMARK    1  A    between atoms: C_10  and  C_11 
REMARK       I    between atoms: C_11  and  N_12 
REMARK    2  A    between atoms: C_14  and  O_15 
REMARK    3  A    between atoms: O_15  and  C_16 
ROOT
HETATM    1  C   UNL     1      42.904 -15.211   5.065  1.00  0.00     0.255 C 
HETATM    2  N   UNL     1      41.789 -15.037   4.267  1.00  0.00    -0.345 N 
HETATM    3  C   UNL     1      40.893 -16.072   3.753  1.00  0.00     0.158 C 
HETATM    4  C   UNL     1      40.206 -15.446   2.530  1.00  0.00     0.148 C 
HETATM    5  C   UNL     1      40.250 -13.952   2.854  1.00  0.00     0.054 C 
HETATM    6  C   UNL     1      41.595 -13.791   3.548  1.00  0.00     0.129 C 
HETATM    7  O   UNL     1      43.741 -14.331   5.247  1.00  0.00    -0.267 OA
ENDROOT
BRANCH   1   8
HETATM    8  C   UNL     1      43.124 -16.520   5.709  1.00  0.00     0.050 A 
HETATM    9  C   UNL     1      42.694 -16.690   7.023  1.00  0.00     0.136 A 
HETATM   10  N   UNL     1      42.835 -17.822   7.761  1.00  0.00    -0.240 NA
HETATM   11  C   UNL     1      43.435 -18.813   7.072  1.00  0.00     0.155 A 
HETATM   12  N   UNL     1      43.719 -20.063   7.535  1.00  0.00    -0.260 N 
HETATM   13  C   UNL     1      43.881 -18.784   5.760  1.00  0.00     0.038 A 
HETATM   14  N   UNL     1      44.329 -20.855   6.630  1.00  0.00    -0.177 NA
HETATM   15  H   UNL     1      43.521 -20.426   8.459  1.00  0.00     0.191 HD
HETATM   16  C   UNL     1      44.423 -20.079   5.540  1.00  0.00     0.065 A 
HETATM   17  C   UNL     1      45.053 -20.598   4.301  1.00  0.00     0.073 C 
HETATM   18  C   UNL     1      43.707 -17.597   5.031  1.00  0.00     0.036 A 
ENDBRANCH   1   8
BRANCH   4  19
HETATM   19  O   UNL     1      41.001 -15.736   1.376  1.00  0.00    -0.344 OA
BRANCH  19  20
HETATM   20  C   UNL     1      41.958 -16.706   1.470  1.00  0.00     0.070 A 
HETATM   21  C   UNL     1      41.734 -18.076   1.604  1.00  0.00     0.060 A 
HETATM   22  C   UNL     1      42.820 -18.948   1.697  1.00  0.00     0.036 A 
HETATM   23 CL   UNL     1      42.540 -20.639   1.875  1.00  0.00    -0.084 Cl
HETATM   24  C   UNL     1      44.128 -18.471   1.648  1.00  0.00     0.024 A 
HETATM   25  C   UNL     1      44.355 -17.105   1.500  1.00  0.00     0.004 A 
HETATM   26  C   UNL     1      43.272 -16.230   1.409  1.00  0.00     0.037 A 
ENDBRANCH  19  20
ENDBRANCH   4  19
TORSDOF 3
ENDMDL
MODEL 7
REMARK VINA RESULT:      -7.5      3.276      3.819
REMARK  3 active torsions:
REMARK  status: ('A' for Active; 'I' for Inactive)
REMARK    1  A    between atoms: C_10  and  C_11 
REMARK       I    between atoms: C_11  and  N_12 
REMARK    2  A    between atoms: C_14  and  O_15 
REMARK    3  A    between atoms: O_15  and  C_16 
ROOT
HETATM    1  C   UNL     1      41.664 -16.199   4.499  1.00  0.00     0.255 C 
HETATM    2  N   UNL     1      40.938 -16.015   3.336  1.00  0.00    -0.345 N 
HETATM    3  C   UNL     1      41.182 -16.622   2.029  1.00  0.00     0.158 C 
HETATM    4  C   UNL     1      40.490 -15.699   1.015  1.00  0.00     0.148 C 
HETATM    5  C   UNL     1      39.379 -15.061   1.851  1.00  0.00     0.054 C 
HETATM    6  C   UNL     1      40.035 -14.884   3.214  1.00  0.00     0.129 C 
HETATM    7  O   UNL     1      41.551 -15.471   5.481  1.00  0.00    -0.267 OA
ENDROOT
BRANCH   1   8
HETATM    8  C   UNL     1      42.642 -17.301   4.561  1.00  0.00     0.050 A 
HETATM    9  C   UNL     1      43.513 -17.350   5.648  1.00  0.00     0.136 A 
HETATM   10  N   UNL     1      44.479 -18.285   5.846  1.00  0.00    -0.240 NA
HETATM   11  C   UNL     1      44.507 -19.210   4.867  1.00  0.00     0.155 A 
HETATM   12  N   UNL     1      45.360 -20.270   4.780  1.00  0.00    -0.260 N 
HETATM   13  C   UNL     1      43.684 -19.292   3.754  1.00  0.00     0.038 A 
HETATM   14  N   UNL     1      45.167 -21.037   3.686  1.00  0.00    -0.177 NA
HETATM   15  H   UNL     1      46.091 -20.514   5.434  1.00  0.00     0.191 HD
HETATM   16  C   UNL     1      44.138 -20.447   3.061  1.00  0.00     0.065 A 
HETATM   17  C   UNL     1      43.616 -21.001   1.788  1.00  0.00     0.073 C 
HETATM   18  C   UNL     1      42.693 -18.311   3.593  1.00  0.00     0.036 A 
ENDBRANCH   1   8
BRANCH   4  19
HETATM   19  O   UNL     1      41.436 -14.711   0.594  1.00  0.00    -0.344 OA
BRANCH  19  20
HETATM   20  C   UNL     1      41.471 -14.363  -0.727  1.00  0.00     0.070 A 
HETATM   21  C   UNL     1      41.942 -13.161  -1.251  1.00  0.00     0.060 A 
HETATM   22  C   UNL     1      41.907 -12.947  -2.630  1.00  0.00     0.036 A 
HETATM   23 CL   UNL     1      42.477 -11.454  -3.274  1.00  0.00    -0.084 Cl
HETATM   24  C   UNL     1      41.416 -13.924  -3.494  1.00  0.00     0.024 A 
HETATM   25  C   UNL     1      40.958 -15.132  -2.975  1.00  0.00     0.004 A 
HETATM   26  C   UNL     1      40.990 -15.348  -1.596  1.00  0.00     0.037 A 
ENDBRANCH  19  20
ENDBRANCH   4  19
TORSDOF 3
ENDMDL
MODEL 8
REMARK VINA RESULT:      -7.4      2.410      5.164
REMARK  3 active torsions:
REMARK  status: ('A' for Active; 'I' for Inactive)
REMARK    1  A    between atoms: C_10  and  C_11 
REMARK       I    between atoms: C_11  and  N_12 
REMARK    2  A    between atoms: C_14  and  O_15 
REMARK    3  A    between atoms: O_15  and  C_16 
ROOT
HETATM    1  C   UNL     1      43.425 -17.985   5.370  1.00  0.00     0.255 C 
HETATM    2  N   UNL     1      43.776 -18.279   4.065  1.00  0.00    -0.345 N 
HETATM    3  C   UNL     1      43.834 -17.358   2.931  1.00  0.00     0.158 C 
HETATM    4  C   UNL     1      43.720 -18.243   1.681  1.00  0.00     0.148 C 
HETATM    5  C   UNL     1      44.279 -19.580   2.169  1.00  0.00     0.054 C 
HETATM    6  C   UNL     1      43.782 -19.656   3.606  1.00  0.00     0.129 C 
HETATM    7  O   UNL     1      43.159 -18.848   6.202  1.00  0.00    -0.267 OA
ENDROOT
BRANCH   1   8
HETATM    8  C   UNL     1      43.336 -16.572   5.784  1.00  0.00     0.050 A 
HETATM    9  C   UNL     1      44.327 -16.066   6.623  1.00  0.00     0.136 A 
HETATM   10  N   UNL     1      44.381 -14.798   7.107  1.00  0.00    -0.240 NA
HETATM   11  C   UNL     1      43.361 -14.036   6.667  1.00  0.00     0.155 A 
HETATM   12  N   UNL     1      43.137 -12.727   6.975  1.00  0.00    -0.260 N 
HETATM   13  C   UNL     1      42.334 -14.405   5.812  1.00  0.00     0.038 A 
HETATM   14  N   UNL     1      42.034 -12.210   6.396  1.00  0.00    -0.177 NA
HETATM   15  H   UNL     1      43.703 -12.141   7.575  1.00  0.00     0.191 HD
HETATM   16  C   UNL     1      41.544 -13.232   5.677  1.00  0.00     0.065 A 
HETATM   17  C   UNL     1      40.304 -13.062   4.880  1.00  0.00     0.073 C 
HETATM   18  C   UNL     1      42.321 -15.723   5.329  1.00  0.00     0.036 A 
ENDBRANCH   1   8
BRANCH   4  19
HETATM   19  O   UNL     1      42.333 -18.367   1.349  1.00  0.00    -0.344 OA
BRANCH  19  20
HETATM   20  C   UNL     1      41.602 -17.227   1.168  1.00  0.00     0.070 A 
HETATM   21  C   UNL     1      41.761 -16.298   0.141  1.00  0.00     0.060 A 
HETATM   22  C   UNL     1      40.938 -15.171   0.093  1.00  0.00     0.036 A 
HETATM   23 CL   UNL     1      41.146 -14.020  -1.171  1.00  0.00    -0.084 Cl
HETATM   24  C   UNL     1      39.951 -14.965   1.054  1.00  0.00     0.024 A 
HETATM   25  C   UNL     1      39.780 -15.898   2.074  1.00  0.00     0.004 A 
HETATM   26  C   UNL     1      40.603 -17.024   2.126  1.00  0.00     0.037 A 
ENDBRANCH  19  20
ENDBRANCH   4  19
TORSDOF 3
ENDMDL
MODEL 9
REMARK VINA RESULT:      -7.3      2.691      6.566
REMARK  3 active torsions:
REMARK  status: ('A' for Active; 'I' for Inactive)
REMARK    1  A    between atoms: C_10  and  C_11 
REMARK       I    between atoms: C_11  and  N_12 
REMARK    2  A    between atoms: C_14  and  O_15 
REMARK    3  A    between atoms: O_15  and  C_16 
ROOT
HETATM    1  C   UNL     1      43.632 -17.976   2.137  1.00  0.00     0.255 C 
HETATM    2  N   UNL     1      43.846 -19.010   3.030  1.00  0.00    -0.345 N 
HETATM    3  C   UNL     1      43.225 -19.195   4.341  1.00  0.00     0.158 C 
HETATM    4  C   UNL     1      44.176 -20.122   5.114  1.00  0.00     0.148 C 
HETATM    5  C   UNL     1      44.864 -20.902   3.993  1.00  0.00     0.054 C 
HETATM    6  C   UNL     1      45.014 -19.860   2.893  1.00  0.00     0.129 C 
HETATM    7  O   UNL     1      44.366 -17.758   1.177  1.00  0.00    -0.267 OA
ENDROOT
BRANCH   1   8
HETATM    8  C   UNL     1      42.488 -17.071   2.355  1.00  0.00     0.050 A 
HETATM    9  C   UNL     1      41.248 -17.435   1.833  1.00  0.00     0.136 A 
HETATM   10  N   UNL     1      40.104 -16.708   1.930  1.00  0.00    -0.240 NA
HETATM   11  C   UNL     1      40.279 -15.566   2.624  1.00  0.00     0.155 A 
HETATM   12  N   UNL     1      39.327 -14.628   2.891  1.00  0.00    -0.260 N 
HETATM   13  C   UNL     1      41.444 -15.104   3.217  1.00  0.00     0.038 A 
HETATM   14  N   UNL     1      39.781 -13.577   3.605  1.00  0.00    -0.177 NA
HETATM   15  H   UNL     1      38.356 -14.654   2.608  1.00  0.00     0.191 HD
HETATM   16  C   UNL     1      41.073 -13.868   3.813  1.00  0.00     0.065 A 
HETATM   17  C   UNL     1      41.939 -12.936   4.575  1.00  0.00     0.073 C 
HETATM   18  C   UNL     1      42.601 -15.891   3.099  1.00  0.00     0.036 A 
ENDBRANCH   1   8
BRANCH   4  19
HETATM   19  O   UNL     1      45.121 -19.306   5.815  1.00  0.00    -0.344 OA
BRANCH  19  20
HETATM   20  C   UNL     1      44.666 -18.192   6.462  1.00  0.00     0.070 A 
HETATM   21  C   UNL     1      44.915 -16.868   6.102  1.00  0.00     0.060 A 
HETATM   22  C   UNL     1      44.384 -15.830   6.870  1.00  0.00     0.036 A 
HETATM   23 CL   UNL     1      44.706 -14.196   6.429  1.00  0.00    -0.084 Cl
HETATM   24  C   UNL     1      43.598 -16.098   7.989  1.00  0.00     0.024 A 
HETATM   25  C   UNL     1      43.335 -17.419   8.343  1.00  0.00     0.004 A 
HETATM   26  C   UNL     1      43.866 -18.459   7.578  1.00  0.00     0.037 A 
ENDBRANCH  19  20
ENDBRANCH   4  19
TORSDOF 3
ENDMDL
MODEL 10
REMARK VINA RESULT:      -7.3      2.357      5.531
REMARK  3 active torsions:
REMARK  status: ('A' for Active; 'I' for Inactive)
REMARK    1  A    between atoms: C_10  and  C_11 
REMARK       I    between atoms: C_11  and  N_12 
REMARK    2  A    between atoms: C_14  and  O_15 
REMARK    3  A    between atoms: O_15  and  C_16 
ROOT
HETATM    1  C   UNL     1      41.859 -15.967   6.055  1.00  0.00     0.255 C 
HETATM    2  N   UNL     1      42.922 -16.744   6.479  1.00  0.00    -0.345 N 
HETATM    3  C   UNL     1      44.103 -17.130   5.709  1.00  0.00     0.158 C 
HETATM    4  C   UNL     1      44.650 -18.385   6.406  1.00  0.00     0.148 C 
HETATM    5  C   UNL     1      44.163 -18.206   7.844  1.00  0.00     0.054 C 
HETATM    6  C   UNL     1      42.791 -17.571   7.665  1.00  0.00     0.129 C 
HETATM    7  O   UNL     1      40.797 -15.895   6.667  1.00  0.00    -0.267 OA
ENDROOT
BRANCH   1   8
HETATM    8  C   UNL     1      41.986 -15.210   4.796  1.00  0.00     0.050 A 
HETATM    9  C   UNL     1      42.553 -13.938   4.845  1.00  0.00     0.136 A 
HETATM   10  N   UNL     1      42.726 -13.107   3.784  1.00  0.00    -0.240 NA
HETATM   11  C   UNL     1      42.302 -13.656   2.628  1.00  0.00     0.155 A 
HETATM   12  N   UNL     1      42.340 -13.075   1.395  1.00  0.00    -0.260 N 
HETATM   13  C   UNL     1      41.752 -14.914   2.438  1.00  0.00     0.038 A 
HETATM   14  N   UNL     1      41.844 -13.852   0.411  1.00  0.00    -0.177 NA
HETATM   15  H   UNL     1      42.689 -12.153   1.172  1.00  0.00     0.191 HD
HETATM   16  C   UNL     1      41.490 -14.981   1.043  1.00  0.00     0.065 A 
HETATM   17  C   UNL     1      40.888 -16.107   0.288  1.00  0.00     0.073 C 
HETATM   18  C   UNL     1      41.599 -15.743   3.561  1.00  0.00     0.036 A 
ENDBRANCH   1   8
BRANCH   4  19
HETATM   19  O   UNL     1      44.038 -19.531   5.804  1.00  0.00    -0.344 OA
BRANCH  19  20
HETATM   20  C   UNL     1      44.135 -19.686   4.450  1.00  0.00     0.070 A 
HETATM   21  C   UNL     1      43.940 -18.695   3.490  1.00  0.00     0.060 A 
HETATM   22  C   UNL     1      44.068 -19.009   2.136  1.00  0.00     0.036 A 
HETATM   23 CL   UNL     1      43.813 -17.784   0.951  1.00  0.00    -0.084 Cl
HETATM   24  C   UNL     1      44.398 -20.300   1.728  1.00  0.00     0.024 A 
HETATM   25  C   UNL     1      44.608 -21.289   2.686  1.00  0.00     0.004 A 
HETATM   26  C   UNL     1      44.479 -20.979   4.040  1.00  0.00     0.037 A 
ENDBRANCH  19  20
ENDBRANCH   4  19
TORSDOF 3
ENDMDL
