MODEL 1
REMARK VINA RESULT:      -9.2      0.000      0.000
REMARK  7 active torsions:
REMARK  status: ('A' for Active; 'I' for Inactive)
REMARK    1  A    between atoms: C_2  and  N_3 
REMARK    2  A    between atoms: N_7  and  C_8 
REMARK    3  A    between atoms: C_11  and  N_12 
REMARK    4  A    between atoms: N_12  and  C_13 
REMARK    5  A    between atoms: C_13  and  N_14 
REMARK       I    between atoms: N_14  and  C_15 
REMARK    6  A    between atoms: C_15  and  C_16 
REMARK    7  A    between atoms: C_18  and  C_19 
ROOT
HETATM    1  C   UNL     1      41.318 -14.103   3.803  1.00  0.00     0.179 C 
HETATM    2  S   UNL     1      39.637 -14.068   3.717  1.00  0.00    -0.040 SA
ENDROOT
BRANCH   1   3
HETATM    3  N   UNL     1      42.180 -14.494   2.812  1.00  0.00    -0.333 N 
HETATM    4  H   UNL     1      42.898 -15.144   3.124  1.00  0.00     0.168 HD
BRANCH   3   5
HETATM    5  C   UNL     1      41.877 -14.509   1.431  1.00  0.00     0.034 A 
HETATM    6  C   UNL     1      41.570 -15.690   0.766  1.00  0.00     0.032 A 
HETATM    7  C   UNL     1      41.323 -15.691  -0.614  1.00  0.00     0.031 A 
HETATM    8  C   UNL     1      41.401 -14.524  -1.392  1.00  0.00     0.030 A 
HETATM    9  C   UNL     1      41.603 -13.333  -0.670  1.00  0.00     0.031 A 
HETATM   10  C   UNL     1      41.839 -13.320   0.717  1.00  0.00     0.032 A 
BRANCH   8  11
HETATM   11  N   UNL     1      41.248 -14.550  -2.792  1.00  0.00    -0.378 N 
HETATM   12  C   UNL     1      41.105 -13.255  -3.501  1.00  0.00     0.150 C 
HETATM   13  C   UNL     1      39.661 -12.722  -3.353  1.00  0.00     0.254 C 
HETATM   14  N   UNL     1      38.647 -13.751  -3.885  1.00  0.00    -0.068 N 
HETATM   15  H   UNL     1      38.824 -13.857  -4.892  1.00  0.00     0.280 HD
HETATM   16  C   UNL     1      38.879 -15.140  -3.253  1.00  0.00     0.254 C 
HETATM   17  C   UNL     1      40.359 -15.571  -3.391  1.00  0.00     0.150 C 
BRANCH  14  18
HETATM   18  C   UNL     1      37.210 -13.319  -3.700  1.00  0.00     0.230 C 
HETATM   19  C   UNL     1      36.274 -14.162  -4.545  1.00  0.00     0.034 C 
ENDBRANCH  14  18
ENDBRANCH   8  11
ENDBRANCH   3   5
ENDBRANCH   1   3
BRANCH   1  20
HETATM   20  N   UNL     1      41.856 -13.701   5.009  1.00  0.00    -0.298 N 
HETATM   21  C   UNL     1      42.913 -14.028   5.860  1.00  0.00     0.281 C 
HETATM   22  O   UNL     1      43.380 -13.085   6.507  1.00  0.00    -0.265 OA
HETATM   23  H   UNL     1      41.590 -12.741   5.203  1.00  0.00     0.171 HD
BRANCH  21  24
HETATM   24  C   UNL     1      43.439 -15.367   5.999  1.00  0.00     0.144 A 
HETATM   25  O   UNL     1      43.551 -16.247   4.950  1.00  0.00    -0.304 OA
HETATM   26  C   UNL     1      43.957 -17.446   5.477  1.00  0.00     0.086 A 
HETATM   27  C   UNL     1      44.118 -17.341   6.841  1.00  0.00     0.041 A 
HETATM   28  C   UNL     1      43.799 -16.010   7.173  1.00  0.00     0.046 A 
BRANCH  26  29
HETATM   29  C   UNL     1      44.092 -18.560   4.557  1.00  0.00    -0.001 A 
HETATM   30  C   UNL     1      44.489 -19.821   5.013  1.00  0.00     0.040 A 
HETATM   31  C   UNL     1      44.599 -20.896   4.124  1.00  0.00     0.056 A 
HETATM   32 CL   UNL     1      45.120 -22.415   4.765  1.00  0.00    -0.083 Cl
HETATM   33  C   UNL     1      44.294 -20.721   2.771  1.00  0.00     0.055 A 
HETATM   34 CL   UNL     1      44.410 -22.004   1.621  1.00  0.00    -0.083 Cl
HETATM   35  C   UNL     1      43.878 -19.468   2.312  1.00  0.00     0.026 A 
HETATM   36  C   UNL     1      43.777 -18.396   3.202  1.00  0.00     0.016 A 
ENDBRANCH  26  29
ENDBRANCH  21  24
ENDBRANCH   1  20
TORSDOF 7
ENDMDL
MODEL 2
REMARK VINA RESULT:      -9.1      1.856      2.637
REMARK  7 active torsions:
REMARK  status: ('A' for Active; 'I' for Inactive)
REMARK    1  A    between atoms: C_2  and  N_3 
REMARK    2  A    between atoms: N_7  and  C_8 
REMARK    3  A    between atoms: C_11  and  N_12 
REMARK    4  A    between atoms: N_12  and  C_13 
REMARK    5  A    between atoms: C_13  and  N_14 
REMARK       I    between atoms: N_14  and  C_15 
REMARK    6  A    between atoms: C_15  and  C_16 
REMARK    7  A    between atoms: C_18  and  C_19 
ROOT
HETATM    1  C   UNL     1      42.066 -13.415   5.773  1.00  0.00     0.179 C 
HETATM    2  S   UNL     1      41.358 -11.897   5.608  1.00  0.00    -0.040 SA
ENDROOT
BRANCH   1   3
HETATM    3  N   UNL     1      41.670 -14.575   5.159  1.00  0.00    -0.333 N 
HETATM    4  H   UNL     1      41.250 -15.252   5.792  1.00  0.00     0.168 HD
BRANCH   3   5
HETATM    5  C   UNL     1      41.327 -14.693   3.793  1.00  0.00     0.034 A 
HETATM    6  C   UNL     1      42.298 -14.835   2.809  1.00  0.00     0.032 A 
HETATM    7  C   UNL     1      41.940 -14.899   1.454  1.00  0.00     0.031 A 
HETATM    8  C   UNL     1      40.607 -14.794   1.023  1.00  0.00     0.030 A 
HETATM    9  C   UNL     1      39.645 -14.764   2.050  1.00  0.00     0.031 A 
HETATM   10  C   UNL     1      39.993 -14.713   3.412  1.00  0.00     0.032 A 
BRANCH   8  11
HETATM   11  N   UNL     1      40.267 -14.761  -0.342  1.00  0.00    -0.378 N 
HETATM   12  C   UNL     1      41.369 -14.731  -1.334  1.00  0.00     0.150 C 
HETATM   13  C   UNL     1      41.950 -13.302  -1.444  1.00  0.00     0.254 C 
HETATM   14  N   UNL     1      40.846 -12.298  -1.824  1.00  0.00    -0.068 N 
HETATM   15  H   UNL     1      40.512 -12.556  -2.761  1.00  0.00     0.280 HD
HETATM   16  C   UNL     1      39.633 -12.420  -0.878  1.00  0.00     0.254 C 
HETATM   17  C   UNL     1      39.153 -13.887  -0.778  1.00  0.00     0.150 C 
BRANCH  14  18
HETATM   18  C   UNL     1      41.336 -10.868  -1.875  1.00  0.00     0.230 C 
HETATM   19  C   UNL     1      42.549 -10.739  -2.777  1.00  0.00     0.034 C 
ENDBRANCH  14  18
ENDBRANCH   8  11
ENDBRANCH   3   5
ENDBRANCH   1   3
BRANCH   1  20
HETATM   20  N   UNL     1      43.150 -13.472   6.628  1.00  0.00    -0.298 N 
HETATM   21  C   UNL     1      44.180 -14.346   6.976  1.00  0.00     0.281 C 
HETATM   22  O   UNL     1      45.233 -13.805   7.329  1.00  0.00    -0.265 OA
HETATM   23  H   UNL     1      43.446 -12.532   6.874  1.00  0.00     0.171 HD
BRANCH  21  24
HETATM   24  C   UNL     1      44.050 -15.785   6.942  1.00  0.00     0.144 A 
HETATM   25  O   UNL     1      44.315 -16.541   5.826  1.00  0.00    -0.304 OA
HETATM   26  C   UNL     1      43.958 -17.831   6.124  1.00  0.00     0.086 A 
HETATM   27  C   UNL     1      43.482 -17.912   7.414  1.00  0.00     0.041 A 
HETATM   28  C   UNL     1      43.552 -16.608   7.941  1.00  0.00     0.046 A 
BRANCH  26  29
HETATM   29  C   UNL     1      44.095 -18.815   5.066  1.00  0.00    -0.001 A 
HETATM   30  C   UNL     1      44.461 -20.132   5.358  1.00  0.00     0.040 A 
HETATM   31  C   UNL     1      44.574 -21.082   4.335  1.00  0.00     0.056 A 
HETATM   32 CL   UNL     1      45.056 -22.683   4.779  1.00  0.00    -0.083 Cl
HETATM   33  C   UNL     1      44.303 -20.722   3.012  1.00  0.00     0.055 A 
HETATM   34 CL   UNL     1      44.424 -21.842   1.703  1.00  0.00    -0.083 Cl
HETATM   35  C   UNL     1      43.918 -19.412   2.716  1.00  0.00     0.026 A 
HETATM   36  C   UNL     1      43.813 -18.466   3.739  1.00  0.00     0.016 A 
ENDBRANCH  26  29
ENDBRANCH  21  24
ENDBRANCH   1  20
TORSDOF 7
ENDMDL
MODEL 3
REMARK VINA RESULT:      -8.8      2.250      3.311
REMARK  7 active torsions:
REMARK  status: ('A' for Active; 'I' for Inactive)
REMARK    1  A    between atoms: C_2  and  N_3 
REMARK    2  A    between atoms: N_7  and  C_8 
REMARK    3  A    between atoms: C_11  and  N_12 
REMARK    4  A    between atoms: N_12  and  C_13 
REMARK    5  A    between atoms: C_13  and  N_14 
REMARK       I    between atoms: N_14  and  C_15 
REMARK    6  A    between atoms: C_15  and  C_16 
REMARK    7  A    between atoms: C_18  and  C_19 
ROOT
HETATM    1  C   UNL     1      41.103 -12.146   6.081  1.00  0.00     0.179 C 
HETATM    2  S   UNL     1      41.344 -10.481   6.104  1.00  0.00    -0.040 SA
ENDROOT
BRANCH   1   3
HETATM    3  N   UNL     1      40.001 -12.808   5.604  1.00  0.00    -0.333 N 
HETATM    4  H   UNL     1      39.165 -12.673   6.167  1.00  0.00     0.168 HD
BRANCH   3   5
HETATM    5  C   UNL     1      39.798 -13.177   4.254  1.00  0.00     0.034 A 
HETATM    6  C   UNL     1      39.842 -14.506   3.850  1.00  0.00     0.032 A 
HETATM    7  C   UNL     1      39.689 -14.848   2.498  1.00  0.00     0.031 A 
HETATM    8  C   UNL     1      39.519 -13.881   1.493  1.00  0.00     0.030 A 
HETATM    9  C   UNL     1      39.368 -12.559   1.951  1.00  0.00     0.031 A 
HETATM   10  C   UNL     1      39.506 -12.208   3.307  1.00  0.00     0.032 A 
BRANCH   8  11
HETATM   11  N   UNL     1      39.465 -14.227   0.129  1.00  0.00    -0.378 N 
HETATM   12  C   UNL     1      40.516 -15.130  -0.402  1.00  0.00     0.150 C 
HETATM   13  C   UNL     1      41.821 -14.340  -0.653  1.00  0.00     0.254 C 
HETATM   14  N   UNL     1      41.566 -13.168  -1.621  1.00  0.00    -0.068 N 
HETATM   15  H   UNL     1      41.286 -13.576  -2.522  1.00  0.00     0.280 HD
HETATM   16  C   UNL     1      40.380 -12.302  -1.146  1.00  0.00     0.254 C 
HETATM   17  C   UNL     1      39.136 -13.176  -0.860  1.00  0.00     0.150 C 
BRANCH  14  18
HETATM   18  C   UNL     1      42.790 -12.311  -1.850  1.00  0.00     0.230 C 
HETATM   19  C   UNL     1      42.426 -11.018  -2.556  1.00  0.00     0.034 C 
ENDBRANCH  14  18
ENDBRANCH   8  11
ENDBRANCH   3   5
ENDBRANCH   1   3
BRANCH   1  20
HETATM   20  N   UNL     1      42.131 -12.899   6.614  1.00  0.00    -0.298 N 
HETATM   21  C   UNL     1      43.224 -13.653   6.186  1.00  0.00     0.281 C 
HETATM   22  O   UNL     1      44.190 -13.664   6.956  1.00  0.00    -0.265 OA
HETATM   23  H   UNL     1      42.310 -12.612   7.571  1.00  0.00     0.171 HD
BRANCH  21  24
HETATM   24  C   UNL     1      43.250 -14.384   4.938  1.00  0.00     0.144 A 
HETATM   25  O   UNL     1      43.354 -15.751   4.868  1.00  0.00    -0.304 OA
HETATM   26  C   UNL     1      43.481 -16.073   3.541  1.00  0.00     0.086 A 
HETATM   27  C   UNL     1      43.447 -14.935   2.765  1.00  0.00     0.041 A 
HETATM   28  C   UNL     1      43.287 -13.857   3.657  1.00  0.00     0.046 A 
BRANCH  26  29
HETATM   29  C   UNL     1      43.666 -17.475   3.216  1.00  0.00    -0.001 A 
HETATM   30  C   UNL     1      44.055 -18.392   4.198  1.00  0.00     0.040 A 
HETATM   31  C   UNL     1      44.213 -19.747   3.884  1.00  0.00     0.056 A 
HETATM   32 CL   UNL     1      44.721 -20.809   5.150  1.00  0.00    -0.083 Cl
HETATM   33  C   UNL     1      43.967 -20.197   2.583  1.00  0.00     0.055 A 
HETATM   34 CL   UNL     1      44.145 -21.853   2.127  1.00  0.00    -0.083 Cl
HETATM   35  C   UNL     1      43.559 -19.290   1.602  1.00  0.00     0.026 A 
HETATM   36  C   UNL     1      43.408 -17.938   1.919  1.00  0.00     0.016 A 
ENDBRANCH  26  29
ENDBRANCH  21  24
ENDBRANCH   1  20
TORSDOF 7
ENDMDL
MODEL 4
REMARK VINA RESULT:      -8.7      1.781      2.655
REMARK  7 active torsions:
REMARK  status: ('A' for Active; 'I' for Inactive)
REMARK    1  A    between atoms: C_2  and  N_3 
REMARK    2  A    between atoms: N_7  and  C_8 
REMARK    3  A    between atoms: C_11  and  N_12 
REMARK    4  A    between atoms: N_12  and  C_13 
REMARK    5  A    between atoms: C_13  and  N_14 
REMARK       I    between atoms: N_14  and  C_15 
REMARK    6  A    between atoms: C_15  and  C_16 
REMARK    7  A    between atoms: C_18  and  C_19 
ROOT
HETATM    1  C   UNL     1      40.113 -13.802   4.433  1.00  0.00     0.179 C 
HETATM    2  S   UNL     1      39.389 -13.199   5.827  1.00  0.00    -0.040 SA
ENDROOT
BRANCH   1   3
HETATM    3  N   UNL     1      39.562 -14.686   3.541  1.00  0.00    -0.333 N 
HETATM    4  H   UNL     1      38.767 -15.202   3.911  1.00  0.00     0.168 HD
BRANCH   3   5
HETATM    5  C   UNL     1      39.639 -14.573   2.134  1.00  0.00     0.034 A 
HETATM    6  C   UNL     1      40.580 -15.283   1.397  1.00  0.00     0.032 A 
HETATM    7  C   UNL     1      40.673 -15.117   0.008  1.00  0.00     0.031 A 
HETATM    8  C   UNL     1      39.858 -14.218  -0.699  1.00  0.00     0.030 A 
HETATM    9  C   UNL     1      38.845 -13.602   0.060  1.00  0.00     0.031 A 
HETATM   10  C   UNL     1      38.735 -13.772   1.453  1.00  0.00     0.032 A 
BRANCH   8  11
HETATM   11  N   UNL     1      40.025 -13.987  -2.077  1.00  0.00    -0.378 N 
HETATM   12  C   UNL     1      41.362 -14.240  -2.669  1.00  0.00     0.150 C 
HETATM   13  C   UNL     1      42.316 -13.064  -2.355  1.00  0.00     0.254 C 
HETATM   14  N   UNL     1      41.730 -11.739  -2.877  1.00  0.00    -0.068 N 
HETATM   15  H   UNL     1      41.676 -11.814  -3.901  1.00  0.00     0.280 HD
HETATM   16  C   UNL     1      40.283 -11.534  -2.378  1.00  0.00     0.254 C 
HETATM   17  C   UNL     1      39.414 -12.779  -2.676  1.00  0.00     0.150 C 
BRANCH  14  18
HETATM   18  C   UNL     1      42.582 -10.537  -2.536  1.00  0.00     0.230 C 
HETATM   19  C   UNL     1      43.259 -10.713  -1.190  1.00  0.00     0.034 C 
ENDBRANCH  14  18
ENDBRANCH   8  11
ENDBRANCH   3   5
ENDBRANCH   1   3
BRANCH   1  20
HETATM   20  N   UNL     1      41.396 -13.353   4.191  1.00  0.00    -0.298 N 
HETATM   21  C   UNL     1      42.670 -13.867   3.948  1.00  0.00     0.281 C 
HETATM   22  O   UNL     1      43.390 -13.169   3.226  1.00  0.00    -0.265 OA
HETATM   23  H   UNL     1      41.367 -12.409   3.819  1.00  0.00     0.171 HD
BRANCH  21  24
HETATM   24  C   UNL     1      43.143 -15.119   4.494  1.00  0.00     0.144 A 
HETATM   25  O   UNL     1      43.398 -16.228   3.726  1.00  0.00    -0.304 OA
HETATM   26  C   UNL     1      43.697 -17.251   4.590  1.00  0.00     0.086 A 
HETATM   27  C   UNL     1      43.648 -16.808   5.893  1.00  0.00     0.041 A 
HETATM   28  C   UNL     1      43.307 -15.443   5.832  1.00  0.00     0.046 A 
BRANCH  26  29
HETATM   29  C   UNL     1      43.949 -18.556   4.007  1.00  0.00    -0.001 A 
HETATM   30  C   UNL     1      44.378 -19.623   4.801  1.00  0.00     0.040 A 
HETATM   31  C   UNL     1      44.603 -20.885   4.237  1.00  0.00     0.056 A 
HETATM   32 CL   UNL     1      45.155 -22.144   5.285  1.00  0.00    -0.083 Cl
HETATM   33  C   UNL     1      44.383 -21.090   2.871  1.00  0.00     0.055 A 
HETATM   34 CL   UNL     1      44.642 -22.618   2.110  1.00  0.00    -0.083 Cl
HETATM   35  C   UNL     1      43.936 -20.032   2.076  1.00  0.00     0.026 A 
HETATM   36  C   UNL     1      43.720 -18.773   2.642  1.00  0.00     0.016 A 
ENDBRANCH  26  29
ENDBRANCH  21  24
ENDBRANCH   1  20
TORSDOF 7
ENDMDL
MODEL 5
REMARK VINA RESULT:      -8.7      4.846      9.695
REMARK  7 active torsions:
REMARK  status: ('A' for Active; 'I' for Inactive)
REMARK    1  A    between atoms: C_2  and  N_3 
REMARK    2  A    between atoms: N_7  and  C_8 
REMARK    3  A    between atoms: C_11  and  N_12 
REMARK    4  A    between atoms: N_12  and  C_13 
REMARK    5  A    between atoms: C_13  and  N_14 
REMARK       I    between atoms: N_14  and  C_15 
REMARK    6  A    between atoms: C_15  and  C_16 
REMARK    7  A    between atoms: C_18  and  C_19 
ROOT
HETATM    1  C   UNL     1      44.045 -14.119   6.967  1.00  0.00     0.179 C 
HETATM    2  S   UNL     1      43.922 -15.765   7.295  1.00  0.00    -0.040 SA
ENDROOT
BRANCH   1   3
HETATM    3  N   UNL     1      44.911 -13.230   7.550  1.00  0.00    -0.333 N 
HETATM    4  H   UNL     1      45.641 -12.898   6.925  1.00  0.00     0.168 HD
BRANCH   3   5
HETATM    5  C   UNL     1      44.603 -12.403   8.654  1.00  0.00     0.034 A 
HETATM    6  C   UNL     1      45.349 -12.446   9.826  1.00  0.00     0.032 A 
HETATM    7  C   UNL     1      44.996 -11.654  10.928  1.00  0.00     0.031 A 
HETATM    8  C   UNL     1      43.871 -10.812  10.920  1.00  0.00     0.030 A 
HETATM    9  C   UNL     1      43.208 -10.710   9.683  1.00  0.00     0.031 A 
HETATM   10  C   UNL     1      43.562 -11.490   8.567  1.00  0.00     0.032 A 
BRANCH   8  11
HETATM   11  N   UNL     1      43.469 -10.096  12.063  1.00  0.00    -0.378 N 
HETATM   12  C   UNL     1      42.782 -10.843  13.146  1.00  0.00     0.150 C 
HETATM   13  C   UNL     1      41.300 -11.081  12.773  1.00  0.00     0.254 C 
HETATM   14  N   UNL     1      40.590  -9.742  12.497  1.00  0.00    -0.068 N 
HETATM   15  H   UNL     1      40.594  -9.211  13.377  1.00  0.00     0.280 HD
HETATM   16  C   UNL     1      41.376  -8.897  11.471  1.00  0.00     0.254 C 
HETATM   17  C   UNL     1      42.859  -8.759  11.888  1.00  0.00     0.150 C 
BRANCH  14  18
HETATM   18  C   UNL     1      39.155  -9.912  12.054  1.00  0.00     0.230 C 
HETATM   19  C   UNL     1      38.297  -8.755  12.530  1.00  0.00     0.034 C 
ENDBRANCH  14  18
ENDBRANCH   8  11
ENDBRANCH   3   5
ENDBRANCH   1   3
BRANCH   1  20
HETATM   20  N   UNL     1      43.166 -13.638   6.017  1.00  0.00    -0.298 N 
HETATM   21  C   UNL     1      42.430 -14.099   4.924  1.00  0.00     0.281 C 
HETATM   22  O   UNL     1      41.361 -13.514   4.724  1.00  0.00    -0.265 OA
HETATM   23  H   UNL     1      42.716 -12.794   6.357  1.00  0.00     0.171 HD
BRANCH  21  24
HETATM   24  C   UNL     1      42.868 -15.177   4.066  1.00  0.00     0.144 A 
HETATM   25  O   UNL     1      43.048 -16.465   4.506  1.00  0.00    -0.304 OA
HETATM   26  C   UNL     1      43.589 -17.171   3.462  1.00  0.00     0.086 A 
HETATM   27  C   UNL     1      43.743 -16.357   2.361  1.00  0.00     0.041 A 
HETATM   28  C   UNL     1      43.271 -15.087   2.743  1.00  0.00     0.046 A 
BRANCH  26  29
HETATM   29  C   UNL     1      43.925 -18.561   3.708  1.00  0.00    -0.001 A 
HETATM   30  C   UNL     1      43.974 -19.482   2.657  1.00  0.00     0.040 A 
HETATM   31  C   UNL     1      44.317 -20.818   2.898  1.00  0.00     0.056 A 
HETATM   32 CL   UNL     1      44.330 -21.898   1.547  1.00  0.00    -0.083 Cl
HETATM   33  C   UNL     1      44.632 -21.238   4.194  1.00  0.00     0.055 A 
HETATM   34 CL   UNL     1      45.061 -22.870   4.561  1.00  0.00    -0.083 Cl
HETATM   35  C   UNL     1      44.604 -20.318   5.245  1.00  0.00     0.026 A 
HETATM   36  C   UNL     1      44.254 -18.988   5.001  1.00  0.00     0.016 A 
ENDBRANCH  26  29
ENDBRANCH  21  24
ENDBRANCH   1  20
TORSDOF 7
ENDMDL
MODEL 6
REMARK VINA RESULT:      -8.5      2.743      6.556
REMARK  7 active torsions:
REMARK  status: ('A' for Active; 'I' for Inactive)
REMARK    1  A    between atoms: C_2  and  N_3 
REMARK    2  A    between atoms: N_7  and  C_8 
REMARK    3  A    between atoms: C_11  and  N_12 
REMARK    4  A    between atoms: N_12  and  C_13 
REMARK    5  A    between atoms: C_13  and  N_14 
REMARK       I    between atoms: N_14  and  C_15 
REMARK    6  A    between atoms: C_15  and  C_16 
REMARK    7  A    between atoms: C_18  and  C_19 
ROOT
HETATM    1  C   UNL     1      40.546 -12.846  -1.134  1.00  0.00     0.179 C 
HETATM    2  S   UNL     1      38.945 -12.483  -1.501  1.00  0.00    -0.040 SA
ENDROOT
BRANCH   1   3
HETATM    3  N   UNL     1      41.410 -12.082  -0.393  1.00  0.00    -0.333 N 
HETATM    4  H   UNL     1      41.693 -11.219  -0.852  1.00  0.00     0.168 HD
BRANCH   3   5
HETATM    5  C   UNL     1      41.511 -12.106   1.017  1.00  0.00     0.034 A 
HETATM    6  C   UNL     1      42.399 -12.953   1.668  1.00  0.00     0.032 A 
HETATM    7  C   UNL     1      42.447 -13.000   3.069  1.00  0.00     0.031 A 
HETATM    8  C   UNL     1      41.593 -12.229   3.876  1.00  0.00     0.030 A 
HETATM    9  C   UNL     1      40.788 -11.304   3.186  1.00  0.00     0.031 A 
HETATM   10  C   UNL     1      40.742 -11.241   1.781  1.00  0.00     0.032 A 
BRANCH   8  11
HETATM   11  N   UNL     1      41.580 -12.355   5.278  1.00  0.00    -0.378 N 
HETATM   12  C   UNL     1      42.661 -13.146   5.916  1.00  0.00     0.150 C 
HETATM   13  C   UNL     1      42.368 -14.659   5.778  1.00  0.00     0.254 C 
HETATM   14  N   UNL     1      41.000 -15.003   6.397  1.00  0.00    -0.068 N 
HETATM   15  H   UNL     1      41.064 -14.802   7.403  1.00  0.00     0.280 HD
HETATM   16  C   UNL     1      39.890 -14.086   5.839  1.00  0.00     0.254 C 
HETATM   17  C   UNL     1      40.289 -12.596   5.961  1.00  0.00     0.150 C 
BRANCH  14  18
HETATM   18  C   UNL     1      40.620 -16.456   6.228  1.00  0.00     0.230 C 
HETATM   19  C   UNL     1      41.705 -17.370   6.767  1.00  0.00     0.034 C 
ENDBRANCH  14  18
ENDBRANCH   8  11
ENDBRANCH   3   5
ENDBRANCH   1   3
BRANCH   1  20
HETATM   20  N   UNL     1      41.016 -14.037  -1.653  1.00  0.00    -0.298 N 
HETATM   21  C   UNL     1      41.080 -15.389  -1.314  1.00  0.00     0.281 C 
HETATM   22  O   UNL     1      41.043 -16.173  -2.267  1.00  0.00    -0.265 OA
HETATM   23  H   UNL     1      41.090 -13.968  -2.663  1.00  0.00     0.171 HD
BRANCH  21  24
HETATM   24  C   UNL     1      41.189 -15.865   0.047  1.00  0.00     0.144 A 
HETATM   25  O   UNL     1      42.162 -16.740   0.464  1.00  0.00    -0.304 OA
HETATM   26  C   UNL     1      41.874 -17.066   1.764  1.00  0.00     0.086 A 
HETATM   27  C   UNL     1      40.741 -16.405   2.185  1.00  0.00     0.041 A 
HETATM   28  C   UNL     1      40.311 -15.629   1.093  1.00  0.00     0.046 A 
BRANCH  26  29
HETATM   29  C   UNL     1      42.742 -18.034   2.410  1.00  0.00    -0.001 A 
HETATM   30  C   UNL     1      43.370 -17.733   3.623  1.00  0.00     0.040 A 
HETATM   31  C   UNL     1      44.191 -18.677   4.251  1.00  0.00     0.056 A 
HETATM   32 CL   UNL     1      44.950 -18.217   5.735  1.00  0.00    -0.083 Cl
HETATM   33  C   UNL     1      44.377 -19.938   3.676  1.00  0.00     0.055 A 
HETATM   34 CL   UNL     1      45.377 -21.147   4.396  1.00  0.00    -0.083 Cl
HETATM   35  C   UNL     1      43.737 -20.251   2.474  1.00  0.00     0.026 A 
HETATM   36  C   UNL     1      42.923 -19.304   1.847  1.00  0.00     0.016 A 
ENDBRANCH  26  29
ENDBRANCH  21  24
ENDBRANCH   1  20
TORSDOF 7
ENDMDL
MODEL 7
REMARK VINA RESULT:      -8.2      1.437      2.262
REMARK  7 active torsions:
REMARK  status: ('A' for Active; 'I' for Inactive)
REMARK    1  A    between atoms: C_2  and  N_3 
REMARK    2  A    between atoms: N_7  and  C_8 
REMARK    3  A    between atoms: C_11  and  N_12 
REMARK    4  A    between atoms: N_12  and  C_13 
REMARK    5  A    between atoms: C_13  and  N_14 
REMARK       I    between atoms: N_14  and  C_15 
REMARK    6  A    between atoms: C_15  and  C_16 
REMARK    7  A    between atoms: C_18  and  C_19 
ROOT
HETATM    1  C   UNL     1      40.871 -12.359   3.614  1.00  0.00     0.179 C 
HETATM    2  S   UNL     1      39.271 -12.399   3.093  1.00  0.00    -0.040 SA
ENDROOT
BRANCH   1   3
HETATM    3  N   UNL     1      41.990 -12.512   2.837  1.00  0.00    -0.333 N 
HETATM    4  H   UNL     1      42.826 -12.756   3.363  1.00  0.00     0.168 HD
BRANCH   3   5
HETATM    5  C   UNL     1      41.985 -12.862   1.467  1.00  0.00     0.034 A 
HETATM    6  C   UNL     1      42.224 -11.918   0.475  1.00  0.00     0.032 A 
HETATM    7  C   UNL     1      42.163 -12.275  -0.880  1.00  0.00     0.031 A 
HETATM    8  C   UNL     1      41.833 -13.573  -1.302  1.00  0.00     0.030 A 
HETATM    9  C   UNL     1      41.709 -14.525  -0.273  1.00  0.00     0.031 A 
HETATM   10  C   UNL     1      41.780 -14.180   1.089  1.00  0.00     0.032 A 
BRANCH   8  11
HETATM   11  N   UNL     1      41.679 -13.897  -2.664  1.00  0.00    -0.378 N 
HETATM   12  C   UNL     1      41.362 -12.798  -3.609  1.00  0.00     0.150 C 
HETATM   13  C   UNL     1      39.860 -12.438  -3.524  1.00  0.00     0.254 C 
HETATM   14  N   UNL     1      38.990 -13.676  -3.813  1.00  0.00    -0.068 N 
HETATM   15  H   UNL     1      39.175 -13.955  -4.785  1.00  0.00     0.280 HD
HETATM   16  C   UNL     1      39.409 -14.869  -2.928  1.00  0.00     0.254 C 
HETATM   17  C   UNL     1      40.932 -15.123  -3.024  1.00  0.00     0.150 C 
BRANCH  14  18
HETATM   18  C   UNL     1      37.509 -13.406  -3.673  1.00  0.00     0.230 C 
HETATM   19  C   UNL     1      37.251 -12.264  -2.709  1.00  0.00     0.034 C 
ENDBRANCH  14  18
ENDBRANCH   8  11
ENDBRANCH   3   5
ENDBRANCH   1   3
BRANCH   1  20
HETATM   20  N   UNL     1      41.046 -12.161   4.970  1.00  0.00    -0.298 N 
HETATM   21  C   UNL     1      41.978 -12.438   5.969  1.00  0.00     0.281 C 
HETATM   22  O   UNL     1      42.035 -11.607   6.882  1.00  0.00    -0.265 OA
HETATM   23  H   UNL     1      40.489 -11.369   5.277  1.00  0.00     0.171 HD
BRANCH  21  24
HETATM   24  C   UNL     1      42.825 -13.609   5.968  1.00  0.00     0.144 A 
HETATM   25  O   UNL     1      42.725 -14.611   5.033  1.00  0.00    -0.304 OA
HETATM   26  C   UNL     1      43.585 -15.606   5.422  1.00  0.00     0.086 A 
HETATM   27  C   UNL     1      44.239 -15.250   6.580  1.00  0.00     0.041 A 
HETATM   28  C   UNL     1      43.764 -13.969   6.922  1.00  0.00     0.046 A 
BRANCH  26  29
HETATM   29  C   UNL     1      43.612 -16.809   4.611  1.00  0.00    -0.001 A 
HETATM   30  C   UNL     1      43.589 -16.731   3.215  1.00  0.00     0.040 A 
HETATM   31  C   UNL     1      43.634 -17.894   2.437  1.00  0.00     0.056 A 
HETATM   32 CL   UNL     1      43.576 -17.711   0.718  1.00  0.00    -0.083 Cl
HETATM   33  C   UNL     1      43.721 -19.146   3.053  1.00  0.00     0.055 A 
HETATM   34 CL   UNL     1      43.779 -20.620   2.155  1.00  0.00    -0.083 Cl
HETATM   35  C   UNL     1      43.764 -19.230   4.447  1.00  0.00     0.026 A 
HETATM   36  C   UNL     1      43.712 -18.067   5.220  1.00  0.00     0.016 A 
ENDBRANCH  26  29
ENDBRANCH  21  24
ENDBRANCH   1  20
TORSDOF 7
ENDMDL
MODEL 8
REMARK VINA RESULT:      -8.2      3.986      8.765
REMARK  7 active torsions:
REMARK  status: ('A' for Active; 'I' for Inactive)
REMARK    1  A    between atoms: C_2  and  N_3 
REMARK    2  A    between atoms: N_7  and  C_8 
REMARK    3  A    between atoms: C_11  and  N_12 
REMARK    4  A    between atoms: N_12  and  C_13 
REMARK    5  A    between atoms: C_13  and  N_14 
REMARK       I    between atoms: N_14  and  C_15 
REMARK    6  A    between atoms: C_15  and  C_16 
REMARK    7  A    between atoms: C_18  and  C_19 
ROOT
HETATM    1  C   UNL     1      40.078 -12.614   3.333  1.00  0.00     0.179 C 
HETATM    2  S   UNL     1      38.693 -12.256   2.448  1.00  0.00    -0.040 SA
ENDROOT
BRANCH   1   3
HETATM    3  N   UNL     1      40.134 -12.998   4.648  1.00  0.00    -0.333 N 
HETATM    4  H   UNL     1      40.638 -13.868   4.801  1.00  0.00     0.168 HD
BRANCH   3   5
HETATM    5  C   UNL     1      40.039 -12.123   5.754  1.00  0.00     0.034 A 
HETATM    6  C   UNL     1      40.550 -10.831   5.705  1.00  0.00     0.032 A 
HETATM    7  C   UNL     1      40.492  -9.996   6.830  1.00  0.00     0.031 A 
HETATM    8  C   UNL     1      39.952 -10.422   8.055  1.00  0.00     0.030 A 
HETATM    9  C   UNL     1      39.345 -11.691   8.035  1.00  0.00     0.031 A 
HETATM   10  C   UNL     1      39.387 -12.532   6.907  1.00  0.00     0.032 A 
BRANCH   8  11
HETATM   11  N   UNL     1      39.987  -9.611   9.205  1.00  0.00    -0.378 N 
HETATM   12  C   UNL     1      41.216  -8.821   9.464  1.00  0.00     0.150 C 
HETATM   13  C   UNL     1      42.315  -9.726  10.068  1.00  0.00     0.254 C 
HETATM   14  N   UNL     1      41.813 -10.395  11.361  1.00  0.00    -0.068 N 
HETATM   15  H   UNL     1      41.638  -9.645  12.042  1.00  0.00     0.280 HD
HETATM   16  C   UNL     1      40.461 -11.103  11.134  1.00  0.00     0.254 C 
HETATM   17  C   UNL     1      39.440 -10.148  10.472  1.00  0.00     0.150 C 
BRANCH  14  18
HETATM   18  C   UNL     1      42.817 -11.353  11.963  1.00  0.00     0.230 C 
HETATM   19  C   UNL     1      44.155 -11.258  11.253  1.00  0.00     0.034 C 
ENDBRANCH  14  18
ENDBRANCH   8  11
ENDBRANCH   3   5
ENDBRANCH   1   3
BRANCH   1  20
HETATM   20  N   UNL     1      41.269 -12.491   2.644  1.00  0.00    -0.298 N 
HETATM   21  C   UNL     1      41.993 -13.154   1.653  1.00  0.00     0.281 C 
HETATM   22  O   UNL     1      42.686 -12.429   0.932  1.00  0.00    -0.265 OA
HETATM   23  H   UNL     1      41.575 -11.523   2.655  1.00  0.00     0.171 HD
BRANCH  21  24
HETATM   24  C   UNL     1      41.959 -14.587   1.464  1.00  0.00     0.144 A 
HETATM   25  O   UNL     1      42.575 -15.474   2.313  1.00  0.00    -0.304 OA
HETATM   26  C   UNL     1      42.445 -16.718   1.751  1.00  0.00     0.086 A 
HETATM   27  C   UNL     1      41.747 -16.640   0.567  1.00  0.00     0.041 A 
HETATM   28  C   UNL     1      41.425 -15.281   0.390  1.00  0.00     0.046 A 
BRANCH  26  29
HETATM   29  C   UNL     1      43.075 -17.826   2.447  1.00  0.00    -0.001 A 
HETATM   30  C   UNL     1      43.256 -19.059   1.813  1.00  0.00     0.040 A 
HETATM   31  C   UNL     1      43.881 -20.118   2.482  1.00  0.00     0.056 A 
HETATM   32 CL   UNL     1      44.043 -21.616   1.635  1.00  0.00    -0.083 Cl
HETATM   33  C   UNL     1      44.345 -19.943   3.790  1.00  0.00     0.055 A 
HETATM   34 CL   UNL     1      45.122 -21.207   4.673  1.00  0.00    -0.083 Cl
HETATM   35  C   UNL     1      44.184 -18.708   4.422  1.00  0.00     0.026 A 
HETATM   36  C   UNL     1      43.554 -17.656   3.753  1.00  0.00     0.016 A 
ENDBRANCH  26  29
ENDBRANCH  21  24
ENDBRANCH   1  20
TORSDOF 7
ENDMDL
MODEL 9
REMARK VINA RESULT:      -8.0      1.947      2.840
REMARK  7 active torsions:
REMARK  status: ('A' for Active; 'I' for Inactive)
REMARK    1  A    between atoms: C_2  and  N_3 
REMARK    2  A    between atoms: N_7  and  C_8 
REMARK    3  A    between atoms: C_11  and  N_12 
REMARK    4  A    between atoms: N_12  and  C_13 
REMARK    5  A    between atoms: C_13  and  N_14 
REMARK       I    between atoms: N_14  and  C_15 
REMARK    6  A    between atoms: C_15  and  C_16 
REMARK    7  A    between atoms: C_18  and  C_19 
ROOT
HETATM    1  C   UNL     1      40.230 -11.213   3.219  1.00  0.00     0.179 C 
HETATM    2  S   UNL     1      38.654 -10.708   2.913  1.00  0.00    -0.040 SA
ENDROOT
BRANCH   1   3
HETATM    3  N   UNL     1      41.322 -11.020   2.414  1.00  0.00    -0.333 N 
HETATM    4  H   UNL     1      42.198 -10.927   2.924  1.00  0.00     0.168 HD
BRANCH   3   5
HETATM    5  C   UNL     1      41.420 -11.434   1.066  1.00  0.00     0.034 A 
HETATM    6  C   UNL     1      41.231 -10.544   0.015  1.00  0.00     0.032 A 
HETATM    7  C   UNL     1      41.282 -10.986  -1.315  1.00  0.00     0.031 A 
HETATM    8  C   UNL     1      41.491 -12.333  -1.652  1.00  0.00     0.030 A 
HETATM    9  C   UNL     1      41.790 -13.183  -0.570  1.00  0.00     0.031 A 
HETATM   10  C   UNL     1      41.754 -12.747   0.767  1.00  0.00     0.032 A 
BRANCH   8  11
HETATM   11  N   UNL     1      41.443 -12.783  -2.985  1.00  0.00    -0.378 N 
HETATM   12  C   UNL     1      40.424 -12.187  -3.884  1.00  0.00     0.150 C 
HETATM   13  C   UNL     1      39.040 -12.824  -3.619  1.00  0.00     0.254 C 
HETATM   14  N   UNL     1      39.103 -14.352  -3.801  1.00  0.00    -0.068 N 
HETATM   15  H   UNL     1      39.328 -14.529  -4.788  1.00  0.00     0.280 HD
HETATM   16  C   UNL     1      40.253 -14.964  -2.974  1.00  0.00     0.254 C 
HETATM   17  C   UNL     1      41.587 -14.232  -3.253  1.00  0.00     0.150 C 
BRANCH  14  18
HETATM   18  C   UNL     1      37.796 -15.042  -3.483  1.00  0.00     0.230 C 
HETATM   19  C   UNL     1      36.647 -14.415  -4.250  1.00  0.00     0.034 C 
ENDBRANCH  14  18
ENDBRANCH   8  11
ENDBRANCH   3   5
ENDBRANCH   1   3
BRANCH   1  20
HETATM   20  N   UNL     1      40.411 -11.897   4.405  1.00  0.00    -0.298 N 
HETATM   21  C   UNL     1      40.892 -13.127   4.855  1.00  0.00     0.281 C 
HETATM   22  O   UNL     1      41.413 -13.111   5.975  1.00  0.00    -0.265 OA
HETATM   23  H   UNL     1      40.471 -11.241   5.177  1.00  0.00     0.171 HD
BRANCH  21  24
HETATM   24  C   UNL     1      40.794 -14.350   4.090  1.00  0.00     0.144 A 
HETATM   25  O   UNL     1      41.711 -15.369   4.177  1.00  0.00    -0.304 OA
HETATM   26  C   UNL     1      41.371 -16.293   3.223  1.00  0.00     0.086 A 
HETATM   27  C   UNL     1      40.247 -15.886   2.538  1.00  0.00     0.041 A 
HETATM   28  C   UNL     1      39.872 -14.651   3.101  1.00  0.00     0.046 A 
BRANCH  26  29
HETATM   29  C   UNL     1      42.239 -17.448   3.083  1.00  0.00    -0.001 A 
HETATM   30  C   UNL     1      43.092 -17.832   4.123  1.00  0.00     0.040 A 
HETATM   31  C   UNL     1      43.913 -18.958   3.990  1.00  0.00     0.056 A 
HETATM   32 CL   UNL     1      44.957 -19.348   5.312  1.00  0.00    -0.083 Cl
HETATM   33  C   UNL     1      43.873 -19.720   2.818  1.00  0.00     0.055 A 
HETATM   34 CL   UNL     1      44.860 -21.118   2.588  1.00  0.00    -0.083 Cl
HETATM   35  C   UNL     1      43.009 -19.353   1.784  1.00  0.00     0.026 A 
HETATM   36  C   UNL     1      42.196 -18.225   1.918  1.00  0.00     0.016 A 
ENDBRANCH  26  29
ENDBRANCH  21  24
ENDBRANCH   1  20
TORSDOF 7
ENDMDL
MODEL 10
REMARK VINA RESULT:      -7.9      3.190      6.990
REMARK  7 active torsions:
REMARK  status: ('A' for Active; 'I' for Inactive)
REMARK    1  A    between atoms: C_2  and  N_3 
REMARK    2  A    between atoms: N_7  and  C_8 
REMARK    3  A    between atoms: C_11  and  N_12 
REMARK    4  A    between atoms: N_12  and  C_13 
REMARK    5  A    between atoms: C_13  and  N_14 
REMARK       I    between atoms: N_14  and  C_15 
REMARK    6  A    between atoms: C_15  and  C_16 
REMARK    7  A    between atoms: C_18  and  C_19 
ROOT
HETATM    1  C   UNL     1      40.864 -11.656  -1.130  1.00  0.00     0.179 C 
HETATM    2  S   UNL     1      42.429 -11.388  -1.688  1.00  0.00    -0.040 SA
ENDROOT
BRANCH   1   3
HETATM    3  N   UNL     1      40.178 -10.896  -0.218  1.00  0.00    -0.333 N 
HETATM    4  H   UNL     1      39.386 -10.394  -0.613  1.00  0.00     0.168 HD
BRANCH   3   5
HETATM    5  C   UNL     1      40.138 -11.138   1.174  1.00  0.00     0.034 A 
HETATM    6  C   UNL     1      41.261 -11.570   1.870  1.00  0.00     0.032 A 
HETATM    7  C   UNL     1      41.186 -11.854   3.241  1.00  0.00     0.031 A 
HETATM    8  C   UNL     1      39.988 -11.751   3.967  1.00  0.00     0.030 A 
HETATM    9  C   UNL     1      38.902 -11.206   3.257  1.00  0.00     0.031 A 
HETATM   10  C   UNL     1      38.970 -10.904   1.884  1.00  0.00     0.032 A 
BRANCH   8  11
HETATM   11  N   UNL     1      39.901 -12.133   5.319  1.00  0.00    -0.378 N 
HETATM   12  C   UNL     1      40.998 -11.722   6.230  1.00  0.00     0.150 C 
HETATM   13  C   UNL     1      42.221 -12.652   6.046  1.00  0.00     0.254 C 
HETATM   14  N   UNL     1      41.825 -14.120   6.292  1.00  0.00    -0.068 N 
HETATM   15  H   UNL     1      41.540 -14.195   7.277  1.00  0.00     0.280 HD
HETATM   16  C   UNL     1      40.594 -14.515   5.449  1.00  0.00     0.254 C 
HETATM   17  C   UNL     1      39.441 -13.502   5.645  1.00  0.00     0.150 C 
BRANCH  14  18
HETATM   18  C   UNL     1      42.962 -15.088   6.055  1.00  0.00     0.230 C 
HETATM   19  C   UNL     1      44.293 -14.472   6.441  1.00  0.00     0.034 C 
ENDBRANCH  14  18
ENDBRANCH   8  11
ENDBRANCH   3   5
ENDBRANCH   1   3
BRANCH   1  20
HETATM   20  N   UNL     1      40.232 -12.767  -1.652  1.00  0.00    -0.298 N 
HETATM   21  C   UNL     1      39.523 -13.887  -1.215  1.00  0.00     0.281 C 
HETATM   22  O   UNL     1      38.656 -14.299  -1.993  1.00  0.00    -0.265 OA
HETATM   23  H   UNL     1      39.971 -12.594  -2.618  1.00  0.00     0.171 HD
BRANCH  21  24
HETATM   24  C   UNL     1      39.768 -14.542   0.050  1.00  0.00     0.144 A 
HETATM   25  O   UNL     1      40.836 -15.376   0.273  1.00  0.00    -0.304 OA
HETATM   26  C   UNL     1      40.670 -15.910   1.525  1.00  0.00     0.086 A 
HETATM   27  C   UNL     1      39.522 -15.421   2.108  1.00  0.00     0.041 A 
HETATM   28  C   UNL     1      38.953 -14.537   1.171  1.00  0.00     0.046 A 
BRANCH  26  29
HETATM   29  C   UNL     1      41.657 -16.879   1.966  1.00  0.00    -0.001 A 
HETATM   30  C   UNL     1      41.698 -17.303   3.298  1.00  0.00     0.040 A 
HETATM   31  C   UNL     1      42.640 -18.251   3.714  1.00  0.00     0.056 A 
HETATM   32 CL   UNL     1      42.639 -18.703   5.383  1.00  0.00    -0.083 Cl
HETATM   33  C   UNL     1      43.540 -18.795   2.792  1.00  0.00     0.055 A 
HETATM   34 CL   UNL     1      44.729 -19.966   3.238  1.00  0.00    -0.083 Cl
HETATM   35  C   UNL     1      43.492 -18.389   1.456  1.00  0.00     0.026 A 
HETATM   36  C   UNL     1      42.555 -17.438   1.047  1.00  0.00     0.016 A 
ENDBRANCH  26  29
ENDBRANCH  21  24
ENDBRANCH   1  20
TORSDOF 7
ENDMDL
