MODEL 1
REMARK VINA RESULT:      -8.6      0.000      0.000
REMARK  9 active torsions:
REMARK  status: ('A' for Active; 'I' for Inactive)
REMARK    1  A    between atoms: C_2  and  N_3 
REMARK    2  A    between atoms: C_4  and  S_5 
REMARK    3  A    between atoms: S_5  and  C_6 
REMARK    4  A    between atoms: C_6  and  C_7 
REMARK       I    between atoms: C_7  and  N_8 
REMARK    5  A    between atoms: N_8  and  C_9 
REMARK    6  A    between atoms: C_11  and  O_12 
REMARK    7  A    between atoms: C_19  and  C_20 
REMARK    8  A    between atoms: C_23  and  S_24 
REMARK    9  A    between atoms: S_24  and  N_25 
ROOT
HETATM    1  N   UNL     1      42.339 -15.777   6.090  1.00  0.00    -0.308 N 
HETATM    2  C   UNL     1      43.375 -15.926   6.973  1.00  0.00     0.192 A 
HETATM    3  N   UNL     1      44.339 -15.090   6.687  1.00  0.00    -0.122 NA
HETATM    4  N   UNL     1      43.982 -14.435   5.543  1.00  0.00    -0.128 NA
HETATM    5  C   UNL     1      42.788 -14.857   5.159  1.00  0.00     0.164 A 
ENDROOT
BRANCH   5   6
HETATM    6  C   UNL     1      42.168 -14.457   3.893  1.00  0.00     0.012 A 
HETATM    7  C   UNL     1      42.548 -15.150   2.729  1.00  0.00     0.017 A 
HETATM    8  C   UNL     1      42.034 -14.802   1.479  1.00  0.00     0.026 A 
HETATM    9  C   UNL     1      41.115 -13.757   1.386  1.00  0.00     0.074 A 
HETATM   10  C   UNL     1      40.742 -13.037   2.524  1.00  0.00     0.026 A 
HETATM   11  C   UNL     1      41.275 -13.384   3.773  1.00  0.00     0.017 A 
BRANCH   9  12
HETATM   12  S   UNL     1      40.493 -13.273  -0.197  1.00  0.00     0.243 S 
HETATM   13  O   UNL     1      39.554 -14.269  -0.652  1.00  0.00    -0.206 OA
HETATM   14  O   UNL     1      40.136 -11.870  -0.166  1.00  0.00    -0.206 OA
BRANCH  12  15
HETATM   15  N   UNL     1      41.870 -13.374  -1.218  1.00  0.00    -0.203 NA
HETATM   16  C   UNL     1      42.644 -12.108  -1.423  1.00  0.00     0.135 C 
HETATM   17  C   UNL     1      41.977 -11.148  -2.431  1.00  0.00     0.250 C 
HETATM   18  N   UNL     1      41.637 -11.863  -3.737  1.00  0.00    -0.073 N 
HETATM   19  H   UNL     1      42.525 -12.131  -4.180  1.00  0.00     0.279 HD
HETATM   20  C   UNL     1      40.923 -10.946  -4.691  1.00  0.00     0.269 C 
HETATM   21  C   UNL     1      40.842 -13.147  -3.500  1.00  0.00     0.250 C 
HETATM   22  C   UNL     1      41.597 -14.061  -2.522  1.00  0.00     0.135 C 
ENDBRANCH  12  15
ENDBRANCH   9  12
ENDBRANCH   5   6
BRANCH   1  23
HETATM   23  C   UNL     1      41.083 -16.496   6.100  1.00  0.00     0.128 C 
HETATM   24  C   UNL     1      41.080 -17.673   5.137  1.00  0.00     0.027 C 
ENDBRANCH   1  23
BRANCH   2  25
HETATM   25  S   UNL     1      43.462 -17.074   8.258  1.00  0.00    -0.081 SA
BRANCH  25  26
HETATM   26  C   UNL     1      44.676 -18.254   7.607  1.00  0.00     0.185 C 
BRANCH  26  27
HETATM   27  C   UNL     1      44.185 -19.213   6.530  1.00  0.00     0.231 C 
HETATM   28  N   UNL     1      44.590 -18.915   5.245  1.00  0.00    -0.326 N 
HETATM   29  H   UNL     1      44.938 -17.970   5.097  1.00  0.00     0.169 HD
HETATM   30  O   UNL     1      43.527 -20.198   6.865  1.00  0.00    -0.272 OA
BRANCH  28  31
HETATM   31  C   UNL     1      44.341 -19.655   4.070  1.00  0.00     0.037 A 
HETATM   32  C   UNL     1      44.722 -20.988   3.894  1.00  0.00     0.066 A 
HETATM   33  C   UNL     1      44.431 -21.637   2.695  1.00  0.00     0.067 A 
HETATM   34  C   UNL     1      43.767 -20.983   1.665  1.00  0.00     0.036 A 
HETATM   35  C   UNL     1      43.392 -19.653   1.830  1.00  0.00     0.005 A 
HETATM   36  C   UNL     1      43.680 -18.992   3.027  1.00  0.00     0.029 A 
BRANCH  33  37
HETATM   37  O   UNL     1      44.789 -22.939   2.491  1.00  0.00    -0.361 OA
HETATM   38  H   UNL     1      45.656 -23.085   2.905  1.00  0.00     0.217 HD
ENDBRANCH  33  37
ENDBRANCH  28  31
ENDBRANCH  26  27
ENDBRANCH  25  26
ENDBRANCH   2  25
TORSDOF 9
ENDMDL
MODEL 2
REMARK VINA RESULT:      -8.3      2.297      2.922
REMARK  9 active torsions:
REMARK  status: ('A' for Active; 'I' for Inactive)
REMARK    1  A    between atoms: C_2  and  N_3 
REMARK    2  A    between atoms: C_4  and  S_5 
REMARK    3  A    between atoms: S_5  and  C_6 
REMARK    4  A    between atoms: C_6  and  C_7 
REMARK       I    between atoms: C_7  and  N_8 
REMARK    5  A    between atoms: N_8  and  C_9 
REMARK    6  A    between atoms: C_11  and  O_12 
REMARK    7  A    between atoms: C_19  and  C_20 
REMARK    8  A    between atoms: C_23  and  S_24 
REMARK    9  A    between atoms: S_24  and  N_25 
ROOT
HETATM    1  N   UNL     1      42.220 -14.778   4.121  1.00  0.00    -0.308 N 
HETATM    2  C   UNL     1      43.191 -14.671   5.081  1.00  0.00     0.192 A 
HETATM    3  N   UNL     1      44.200 -13.972   4.630  1.00  0.00    -0.122 NA
HETATM    4  N   UNL     1      43.941 -13.683   3.321  1.00  0.00    -0.128 NA
HETATM    5  C   UNL     1      42.761 -14.184   2.993  1.00  0.00     0.164 A 
ENDROOT
BRANCH   5   6
HETATM    6  C   UNL     1      42.239 -14.171   1.625  1.00  0.00     0.012 A 
HETATM    7  C   UNL     1      41.909 -12.927   1.060  1.00  0.00     0.017 A 
HETATM    8  C   UNL     1      41.368 -12.833  -0.223  1.00  0.00     0.026 A 
HETATM    9  C   UNL     1      41.164 -13.998  -0.964  1.00  0.00     0.074 A 
HETATM   10  C   UNL     1      41.460 -15.248  -0.415  1.00  0.00     0.026 A 
HETATM   11  C   UNL     1      41.989 -15.332   0.880  1.00  0.00     0.017 A 
BRANCH   9  12
HETATM   12  S   UNL     1      40.434 -13.900  -2.571  1.00  0.00     0.243 S 
HETATM   13  O   UNL     1      40.423 -12.520  -2.994  1.00  0.00    -0.206 OA
HETATM   14  O   UNL     1      40.990 -14.934  -3.417  1.00  0.00    -0.206 OA
BRANCH  12  15
HETATM   15  N   UNL     1      38.801 -14.358  -2.299  1.00  0.00    -0.203 NA
HETATM   16  C   UNL     1      37.894 -14.337  -3.490  1.00  0.00     0.135 C 
HETATM   17  C   UNL     1      37.424 -12.917  -3.869  1.00  0.00     0.250 C 
HETATM   18  N   UNL     1      36.846 -12.183  -2.661  1.00  0.00    -0.073 N 
HETATM   19  H   UNL     1      35.988 -12.676  -2.383  1.00  0.00     0.279 HD
HETATM   20  C   UNL     1      36.455 -10.774  -3.013  1.00  0.00     0.269 C 
HETATM   21  C   UNL     1      37.794 -12.212  -1.461  1.00  0.00     0.250 C 
HETATM   22  C   UNL     1      38.175 -13.664  -1.127  1.00  0.00     0.135 C 
ENDBRANCH  12  15
ENDBRANCH   9  12
ENDBRANCH   5   6
BRANCH   1  23
HETATM   23  C   UNL     1      40.942 -15.443   4.252  1.00  0.00     0.128 C 
HETATM   24  C   UNL     1      39.804 -14.471   4.520  1.00  0.00     0.027 C 
ENDBRANCH   1  23
BRANCH   2  25
HETATM   25  S   UNL     1      43.154 -15.385   6.651  1.00  0.00    -0.081 SA
BRANCH  25  26
HETATM   26  C   UNL     1      44.226 -16.830   6.417  1.00  0.00     0.185 C 
BRANCH  26  27
HETATM   27  C   UNL     1      43.671 -17.957   5.554  1.00  0.00     0.231 C 
HETATM   28  N   UNL     1      44.593 -18.592   4.748  1.00  0.00    -0.326 N 
HETATM   29  H   UNL     1      45.469 -18.097   4.601  1.00  0.00     0.169 HD
HETATM   30  O   UNL     1      42.484 -18.264   5.668  1.00  0.00    -0.272 OA
BRANCH  28  31
HETATM   31  C   UNL     1      44.377 -19.699   3.901  1.00  0.00     0.037 A 
HETATM   32  C   UNL     1      44.769 -21.004   4.210  1.00  0.00     0.066 A 
HETATM   33  C   UNL     1      44.512 -22.035   3.306  1.00  0.00     0.067 A 
HETATM   34  C   UNL     1      43.871 -21.790   2.099  1.00  0.00     0.036 A 
HETATM   35  C   UNL     1      43.486 -20.492   1.781  1.00  0.00     0.005 A 
HETATM   36  C   UNL     1      43.740 -19.450   2.677  1.00  0.00     0.029 A 
BRANCH  33  37
HETATM   37  O   UNL     1      44.881 -23.321   3.578  1.00  0.00    -0.361 OA
HETATM   38  H   UNL     1      44.655 -23.514   4.503  1.00  0.00     0.217 HD
ENDBRANCH  33  37
ENDBRANCH  28  31
ENDBRANCH  26  27
ENDBRANCH  25  26
ENDBRANCH   2  25
TORSDOF 9
ENDMDL
MODEL 3
REMARK VINA RESULT:      -8.2      1.688      2.535
REMARK  9 active torsions:
REMARK  status: ('A' for Active; 'I' for Inactive)
REMARK    1  A    between atoms: C_2  and  N_3 
REMARK    2  A    between atoms: C_4  and  S_5 
REMARK    3  A    between atoms: S_5  and  C_6 
REMARK    4  A    between atoms: C_6  and  C_7 
REMARK       I    between atoms: C_7  and  N_8 
REMARK    5  A    between atoms: N_8  and  C_9 
REMARK    6  A    between atoms: C_11  and  O_12 
REMARK    7  A    between atoms: C_19  and  C_20 
REMARK    8  A    between atoms: C_23  and  S_24 
REMARK    9  A    between atoms: S_24  and  N_25 
ROOT
HETATM    1  N   UNL     1      42.474 -15.539   4.113  1.00  0.00    -0.308 N 
HETATM    2  C   UNL     1      42.376 -16.307   5.243  1.00  0.00     0.192 A 
HETATM    3  N   UNL     1      41.536 -17.290   5.051  1.00  0.00    -0.122 NA
HETATM    4  N   UNL     1      40.996 -17.127   3.808  1.00  0.00    -0.128 NA
HETATM    5  C   UNL     1      41.535 -16.060   3.240  1.00  0.00     0.164 A 
ENDROOT
BRANCH   5   6
HETATM    6  C   UNL     1      41.079 -15.521   1.956  1.00  0.00     0.012 A 
HETATM    7  C   UNL     1      39.860 -14.821   1.934  1.00  0.00     0.017 A 
HETATM    8  C   UNL     1      39.338 -14.314   0.743  1.00  0.00     0.026 A 
HETATM    9  C   UNL     1      40.047 -14.493  -0.444  1.00  0.00     0.074 A 
HETATM   10  C   UNL     1      41.248 -15.206  -0.452  1.00  0.00     0.026 A 
HETATM   11  C   UNL     1      41.757 -15.726   0.746  1.00  0.00     0.017 A 
BRANCH   9  12
HETATM   12  S   UNL     1      39.375 -13.898  -1.967  1.00  0.00     0.243 S 
HETATM   13  O   UNL     1      40.241 -14.304  -3.049  1.00  0.00    -0.206 OA
HETATM   14  O   UNL     1      37.954 -14.173  -2.007  1.00  0.00    -0.206 OA
BRANCH  12  15
HETATM   15  N   UNL     1      39.508 -12.192  -1.827  1.00  0.00    -0.203 NA
HETATM   16  C   UNL     1      39.010 -11.385  -2.986  1.00  0.00     0.135 C 
HETATM   17  C   UNL     1      39.998 -11.356  -4.172  1.00  0.00     0.250 C 
HETATM   18  N   UNL     1      41.399 -10.954  -3.718  1.00  0.00    -0.073 N 
HETATM   19  H   UNL     1      41.351  -9.980  -3.396  1.00  0.00     0.279 HD
HETATM   20  C   UNL     1      42.376 -10.997  -4.861  1.00  0.00     0.269 C 
HETATM   21  C   UNL     1      41.887 -11.798  -2.540  1.00  0.00     0.250 C 
HETATM   22  C   UNL     1      40.867 -11.734  -1.390  1.00  0.00     0.135 C 
ENDBRANCH  12  15
ENDBRANCH   9  12
ENDBRANCH   5   6
BRANCH   1  23
HETATM   23  C   UNL     1      43.325 -14.385   3.922  1.00  0.00     0.128 C 
HETATM   24  C   UNL     1      42.607 -13.077   4.219  1.00  0.00     0.027 C 
ENDBRANCH   1  23
BRANCH   2  25
HETATM   25  S   UNL     1      43.184 -16.024   6.740  1.00  0.00    -0.081 SA
BRANCH  25  26
HETATM   26  C   UNL     1      44.546 -17.219   6.648  1.00  0.00     0.185 C 
BRANCH  26  27
HETATM   27  C   UNL     1      44.228 -18.567   6.014  1.00  0.00     0.231 C 
HETATM   28  N   UNL     1      44.460 -18.651   4.657  1.00  0.00    -0.326 N 
HETATM   29  H   UNL     1      44.558 -17.764   4.168  1.00  0.00     0.169 HD
HETATM   30  O   UNL     1      43.852 -19.490   6.737  1.00  0.00    -0.272 OA
BRANCH  28  31
HETATM   31  C   UNL     1      44.316 -19.783   3.827  1.00  0.00     0.037 A 
HETATM   32  C   UNL     1      44.733 -21.067   4.184  1.00  0.00     0.066 A 
HETATM   33  C   UNL     1      44.548 -22.126   3.295  1.00  0.00     0.067 A 
HETATM   34  C   UNL     1      43.956 -21.929   2.055  1.00  0.00     0.036 A 
HETATM   35  C   UNL     1      43.546 -20.650   1.689  1.00  0.00     0.005 A 
HETATM   36  C   UNL     1      43.729 -19.581   2.571  1.00  0.00     0.029 A 
BRANCH  33  37
HETATM   37  O   UNL     1      44.942 -23.394   3.614  1.00  0.00    -0.361 OA
HETATM   38  H   UNL     1      44.209 -24.000   3.415  1.00  0.00     0.217 HD
ENDBRANCH  33  37
ENDBRANCH  28  31
ENDBRANCH  26  27
ENDBRANCH  25  26
ENDBRANCH   2  25
TORSDOF 9
ENDMDL
MODEL 4
REMARK VINA RESULT:      -8.1      5.198      8.564
REMARK  9 active torsions:
REMARK  status: ('A' for Active; 'I' for Inactive)
REMARK    1  A    between atoms: C_2  and  N_3 
REMARK    2  A    between atoms: C_4  and  S_5 
REMARK    3  A    between atoms: S_5  and  C_6 
REMARK    4  A    between atoms: C_6  and  C_7 
REMARK       I    between atoms: C_7  and  N_8 
REMARK    5  A    between atoms: N_8  and  C_9 
REMARK    6  A    between atoms: C_11  and  O_12 
REMARK    7  A    between atoms: C_19  and  C_20 
REMARK    8  A    between atoms: C_23  and  S_24 
REMARK    9  A    between atoms: S_24  and  N_25 
ROOT
HETATM    1  N   UNL     1      40.767 -14.251   4.288  1.00  0.00    -0.308 N 
HETATM    2  C   UNL     1      40.328 -14.533   3.022  1.00  0.00     0.192 A 
HETATM    3  N   UNL     1      39.712 -13.498   2.514  1.00  0.00    -0.122 NA
HETATM    4  N   UNL     1      39.659 -12.540   3.486  1.00  0.00    -0.128 NA
HETATM    5  C   UNL     1      40.270 -12.990   4.570  1.00  0.00     0.164 A 
ENDROOT
BRANCH   5   6
HETATM    6  C   UNL     1      40.277 -12.266   5.844  1.00  0.00     0.012 A 
HETATM    7  C   UNL     1      41.311 -11.341   6.067  1.00  0.00     0.017 A 
HETATM    8  C   UNL     1      41.411 -10.642   7.270  1.00  0.00     0.026 A 
HETATM    9  C   UNL     1      40.456 -10.856   8.265  1.00  0.00     0.074 A 
HETATM   10  C   UNL     1      39.433 -11.788   8.076  1.00  0.00     0.026 A 
HETATM   11  C   UNL     1      39.351 -12.497   6.870  1.00  0.00     0.017 A 
BRANCH   9  12
HETATM   12  S   UNL     1      40.597 -10.014   9.813  1.00  0.00     0.243 S 
HETATM   13  O   UNL     1      41.655  -9.037   9.717  1.00  0.00    -0.206 OA
HETATM   14  O   UNL     1      39.279  -9.642  10.282  1.00  0.00    -0.206 OA
BRANCH  12  15
HETATM   15  N   UNL     1      41.138 -11.239  10.888  1.00  0.00    -0.203 NA
HETATM   16  C   UNL     1      40.523 -11.249  12.254  1.00  0.00     0.135 C 
HETATM   17  C   UNL     1      41.116 -10.175  13.192  1.00  0.00     0.250 C 
HETATM   18  N   UNL     1      42.641 -10.243  13.219  1.00  0.00    -0.073 N 
HETATM   19  H   UNL     1      42.901 -11.139  13.650  1.00  0.00     0.279 HD
HETATM   20  C   UNL     1      43.221  -9.152  14.076  1.00  0.00     0.269 C 
HETATM   21  C   UNL     1      43.244 -10.225  11.814  1.00  0.00     0.250 C 
HETATM   22  C   UNL     1      42.631 -11.350  10.964  1.00  0.00     0.135 C 
ENDBRANCH  12  15
ENDBRANCH   9  12
ENDBRANCH   5   6
BRANCH   1  23
HETATM   23  C   UNL     1      41.519 -15.129   5.159  1.00  0.00     0.128 C 
HETATM   24  C   UNL     1      40.620 -15.986   6.037  1.00  0.00     0.027 C 
ENDBRANCH   1  23
BRANCH   2  25
HETATM   25  S   UNL     1      40.493 -16.040   2.199  1.00  0.00    -0.081 SA
BRANCH  25  26
HETATM   26  C   UNL     1      42.126 -15.855   1.430  1.00  0.00     0.185 C 
BRANCH  26  27
HETATM   27  C   UNL     1      43.172 -16.902   1.793  1.00  0.00     0.231 C 
HETATM   28  N   UNL     1      42.701 -17.987   2.503  1.00  0.00    -0.326 N 
HETATM   29  H   UNL     1      41.791 -17.868   2.942  1.00  0.00     0.169 HD
HETATM   30  O   UNL     1      44.327 -16.752   1.392  1.00  0.00    -0.272 OA
BRANCH  28  31
HETATM   31  C   UNL     1      43.424 -19.126   2.914  1.00  0.00     0.037 A 
HETATM   32  C   UNL     1      43.605 -20.262   2.120  1.00  0.00     0.066 A 
HETATM   33  C   UNL     1      44.337 -21.341   2.615  1.00  0.00     0.067 A 
HETATM   34  C   UNL     1      44.893 -21.311   3.887  1.00  0.00     0.036 A 
HETATM   35  C   UNL     1      44.709 -20.187   4.686  1.00  0.00     0.005 A 
HETATM   36  C   UNL     1      43.976 -19.100   4.202  1.00  0.00     0.029 A 
BRANCH  33  37
HETATM   37  O   UNL     1      44.534 -22.465   1.865  1.00  0.00    -0.361 OA
HETATM   38  H   UNL     1      44.784 -22.192   0.966  1.00  0.00     0.217 HD
ENDBRANCH  33  37
ENDBRANCH  28  31
ENDBRANCH  26  27
ENDBRANCH  25  26
ENDBRANCH   2  25
TORSDOF 9
ENDMDL
MODEL 5
REMARK VINA RESULT:      -8.0      1.756      2.093
REMARK  9 active torsions:
REMARK  status: ('A' for Active; 'I' for Inactive)
REMARK    1  A    between atoms: C_2  and  N_3 
REMARK    2  A    between atoms: C_4  and  S_5 
REMARK    3  A    between atoms: S_5  and  C_6 
REMARK    4  A    between atoms: C_6  and  C_7 
REMARK       I    between atoms: C_7  and  N_8 
REMARK    5  A    between atoms: N_8  and  C_9 
REMARK    6  A    between atoms: C_11  and  O_12 
REMARK    7  A    between atoms: C_19  and  C_20 
REMARK    8  A    between atoms: C_23  and  S_24 
REMARK    9  A    between atoms: S_24  and  N_25 
ROOT
HETATM    1  N   UNL     1      42.387 -15.638   6.281  1.00  0.00    -0.308 N 
HETATM    2  C   UNL     1      43.410 -15.862   7.164  1.00  0.00     0.192 A 
HETATM    3  N   UNL     1      44.377 -15.006   6.965  1.00  0.00    -0.122 NA
HETATM    4  N   UNL     1      44.038 -14.256   5.875  1.00  0.00    -0.128 NA
HETATM    5  C   UNL     1      42.851 -14.643   5.437  1.00  0.00     0.164 A 
ENDROOT
BRANCH   5   6
HETATM    6  C   UNL     1      42.251 -14.137   4.200  1.00  0.00     0.012 A 
HETATM    7  C   UNL     1      42.843 -14.514   2.982  1.00  0.00     0.017 A 
HETATM    8  C   UNL     1      42.356 -14.041   1.763  1.00  0.00     0.026 A 
HETATM    9  C   UNL     1      41.252 -13.189   1.753  1.00  0.00     0.074 A 
HETATM   10  C   UNL     1      40.662 -12.781   2.952  1.00  0.00     0.026 A 
HETATM   11  C   UNL     1      41.168 -13.249   4.172  1.00  0.00     0.017 A 
BRANCH   9  12
HETATM   12  S   UNL     1      40.654 -12.543   0.220  1.00  0.00     0.243 S 
HETATM   13  O   UNL     1      41.023 -11.151   0.127  1.00  0.00    -0.206 OA
HETATM   14  O   UNL     1      40.965 -13.470  -0.848  1.00  0.00    -0.206 OA
BRANCH  12  15
HETATM   15  N   UNL     1      38.947 -12.602   0.397  1.00  0.00    -0.203 NA
HETATM   16  C   UNL     1      38.251 -13.773  -0.225  1.00  0.00     0.135 C 
HETATM   17  C   UNL     1      38.079 -13.633  -1.752  1.00  0.00     0.250 C 
HETATM   18  N   UNL     1      37.445 -12.293  -2.119  1.00  0.00    -0.073 N 
HETATM   19  H   UNL     1      36.487 -12.294  -1.748  1.00  0.00     0.279 HD
HETATM   20  C   UNL     1      37.345 -12.127  -3.611  1.00  0.00     0.269 C 
HETATM   21  C   UNL     1      38.179 -11.115  -1.478  1.00  0.00     0.250 C 
HETATM   22  C   UNL     1      38.265 -11.314   0.044  1.00  0.00     0.135 C 
ENDBRANCH  12  15
ENDBRANCH   9  12
ENDBRANCH   5   6
BRANCH   1  23
HETATM   23  C   UNL     1      41.133 -16.355   6.209  1.00  0.00     0.128 C 
HETATM   24  C   UNL     1      41.147 -17.448   5.152  1.00  0.00     0.027 C 
ENDBRANCH   1  23
BRANCH   2  25
HETATM   25  S   UNL     1      43.477 -17.116   8.348  1.00  0.00    -0.081 SA
BRANCH  25  26
HETATM   26  C   UNL     1      44.704 -18.236   7.619  1.00  0.00     0.185 C 
BRANCH  26  27
HETATM   27  C   UNL     1      44.197 -19.202   6.556  1.00  0.00     0.231 C 
HETATM   28  N   UNL     1      44.607 -18.931   5.267  1.00  0.00    -0.326 N 
HETATM   29  H   UNL     1      44.970 -17.995   5.105  1.00  0.00     0.169 HD
HETATM   30  O   UNL     1      43.523 -20.172   6.907  1.00  0.00    -0.272 OA
BRANCH  28  31
HETATM   31  C   UNL     1      44.345 -19.685   4.104  1.00  0.00     0.037 A 
HETATM   32  C   UNL     1      44.742 -21.013   3.932  1.00  0.00     0.066 A 
HETATM   33  C   UNL     1      44.437 -21.677   2.743  1.00  0.00     0.067 A 
HETATM   34  C   UNL     1      43.743 -21.041   1.722  1.00  0.00     0.036 A 
HETATM   35  C   UNL     1      43.353 -19.715   1.883  1.00  0.00     0.005 A 
HETATM   36  C   UNL     1      43.655 -19.040   3.069  1.00  0.00     0.029 A 
BRANCH  33  37
HETATM   37  O   UNL     1      44.809 -22.975   2.543  1.00  0.00    -0.361 OA
HETATM   38  H   UNL     1      44.299 -23.536   3.152  1.00  0.00     0.217 HD
ENDBRANCH  33  37
ENDBRANCH  28  31
ENDBRANCH  26  27
ENDBRANCH  25  26
ENDBRANCH   2  25
TORSDOF 9
ENDMDL
MODEL 6
REMARK VINA RESULT:      -7.8      4.851      7.832
REMARK  9 active torsions:
REMARK  status: ('A' for Active; 'I' for Inactive)
REMARK    1  A    between atoms: C_2  and  N_3 
REMARK    2  A    between atoms: C_4  and  S_5 
REMARK    3  A    between atoms: S_5  and  C_6 
REMARK    4  A    between atoms: C_6  and  C_7 
REMARK       I    between atoms: C_7  and  N_8 
REMARK    5  A    between atoms: N_8  and  C_9 
REMARK    6  A    between atoms: C_11  and  O_12 
REMARK    7  A    between atoms: C_19  and  C_20 
REMARK    8  A    between atoms: C_23  and  S_24 
REMARK    9  A    between atoms: S_24  and  N_25 
ROOT
HETATM    1  N   UNL     1      40.520 -14.949   3.014  1.00  0.00    -0.308 N 
HETATM    2  C   UNL     1      40.718 -16.256   2.654  1.00  0.00     0.192 A 
HETATM    3  N   UNL     1      40.913 -16.994   3.715  1.00  0.00    -0.122 NA
HETATM    4  N   UNL     1      40.936 -16.156   4.794  1.00  0.00    -0.128 NA
HETATM    5  C   UNL     1      40.725 -14.917   4.383  1.00  0.00     0.164 A 
ENDROOT
BRANCH   5   6
HETATM    6  C   UNL     1      40.821 -13.753   5.267  1.00  0.00     0.012 A 
HETATM    7  C   UNL     1      39.630 -13.248   5.819  1.00  0.00     0.017 A 
HETATM    8  C   UNL     1      39.632 -12.118   6.637  1.00  0.00     0.026 A 
HETATM    9  C   UNL     1      40.842 -11.487   6.926  1.00  0.00     0.074 A 
HETATM   10  C   UNL     1      42.036 -11.955   6.370  1.00  0.00     0.026 A 
HETATM   11  C   UNL     1      42.021 -13.081   5.536  1.00  0.00     0.017 A 
BRANCH   9  12
HETATM   12  S   UNL     1      40.856 -10.026   7.921  1.00  0.00     0.243 S 
HETATM   13  O   UNL     1      41.959  -9.192   7.509  1.00  0.00    -0.206 OA
HETATM   14  O   UNL     1      39.513  -9.493   8.014  1.00  0.00    -0.206 OA
BRANCH  12  15
HETATM   15  N   UNL     1      41.226 -10.614   9.492  1.00  0.00    -0.203 NA
HETATM   16  C   UNL     1      40.064 -11.008  10.349  1.00  0.00     0.135 C 
HETATM   17  C   UNL     1      39.341  -9.799  10.981  1.00  0.00     0.250 C 
HETATM   18  N   UNL     1      40.325  -8.874  11.692  1.00  0.00    -0.073 N 
HETATM   19  H   UNL     1      40.713  -9.392  12.490  1.00  0.00     0.279 HD
HETATM   20  C   UNL     1      39.630  -7.660  12.245  1.00  0.00     0.269 C 
HETATM   21  C   UNL     1      41.497  -8.480  10.793  1.00  0.00     0.250 C 
HETATM   22  C   UNL     1      42.186  -9.741  10.244  1.00  0.00     0.135 C 
ENDBRANCH  12  15
ENDBRANCH   9  12
ENDBRANCH   5   6
BRANCH   1  23
HETATM   23  C   UNL     1      40.238 -13.841   2.128  1.00  0.00     0.128 C 
HETATM   24  C   UNL     1      38.754 -13.519   2.052  1.00  0.00     0.027 C 
ENDBRANCH   1  23
BRANCH   2  25
HETATM   25  S   UNL     1      40.766 -16.873   1.044  1.00  0.00    -0.081 SA
BRANCH  25  26
HETATM   26  C   UNL     1      42.522 -16.680   0.634  1.00  0.00     0.185 C 
BRANCH  26  27
HETATM   27  C   UNL     1      43.505 -17.531   1.428  1.00  0.00     0.231 C 
HETATM   28  N   UNL     1      42.956 -18.619   2.074  1.00  0.00    -0.326 N 
HETATM   29  H   UNL     1      41.945 -18.605   2.186  1.00  0.00     0.169 HD
HETATM   30  O   UNL     1      44.701 -17.241   1.399  1.00  0.00    -0.272 OA
BRANCH  28  31
HETATM   31  C   UNL     1      43.631 -19.606   2.823  1.00  0.00     0.037 A 
HETATM   32  C   UNL     1      43.885 -20.898   2.358  1.00  0.00     0.066 A 
HETATM   33  C   UNL     1      44.561 -21.806   3.173  1.00  0.00     0.067 A 
HETATM   34  C   UNL     1      44.988 -21.451   4.445  1.00  0.00     0.036 A 
HETATM   35  C   UNL     1      44.731 -20.168   4.919  1.00  0.00     0.005 A 
HETATM   36  C   UNL     1      44.053 -19.250   4.112  1.00  0.00     0.029 A 
BRANCH  33  37
HETATM   37  O   UNL     1      44.826 -23.077   2.748  1.00  0.00    -0.361 OA
HETATM   38  H   UNL     1      45.790 -23.195   2.724  1.00  0.00     0.217 HD
ENDBRANCH  33  37
ENDBRANCH  28  31
ENDBRANCH  26  27
ENDBRANCH  25  26
ENDBRANCH   2  25
TORSDOF 9
ENDMDL
MODEL 7
REMARK VINA RESULT:      -7.8      1.660      2.198
REMARK  9 active torsions:
REMARK  status: ('A' for Active; 'I' for Inactive)
REMARK    1  A    between atoms: C_2  and  N_3 
REMARK    2  A    between atoms: C_4  and  S_5 
REMARK    3  A    between atoms: S_5  and  C_6 
REMARK    4  A    between atoms: C_6  and  C_7 
REMARK       I    between atoms: C_7  and  N_8 
REMARK    5  A    between atoms: N_8  and  C_9 
REMARK    6  A    between atoms: C_11  and  O_12 
REMARK    7  A    between atoms: C_19  and  C_20 
REMARK    8  A    between atoms: C_23  and  S_24 
REMARK    9  A    between atoms: S_24  and  N_25 
ROOT
HETATM    1  N   UNL     1      42.058 -14.838   5.371  1.00  0.00    -0.308 N 
HETATM    2  C   UNL     1      43.296 -14.981   5.941  1.00  0.00     0.192 A 
HETATM    3  N   UNL     1      44.198 -14.362   5.225  1.00  0.00    -0.122 NA
HETATM    4  N   UNL     1      43.571 -13.874   4.114  1.00  0.00    -0.128 NA
HETATM    5  C   UNL     1      42.285 -14.175   4.178  1.00  0.00     0.164 A 
ENDROOT
BRANCH   5   6
HETATM    6  C   UNL     1      41.348 -13.918   3.080  1.00  0.00     0.012 A 
HETATM    7  C   UNL     1      41.096 -12.579   2.733  1.00  0.00     0.017 A 
HETATM    8  C   UNL     1      40.186 -12.250   1.728  1.00  0.00     0.026 A 
HETATM    9  C   UNL     1      39.526 -13.271   1.044  1.00  0.00     0.074 A 
HETATM   10  C   UNL     1      39.741 -14.608   1.388  1.00  0.00     0.026 A 
HETATM   11  C   UNL     1      40.645 -14.928   2.410  1.00  0.00     0.017 A 
BRANCH   9  12
HETATM   12  S   UNL     1      38.335 -12.869  -0.199  1.00  0.00     0.243 S 
HETATM   13  O   UNL     1      37.582 -14.057  -0.524  1.00  0.00    -0.206 OA
HETATM   14  O   UNL     1      37.664 -11.636   0.157  1.00  0.00    -0.206 OA
BRANCH  12  15
HETATM   15  N   UNL     1      39.297 -12.490  -1.569  1.00  0.00    -0.203 NA
HETATM   16  C   UNL     1      38.565 -12.247  -2.853  1.00  0.00     0.135 C 
HETATM   17  C   UNL     1      38.107 -13.549  -3.545  1.00  0.00     0.250 C 
HETATM   18  N   UNL     1      39.263 -14.536  -3.690  1.00  0.00    -0.073 N 
HETATM   19  H   UNL     1      39.942 -14.121  -4.340  1.00  0.00     0.279 HD
HETATM   20  C   UNL     1      38.801 -15.832  -4.298  1.00  0.00     0.269 C 
HETATM   21  C   UNL     1      39.989 -14.772  -2.365  1.00  0.00     0.250 C 
HETATM   22  C   UNL     1      40.447 -13.430  -1.770  1.00  0.00     0.135 C 
ENDBRANCH  12  15
ENDBRANCH   9  12
ENDBRANCH   5   6
BRANCH   1  23
HETATM   23  C   UNL     1      40.806 -15.349   5.884  1.00  0.00     0.128 C 
HETATM   24  C   UNL     1      40.629 -16.835   5.612  1.00  0.00     0.027 C 
ENDBRANCH   1  23
BRANCH   2  25
HETATM   25  S   UNL     1      43.665 -15.884   7.364  1.00  0.00    -0.081 SA
BRANCH  25  26
HETATM   26  C   UNL     1      44.805 -17.135   6.713  1.00  0.00     0.185 C 
BRANCH  26  27
HETATM   27  C   UNL     1      44.179 -18.296   5.950  1.00  0.00     0.231 C 
HETATM   28  N   UNL     1      44.859 -18.695   4.818  1.00  0.00    -0.326 N 
HETATM   29  H   UNL     1      45.539 -18.032   4.453  1.00  0.00     0.169 HD
HETATM   30  O   UNL     1      43.169 -18.832   6.407  1.00  0.00    -0.272 OA
BRANCH  28  31
HETATM   31  C   UNL     1      44.548 -19.772   3.962  1.00  0.00     0.037 A 
HETATM   32  C   UNL     1      44.886 -21.101   4.229  1.00  0.00     0.066 A 
HETATM   33  C   UNL     1      44.535 -22.099   3.320  1.00  0.00     0.067 A 
HETATM   34  C   UNL     1      43.854 -21.798   2.148  1.00  0.00     0.036 A 
HETATM   35  C   UNL     1      43.523 -20.475   1.871  1.00  0.00     0.005 A 
HETATM   36  C   UNL     1      43.871 -19.466   2.773  1.00  0.00     0.029 A 
BRANCH  33  37
HETATM   37  O   UNL     1      44.848 -23.408   3.552  1.00  0.00    -0.361 OA
HETATM   38  H   UNL     1      44.027 -23.927   3.526  1.00  0.00     0.217 HD
ENDBRANCH  33  37
ENDBRANCH  28  31
ENDBRANCH  26  27
ENDBRANCH  25  26
ENDBRANCH   2  25
TORSDOF 9
ENDMDL
MODEL 8
REMARK VINA RESULT:      -7.7      2.294      2.997
REMARK  9 active torsions:
REMARK  status: ('A' for Active; 'I' for Inactive)
REMARK    1  A    between atoms: C_2  and  N_3 
REMARK    2  A    between atoms: C_4  and  S_5 
REMARK    3  A    between atoms: S_5  and  C_6 
REMARK    4  A    between atoms: C_6  and  C_7 
REMARK       I    between atoms: C_7  and  N_8 
REMARK    5  A    between atoms: N_8  and  C_9 
REMARK    6  A    between atoms: C_11  and  O_12 
REMARK    7  A    between atoms: C_19  and  C_20 
REMARK    8  A    between atoms: C_23  and  S_24 
REMARK    9  A    between atoms: S_24  and  N_25 
ROOT
HETATM    1  N   UNL     1      42.627 -13.349   5.136  1.00  0.00    -0.308 N 
HETATM    2  C   UNL     1      43.869 -13.755   5.546  1.00  0.00     0.192 A 
HETATM    3  N   UNL     1      44.670 -13.869   4.519  1.00  0.00    -0.122 NA
HETATM    4  N   UNL     1      43.931 -13.624   3.397  1.00  0.00    -0.128 NA
HETATM    5  C   UNL     1      42.690 -13.333   3.753  1.00  0.00     0.164 A 
ENDROOT
BRANCH   5   6
HETATM    6  C   UNL     1      41.603 -13.151   2.788  1.00  0.00     0.012 A 
HETATM    7  C   UNL     1      40.957 -14.302   2.304  1.00  0.00     0.017 A 
HETATM    8  C   UNL     1      39.940 -14.216   1.351  1.00  0.00     0.026 A 
HETATM    9  C   UNL     1      39.549 -12.962   0.883  1.00  0.00     0.074 A 
HETATM   10  C   UNL     1      40.193 -11.805   1.331  1.00  0.00     0.026 A 
HETATM   11  C   UNL     1      41.223 -11.904   2.276  1.00  0.00     0.017 A 
BRANCH   9  12
HETATM   12  S   UNL     1      38.296 -12.840  -0.359  1.00  0.00     0.243 S 
HETATM   13  O   UNL     1      37.700 -14.141  -0.548  1.00  0.00    -0.206 OA
HETATM   14  O   UNL     1      37.477 -11.674  -0.104  1.00  0.00    -0.206 OA
BRANCH  12  15
HETATM   15  N   UNL     1      39.180 -12.477  -1.786  1.00  0.00    -0.203 NA
HETATM   16  C   UNL     1      38.388 -12.367  -3.052  1.00  0.00     0.135 C 
HETATM   17  C   UNL     1      38.007 -13.739  -3.648  1.00  0.00     0.250 C 
HETATM   18  N   UNL     1      39.228 -14.646  -3.779  1.00  0.00    -0.073 N 
HETATM   19  H   UNL     1      39.852 -14.224  -4.478  1.00  0.00     0.279 HD
HETATM   20  C   UNL     1      38.844 -16.008  -4.291  1.00  0.00     0.269 C 
HETATM   21  C   UNL     1      40.014 -14.747  -2.471  1.00  0.00     0.250 C 
HETATM   22  C   UNL     1      40.390 -13.341  -1.974  1.00  0.00     0.135 C 
ENDBRANCH  12  15
ENDBRANCH   9  12
ENDBRANCH   5   6
BRANCH   1  23
HETATM   23  C   UNL     1      41.483 -13.079   5.979  1.00  0.00     0.128 C 
HETATM   24  C   UNL     1      40.469 -14.213   5.965  1.00  0.00     0.027 C 
ENDBRANCH   1  23
BRANCH   2  25
HETATM   25  S   UNL     1      44.337 -14.125   7.164  1.00  0.00    -0.081 SA
BRANCH  25  26
HETATM   26  C   UNL     1      43.701 -15.813   7.348  1.00  0.00     0.185 C 
BRANCH  26  27
HETATM   27  C   UNL     1      44.121 -16.819   6.283  1.00  0.00     0.231 C 
HETATM   28  N   UNL     1      43.315 -16.868   5.165  1.00  0.00    -0.326 N 
HETATM   29  H   UNL     1      42.395 -16.445   5.263  1.00  0.00     0.169 HD
HETATM   30  O   UNL     1      45.156 -17.465   6.451  1.00  0.00    -0.272 OA
BRANCH  28  31
HETATM   31  C   UNL     1      43.497 -17.651   4.006  1.00  0.00     0.037 A 
HETATM   32  C   UNL     1      43.499 -17.133   2.709  1.00  0.00     0.066 A 
HETATM   33  C   UNL     1      43.688 -17.988   1.623  1.00  0.00     0.067 A 
HETATM   34  C   UNL     1      43.872 -19.352   1.806  1.00  0.00     0.036 A 
HETATM   35  C   UNL     1      43.862 -19.877   3.095  1.00  0.00     0.005 A 
HETATM   36  C   UNL     1      43.673 -19.030   4.190  1.00  0.00     0.029 A 
BRANCH  33  37
HETATM   37  O   UNL     1      43.696 -17.514   0.343  1.00  0.00    -0.361 OA
HETATM   38  H   UNL     1      44.567 -17.117   0.171  1.00  0.00     0.217 HD
ENDBRANCH  33  37
ENDBRANCH  28  31
ENDBRANCH  26  27
ENDBRANCH  25  26
ENDBRANCH   2  25
TORSDOF 9
ENDMDL
MODEL 9
REMARK VINA RESULT:      -7.6      4.747      8.069
REMARK  9 active torsions:
REMARK  status: ('A' for Active; 'I' for Inactive)
REMARK    1  A    between atoms: C_2  and  N_3 
REMARK    2  A    between atoms: C_4  and  S_5 
REMARK    3  A    between atoms: S_5  and  C_6 
REMARK    4  A    between atoms: C_6  and  C_7 
REMARK       I    between atoms: C_7  and  N_8 
REMARK    5  A    between atoms: N_8  and  C_9 
REMARK    6  A    between atoms: C_11  and  O_12 
REMARK    7  A    between atoms: C_19  and  C_20 
REMARK    8  A    between atoms: C_23  and  S_24 
REMARK    9  A    between atoms: S_24  and  N_25 
ROOT
HETATM    1  N   UNL     1      41.024 -13.857   2.143  1.00  0.00    -0.308 N 
HETATM    2  C   UNL     1      40.642 -14.881   1.316  1.00  0.00     0.192 A 
HETATM    3  N   UNL     1      39.402 -15.219   1.557  1.00  0.00    -0.122 NA
HETATM    4  N   UNL     1      38.977 -14.474   2.621  1.00  0.00    -0.128 NA
HETATM    5  C   UNL     1      39.954 -13.666   2.999  1.00  0.00     0.164 A 
ENDROOT
BRANCH   5   6
HETATM    6  C   UNL     1      39.878 -12.827   4.198  1.00  0.00     0.012 A 
HETATM    7  C   UNL     1      39.955 -13.463   5.449  1.00  0.00     0.017 A 
HETATM    8  C   UNL     1      39.849 -12.739   6.638  1.00  0.00     0.026 A 
HETATM    9  C   UNL     1      39.679 -11.356   6.581  1.00  0.00     0.074 A 
HETATM   10  C   UNL     1      39.576 -10.704   5.349  1.00  0.00     0.026 A 
HETATM   11  C   UNL     1      39.667 -11.442   4.162  1.00  0.00     0.017 A 
BRANCH   9  12
HETATM   12  S   UNL     1      39.495 -10.432   8.077  1.00  0.00     0.243 S 
HETATM   13  O   UNL     1      38.485  -9.420   7.877  1.00  0.00    -0.206 OA
HETATM   14  O   UNL     1      39.426 -11.341   9.201  1.00  0.00    -0.206 OA
BRANCH  12  15
HETATM   15  N   UNL     1      40.999  -9.619   8.235  1.00  0.00    -0.203 NA
HETATM   16  C   UNL     1      42.163 -10.449   8.680  1.00  0.00     0.135 C 
HETATM   17  C   UNL     1      42.163 -10.726  10.199  1.00  0.00     0.250 C 
HETATM   18  N   UNL     1      42.005  -9.435  10.999  1.00  0.00    -0.073 N 
HETATM   19  H   UNL     1      42.846  -8.868  10.838  1.00  0.00     0.279 HD
HETATM   20  C   UNL     1      41.932  -9.714  12.475  1.00  0.00     0.269 C 
HETATM   21  C   UNL     1      40.806  -8.611  10.530  1.00  0.00     0.250 C 
HETATM   22  C   UNL     1      40.909  -8.344   9.019  1.00  0.00     0.135 C 
ENDBRANCH  12  15
ENDBRANCH   9  12
ENDBRANCH   5   6
BRANCH   1  23
HETATM   23  C   UNL     1      42.307 -13.188   2.155  1.00  0.00     0.128 C 
HETATM   24  C   UNL     1      43.209 -13.681   3.276  1.00  0.00     0.027 C 
ENDBRANCH   1  23
BRANCH   2  25
HETATM   25  S   UNL     1      41.635 -15.674   0.150  1.00  0.00    -0.081 SA
BRANCH  25  26
HETATM   26  C   UNL     1      42.048 -17.215   1.015  1.00  0.00     0.185 C 
BRANCH  26  27
HETATM   27  C   UNL     1      43.069 -17.112   2.141  1.00  0.00     0.231 C 
HETATM   28  N   UNL     1      42.586 -17.386   3.403  1.00  0.00    -0.326 N 
HETATM   29  H   UNL     1      41.574 -17.365   3.505  1.00  0.00     0.169 HD
HETATM   30  O   UNL     1      44.240 -16.857   1.859  1.00  0.00    -0.272 OA
BRANCH  28  31
HETATM   31  C   UNL     1      43.312 -17.429   4.612  1.00  0.00     0.037 A 
HETATM   32  C   UNL     1      43.154 -16.505   5.648  1.00  0.00     0.066 A 
HETATM   33  C   UNL     1      43.918 -16.630   6.808  1.00  0.00     0.067 A 
HETATM   34  C   UNL     1      44.840 -17.659   6.955  1.00  0.00     0.036 A 
HETATM   35  C   UNL     1      45.009 -18.577   5.923  1.00  0.00     0.005 A 
HETATM   36  C   UNL     1      44.250 -18.461   4.756  1.00  0.00     0.029 A 
BRANCH  33  37
HETATM   37  O   UNL     1      43.788 -15.745   7.840  1.00  0.00    -0.361 OA
HETATM   38  H   UNL     1      42.979 -15.967   8.331  1.00  0.00     0.217 HD
ENDBRANCH  33  37
ENDBRANCH  28  31
ENDBRANCH  26  27
ENDBRANCH  25  26
ENDBRANCH   2  25
TORSDOF 9
ENDMDL
MODEL 10
REMARK VINA RESULT:      -7.6      1.544      2.126
REMARK  9 active torsions:
REMARK  status: ('A' for Active; 'I' for Inactive)
REMARK    1  A    between atoms: C_2  and  N_3 
REMARK    2  A    between atoms: C_4  and  S_5 
REMARK    3  A    between atoms: S_5  and  C_6 
REMARK    4  A    between atoms: C_6  and  C_7 
REMARK       I    between atoms: C_7  and  N_8 
REMARK    5  A    between atoms: N_8  and  C_9 
REMARK    6  A    between atoms: C_11  and  O_12 
REMARK    7  A    between atoms: C_19  and  C_20 
REMARK    8  A    between atoms: C_23  and  S_24 
REMARK    9  A    between atoms: S_24  and  N_25 
ROOT
HETATM    1  N   UNL     1      42.416 -16.040   5.567  1.00  0.00    -0.308 N 
HETATM    2  C   UNL     1      42.330 -16.766   6.726  1.00  0.00     0.192 A 
HETATM    3  N   UNL     1      41.257 -17.512   6.714  1.00  0.00    -0.122 NA
HETATM    4  N   UNL     1      40.567 -17.215   5.574  1.00  0.00    -0.128 NA
HETATM    5  C   UNL     1      41.243 -16.310   4.884  1.00  0.00     0.164 A 
ENDROOT
BRANCH   5   6
HETATM    6  C   UNL     1      40.718 -15.671   3.675  1.00  0.00     0.012 A 
HETATM    7  C   UNL     1      40.186 -14.375   3.796  1.00  0.00     0.017 A 
HETATM    8  C   UNL     1      39.630 -13.714   2.700  1.00  0.00     0.026 A 
HETATM    9  C   UNL     1      39.615 -14.347   1.457  1.00  0.00     0.074 A 
HETATM   10  C   UNL     1      40.115 -15.645   1.317  1.00  0.00     0.026 A 
HETATM   11  C   UNL     1      40.657 -16.306   2.427  1.00  0.00     0.017 A 
BRANCH   9  12
HETATM   12  S   UNL     1      38.870 -13.543   0.071  1.00  0.00     0.243 S 
HETATM   13  O   UNL     1      37.505 -13.998  -0.053  1.00  0.00    -0.206 OA
HETATM   14  O   UNL     1      39.184 -12.131   0.106  1.00  0.00    -0.206 OA
BRANCH  12  15
HETATM   15  N   UNL     1      39.735 -14.173  -1.272  1.00  0.00    -0.203 NA
HETATM   16  C   UNL     1      41.030 -13.500  -1.607  1.00  0.00     0.135 C 
HETATM   17  C   UNL     1      40.841 -12.168  -2.365  1.00  0.00     0.250 C 
HETATM   18  N   UNL     1      39.924 -12.342  -3.573  1.00  0.00    -0.073 N 
HETATM   19  H   UNL     1      40.407 -12.955  -4.241  1.00  0.00     0.279 HD
HETATM   20  C   UNL     1      39.682 -11.030  -4.268  1.00  0.00     0.269 C 
HETATM   21  C   UNL     1      38.607 -13.024  -3.202  1.00  0.00     0.250 C 
HETATM   22  C   UNL     1      38.887 -14.360  -2.494  1.00  0.00     0.135 C 
ENDBRANCH  12  15
ENDBRANCH   9  12
ENDBRANCH   5   6
BRANCH   1  23
HETATM   23  C   UNL     1      43.475 -15.128   5.194  1.00  0.00     0.128 C 
HETATM   24  C   UNL     1      43.838 -15.230   3.720  1.00  0.00     0.027 C 
ENDBRANCH   1  23
BRANCH   2  25
HETATM   25  S   UNL     1      43.427 -16.696   8.055  1.00  0.00    -0.081 SA
BRANCH  25  26
HETATM   26  C   UNL     1      44.335 -18.254   7.857  1.00  0.00     0.185 C 
BRANCH  26  27
HETATM   27  C   UNL     1      44.722 -18.641   6.436  1.00  0.00     0.231 C 
HETATM   28  N   UNL     1      43.802 -19.419   5.764  1.00  0.00    -0.326 N 
HETATM   29  H   UNL     1      43.102 -19.877   6.342  1.00  0.00     0.169 HD
HETATM   30  O   UNL     1      45.771 -18.200   5.964  1.00  0.00    -0.272 OA
BRANCH  28  31
HETATM   31  C   UNL     1      43.867 -19.868   4.428  1.00  0.00     0.037 A 
HETATM   32  C   UNL     1      44.357 -21.121   4.050  1.00  0.00     0.066 A 
HETATM   33  C   UNL     1      44.381 -21.476   2.702  1.00  0.00     0.067 A 
HETATM   34  C   UNL     1      43.927 -20.604   1.720  1.00  0.00     0.036 A 
HETATM   35  C   UNL     1      43.446 -19.352   2.088  1.00  0.00     0.005 A 
HETATM   36  C   UNL     1      43.419 -18.984   3.436  1.00  0.00     0.029 A 
BRANCH  33  37
HETATM   37  O   UNL     1      44.853 -22.692   2.299  1.00  0.00    -0.361 OA
HETATM   38  H   UNL     1      44.947 -22.678   1.332  1.00  0.00     0.217 HD
ENDBRANCH  33  37
ENDBRANCH  28  31
ENDBRANCH  26  27
ENDBRANCH  25  26
ENDBRANCH   2  25
TORSDOF 9
ENDMDL
