MODEL 1
REMARK VINA RESULT:      -8.2      0.000      0.000
REMARK  4 active torsions:
REMARK  status: ('A' for Active; 'I' for Inactive)
REMARK    1  A    between atoms: C_4  and  N_5 
REMARK    2  A    between atoms: N_5  and  C_6 
REMARK    3  A    between atoms: C_6  and  C_7 
REMARK    4  A    between atoms: N_17  and  N_19 
ROOT
HETATM    1  C   UNL     1      41.794 -16.642   4.835  1.00  0.00     0.145 C 
HETATM    2  N   UNL     1      41.407 -16.922   6.088  1.00  0.00    -0.307 N 
HETATM    3  H   UNL     1      42.096 -17.398   6.667  1.00  0.00     0.182 HD
ENDROOT
BRANCH   1   4
HETATM    4  N   UNL     1      43.129 -17.036   4.490  1.00  0.00    -0.339 N 
HETATM    5  H   UNL     1      43.762 -16.263   4.318  1.00  0.00     0.167 HD
BRANCH   4   6
HETATM    6  C   UNL     1      43.710 -18.305   4.309  1.00  0.00     0.040 A 
HETATM    7  C   UNL     1      43.422 -19.065   3.162  1.00  0.00     0.036 A 
HETATM    8  C   UNL     1      44.037 -20.301   2.928  1.00  0.00    -0.060 A 
HETATM    9  C   UNL     1      43.677 -21.119   1.722  1.00  0.00     0.048 C 
HETATM   10  C   UNL     1      44.939 -20.796   3.870  1.00  0.00     0.007 A 
HETATM   11  C   UNL     1      45.240 -20.055   5.013  1.00  0.00     0.009 A 
HETATM   12  C   UNL     1      44.642 -18.804   5.238  1.00  0.00    -0.035 A 
HETATM   13  C   UNL     1      45.012 -18.040   6.482  1.00  0.00     0.050 C 
ENDBRANCH   4   6
ENDBRANCH   1   4
BRANCH   1  14
HETATM   14  C   UNL     1      40.952 -16.004   3.775  1.00  0.00     0.102 A 
HETATM   15  N   UNL     1      40.561 -14.719   4.003  1.00  0.00    -0.245 NA
HETATM   16  C   UNL     1      39.794 -14.092   3.090  1.00  0.00     0.068 A 
HETATM   17  C   UNL     1      39.403 -14.705   1.886  1.00  0.00    -0.007 A 
HETATM   18  C   UNL     1      39.368 -12.792   3.332  1.00  0.00     0.032 A 
HETATM   19  C   UNL     1      39.837 -16.013   1.649  1.00  0.00     0.016 A 
HETATM   20  C   UNL     1      38.606 -14.010   0.959  1.00  0.00     0.014 A 
HETATM   21  C   UNL     1      40.620 -16.667   2.596  1.00  0.00     0.036 A 
HETATM   22  C   UNL     1      38.193 -12.707   1.226  1.00  0.00     0.001 A 
HETATM   23  C   UNL     1      38.574 -12.096   2.415  1.00  0.00     0.002 A 
ENDBRANCH   1  14
BRANCH   2  24
HETATM   24  N   UNL     1      40.111 -16.703   6.509  1.00  0.00    -0.248 NA
HETATM   25  H   UNL     1      39.481 -17.445   6.176  1.00  0.00     0.143 HD
HETATM   26  H   UNL     1      39.778 -15.786   6.213  1.00  0.00     0.143 HD
ENDBRANCH   2  24
TORSDOF 4
ENDMDL
MODEL 2
REMARK VINA RESULT:      -8.1      2.609      3.496
REMARK  4 active torsions:
REMARK  status: ('A' for Active; 'I' for Inactive)
REMARK    1  A    between atoms: C_4  and  N_5 
REMARK    2  A    between atoms: N_5  and  C_6 
REMARK    3  A    between atoms: C_6  and  C_7 
REMARK    4  A    between atoms: N_17  and  N_19 
ROOT
HETATM    1  C   UNL     1      44.066 -17.804   6.724  1.00  0.00     0.145 C 
HETATM    2  N   UNL     1      44.434 -18.201   7.950  1.00  0.00    -0.307 N 
HETATM    3  H   UNL     1      45.193 -18.880   7.984  1.00  0.00     0.182 HD
ENDROOT
BRANCH   1   4
HETATM    4  N   UNL     1      44.802 -18.374   5.633  1.00  0.00    -0.339 N 
HETATM    5  H   UNL     1      45.805 -18.414   5.780  1.00  0.00     0.167 HD
BRANCH   4   6
HETATM    6  C   UNL     1      44.387 -18.855   4.378  1.00  0.00     0.040 A 
HETATM    7  C   UNL     1      43.996 -17.963   3.365  1.00  0.00     0.036 A 
HETATM    8  C   UNL     1      43.640 -18.414   2.087  1.00  0.00    -0.060 A 
HETATM    9  C   UNL     1      43.178 -17.447   1.037  1.00  0.00     0.048 C 
HETATM   10  C   UNL     1      43.655 -19.784   1.826  1.00  0.00     0.007 A 
HETATM   11  C   UNL     1      44.042 -20.685   2.818  1.00  0.00     0.009 A 
HETATM   12  C   UNL     1      44.422 -20.234   4.093  1.00  0.00    -0.035 A 
HETATM   13  C   UNL     1      44.845 -21.249   5.122  1.00  0.00     0.050 C 
ENDBRANCH   4   6
ENDBRANCH   1   4
BRANCH   1  14
HETATM   14  C   UNL     1      42.945 -16.865   6.402  1.00  0.00     0.102 A 
HETATM   15  N   UNL     1      43.298 -15.594   6.061  1.00  0.00    -0.245 NA
HETATM   16  C   UNL     1      42.335 -14.698   5.769  1.00  0.00     0.068 A 
HETATM   17  C   UNL     1      40.968 -15.035   5.771  1.00  0.00    -0.007 A 
HETATM   18  C   UNL     1      42.688 -13.394   5.450  1.00  0.00     0.032 A 
HETATM   19  C   UNL     1      40.621 -16.351   6.091  1.00  0.00     0.016 A 
HETATM   20  C   UNL     1      39.997 -14.069   5.454  1.00  0.00     0.014 A 
HETATM   21  C   UNL     1      41.614 -17.274   6.405  1.00  0.00     0.036 A 
HETATM   22  C   UNL     1      40.379 -12.767   5.136  1.00  0.00     0.001 A 
HETATM   23  C   UNL     1      41.727 -12.428   5.135  1.00  0.00     0.002 A 
ENDBRANCH   1  14
BRANCH   2  24
HETATM   24  N   UNL     1      43.731 -17.820   9.075  1.00  0.00    -0.248 NA
HETATM   25  H   UNL     1      43.999 -18.386   9.890  1.00  0.00     0.143 HD
HETATM   26  H   UNL     1      42.726 -17.871   8.914  1.00  0.00     0.143 HD
ENDBRANCH   2  24
TORSDOF 4
ENDMDL
MODEL 3
REMARK VINA RESULT:      -8.1      2.071      2.255
REMARK  4 active torsions:
REMARK  status: ('A' for Active; 'I' for Inactive)
REMARK    1  A    between atoms: C_4  and  N_5 
REMARK    2  A    between atoms: N_5  and  C_6 
REMARK    3  A    between atoms: C_6  and  C_7 
REMARK    4  A    between atoms: N_17  and  N_19 
ROOT
HETATM    1  C   UNL     1      42.538 -16.716   3.464  1.00  0.00     0.145 C 
HETATM    2  N   UNL     1      41.836 -16.624   4.602  1.00  0.00    -0.307 N 
HETATM    3  H   UNL     1      42.249 -17.079   5.414  1.00  0.00     0.182 HD
ENDROOT
BRANCH   1   4
HETATM    4  N   UNL     1      43.781 -17.427   3.551  1.00  0.00    -0.339 N 
HETATM    5  H   UNL     1      44.605 -16.838   3.494  1.00  0.00     0.167 HD
BRANCH   4   6
HETATM    6  C   UNL     1      44.064 -18.800   3.664  1.00  0.00     0.040 A 
HETATM    7  C   UNL     1      43.908 -19.654   2.559  1.00  0.00     0.036 A 
HETATM    8  C   UNL     1      44.245 -21.012   2.628  1.00  0.00    -0.060 A 
HETATM    9  C   UNL     1      44.023 -21.916   1.451  1.00  0.00     0.048 C 
HETATM   10  C   UNL     1      44.725 -21.529   3.831  1.00  0.00     0.007 A 
HETATM   11  C   UNL     1      44.889 -20.696   4.939  1.00  0.00     0.009 A 
HETATM   12  C   UNL     1      44.575 -19.329   4.865  1.00  0.00    -0.035 A 
HETATM   13  C   UNL     1      44.784 -18.473   6.086  1.00  0.00     0.050 C 
ENDBRANCH   4   6
ENDBRANCH   1   4
BRANCH   1  14
HETATM   14  C   UNL     1      42.123 -16.186   2.127  1.00  0.00     0.102 A 
HETATM   15  N   UNL     1      42.136 -14.832   1.981  1.00  0.00    -0.245 NA
HETATM   16  C   UNL     1      41.764 -14.292   0.804  1.00  0.00     0.068 A 
HETATM   17  C   UNL     1      41.390 -15.081  -0.301  1.00  0.00    -0.007 A 
HETATM   18  C   UNL     1      41.746 -12.911   0.660  1.00  0.00     0.032 A 
HETATM   19  C   UNL     1      41.411 -16.470  -0.148  1.00  0.00     0.016 A 
HETATM   20  C   UNL     1      41.013 -14.474  -1.512  1.00  0.00     0.014 A 
HETATM   21  C   UNL     1      41.784 -17.029   1.071  1.00  0.00     0.036 A 
HETATM   22  C   UNL     1      41.006 -13.086  -1.631  1.00  0.00     0.001 A 
HETATM   23  C   UNL     1      41.373 -12.302  -0.543  1.00  0.00     0.002 A 
ENDBRANCH   1  14
BRANCH   2  24
HETATM   24  N   UNL     1      40.571 -16.070   4.627  1.00  0.00    -0.248 NA
HETATM   25  H   UNL     1      40.524 -15.224   4.045  1.00  0.00     0.143 HD
HETATM   26  H   UNL     1      40.278 -15.868   5.582  1.00  0.00     0.143 HD
ENDBRANCH   2  24
TORSDOF 4
ENDMDL
MODEL 4
REMARK VINA RESULT:      -8.0      3.175      7.414
REMARK  4 active torsions:
REMARK  status: ('A' for Active; 'I' for Inactive)
REMARK    1  A    between atoms: C_4  and  N_5 
REMARK    2  A    between atoms: N_5  and  C_6 
REMARK    3  A    between atoms: C_6  and  C_7 
REMARK    4  A    between atoms: N_17  and  N_19 
ROOT
HETATM    1  C   UNL     1      41.308 -16.198   0.860  1.00  0.00     0.145 C 
HETATM    2  N   UNL     1      40.019 -15.955   1.133  1.00  0.00    -0.307 N 
HETATM    3  H   UNL     1      39.563 -15.267   0.535  1.00  0.00     0.182 HD
ENDROOT
BRANCH   1   4
HETATM    4  N   UNL     1      41.862 -15.472  -0.245  1.00  0.00    -0.339 N 
HETATM    5  H   UNL     1      42.861 -15.306  -0.178  1.00  0.00     0.167 HD
BRANCH   4   6
HETATM    6  C   UNL     1      41.264 -14.914  -1.390  1.00  0.00     0.040 A 
HETATM    7  C   UNL     1      40.536 -15.721  -2.280  1.00  0.00     0.036 A 
HETATM    8  C   UNL     1      39.878 -15.179  -3.391  1.00  0.00    -0.060 A 
HETATM    9  C   UNL     1      39.148 -16.066  -4.356  1.00  0.00     0.048 C 
HETATM   10  C   UNL     1      39.969 -13.807  -3.627  1.00  0.00     0.007 A 
HETATM   11  C   UNL     1      40.686 -12.990  -2.754  1.00  0.00     0.009 A 
HETATM   12  C   UNL     1      41.327 -13.527  -1.625  1.00  0.00    -0.035 A 
HETATM   13  C   UNL     1      42.075 -12.598  -0.708  1.00  0.00     0.050 C 
ENDBRANCH   4   6
ENDBRANCH   1   4
BRANCH   1  14
HETATM   14  C   UNL     1      42.212 -17.116   1.624  1.00  0.00     0.102 A 
HETATM   15  N   UNL     1      41.954 -17.250   2.955  1.00  0.00    -0.245 NA
HETATM   16  C   UNL     1      42.737 -18.055   3.700  1.00  0.00     0.068 A 
HETATM   17  C   UNL     1      43.801 -18.792   3.147  1.00  0.00    -0.007 A 
HETATM   18  C   UNL     1      42.497 -18.172   5.063  1.00  0.00     0.032 A 
HETATM   19  C   UNL     1      44.035 -18.670   1.774  1.00  0.00     0.016 A 
HETATM   20  C   UNL     1      44.589 -19.623   3.962  1.00  0.00     0.014 A 
HETATM   21  C   UNL     1      43.234 -17.830   1.005  1.00  0.00     0.036 A 
HETATM   22  C   UNL     1      44.326 -19.725   5.326  1.00  0.00     0.001 A 
HETATM   23  C   UNL     1      43.278 -18.997   5.879  1.00  0.00     0.002 A 
ENDBRANCH   1  14
BRANCH   2  24
HETATM   24  N   UNL     1      39.399 -16.497   2.241  1.00  0.00    -0.248 NA
HETATM   25  H   UNL     1      40.074 -16.670   2.997  1.00  0.00     0.143 HD
HETATM   26  H   UNL     1      38.900 -17.353   2.001  1.00  0.00     0.143 HD
ENDBRANCH   2  24
TORSDOF 4
ENDMDL
MODEL 5
REMARK VINA RESULT:      -8.0      1.774      2.613
REMARK  4 active torsions:
REMARK  status: ('A' for Active; 'I' for Inactive)
REMARK    1  A    between atoms: C_4  and  N_5 
REMARK    2  A    between atoms: N_5  and  C_6 
REMARK    3  A    between atoms: C_6  and  C_7 
REMARK    4  A    between atoms: N_17  and  N_19 
ROOT
HETATM    1  C   UNL     1      42.002 -16.896   2.720  1.00  0.00     0.145 C 
HETATM    2  N   UNL     1      41.517 -17.345   1.554  1.00  0.00    -0.307 N 
HETATM    3  H   UNL     1      42.128 -17.973   1.034  1.00  0.00     0.182 HD
ENDROOT
BRANCH   1   4
HETATM    4  N   UNL     1      43.304 -17.375   3.082  1.00  0.00    -0.339 N 
HETATM    5  H   UNL     1      44.023 -16.659   3.102  1.00  0.00     0.167 HD
BRANCH   4   6
HETATM    6  C   UNL     1      43.774 -18.667   3.379  1.00  0.00     0.040 A 
HETATM    7  C   UNL     1      43.780 -19.669   2.394  1.00  0.00     0.036 A 
HETATM    8  C   UNL     1      44.302 -20.944   2.647  1.00  0.00    -0.060 A 
HETATM    9  C   UNL     1      44.252 -22.013   1.595  1.00  0.00     0.048 C 
HETATM   10  C   UNL     1      44.806 -21.228   3.916  1.00  0.00     0.007 A 
HETATM   11  C   UNL     1      44.810 -20.246   4.907  1.00  0.00     0.009 A 
HETATM   12  C   UNL     1      44.310 -18.959   4.649  1.00  0.00    -0.035 A 
HETATM   13  C   UNL     1      44.351 -17.933   5.750  1.00  0.00     0.050 C 
ENDBRANCH   4   6
ENDBRANCH   1   4
BRANCH   1  14
HETATM   14  C   UNL     1      41.330 -15.922   3.637  1.00  0.00     0.102 A 
HETATM   15  N   UNL     1      40.834 -14.791   3.062  1.00  0.00    -0.245 NA
HETATM   16  C   UNL     1      40.226 -13.871   3.836  1.00  0.00     0.068 A 
HETATM   17  C   UNL     1      40.051 -14.049   5.221  1.00  0.00    -0.007 A 
HETATM   18  C   UNL     1      39.746 -12.702   3.260  1.00  0.00     0.032 A 
HETATM   19  C   UNL     1      40.535 -15.229   5.794  1.00  0.00     0.016 A 
HETATM   20  C   UNL     1      39.405 -13.064   5.989  1.00  0.00     0.014 A 
HETATM   21  C   UNL     1      41.176 -16.175   4.998  1.00  0.00     0.036 A 
HETATM   22  C   UNL     1      38.931 -11.901   5.386  1.00  0.00     0.001 A 
HETATM   23  C   UNL     1      39.102 -11.719   4.018  1.00  0.00     0.002 A 
ENDBRANCH   1  14
BRANCH   2  24
HETATM   24  N   UNL     1      40.330 -16.870   1.034  1.00  0.00    -0.248 NA
HETATM   25  H   UNL     1      40.464 -16.493   0.087  1.00  0.00     0.143 HD
HETATM   26  H   UNL     1      39.915 -16.168   1.646  1.00  0.00     0.143 HD
ENDBRANCH   2  24
TORSDOF 4
ENDMDL
MODEL 6
REMARK VINA RESULT:      -8.0      2.894      3.572
REMARK  4 active torsions:
REMARK  status: ('A' for Active; 'I' for Inactive)
REMARK    1  A    between atoms: C_4  and  N_5 
REMARK    2  A    between atoms: N_5  and  C_6 
REMARK    3  A    between atoms: C_6  and  C_7 
REMARK    4  A    between atoms: N_17  and  N_19 
ROOT
HETATM    1  C   UNL     1      41.707 -16.390   2.176  1.00  0.00     0.145 C 
HETATM    2  N   UNL     1      40.639 -16.988   2.722  1.00  0.00    -0.307 N 
HETATM    3  H   UNL     1      40.841 -17.678   3.445  1.00  0.00     0.182 HD
ENDROOT
BRANCH   1   4
HETATM    4  N   UNL     1      42.982 -16.789   2.695  1.00  0.00    -0.339 N 
HETATM    5  H   UNL     1      43.670 -16.045   2.732  1.00  0.00     0.167 HD
BRANCH   4   6
HETATM    6  C   UNL     1      43.464 -18.038   3.129  1.00  0.00     0.040 A 
HETATM    7  C   UNL     1      43.555 -19.118   2.233  1.00  0.00     0.036 A 
HETATM    8  C   UNL     1      44.091 -20.352   2.624  1.00  0.00    -0.060 A 
HETATM    9  C   UNL     1      44.133 -21.506   1.666  1.00  0.00     0.048 C 
HETATM   10  C   UNL     1      44.523 -20.514   3.940  1.00  0.00     0.007 A 
HETATM   11  C   UNL     1      44.443 -19.453   4.843  1.00  0.00     0.009 A 
HETATM   12  C   UNL     1      43.928 -18.208   4.447  1.00  0.00    -0.035 A 
HETATM   13  C   UNL     1      43.876 -17.093   5.458  1.00  0.00     0.050 C 
ENDBRANCH   4   6
ENDBRANCH   1   4
BRANCH   1  14
HETATM   14  C   UNL     1      41.682 -15.390   1.062  1.00  0.00     0.102 A 
HETATM   15  N   UNL     1      41.305 -15.856  -0.162  1.00  0.00    -0.245 NA
HETATM   16  C   UNL     1      41.271 -15.007  -1.208  1.00  0.00     0.068 A 
HETATM   17  C   UNL     1      41.582 -13.641  -1.079  1.00  0.00    -0.007 A 
HETATM   18  C   UNL     1      40.916 -15.484  -2.463  1.00  0.00     0.032 A 
HETATM   19  C   UNL     1      41.937 -13.169   0.188  1.00  0.00     0.016 A 
HETATM   20  C   UNL     1      41.529 -12.791  -2.198  1.00  0.00     0.014 A 
HETATM   21  C   UNL     1      41.984 -14.047   1.268  1.00  0.00     0.036 A 
HETATM   22  C   UNL     1      41.168 -13.294  -3.446  1.00  0.00     0.001 A 
HETATM   23  C   UNL     1      40.862 -14.644  -3.580  1.00  0.00     0.002 A 
ENDBRANCH   1  14
BRANCH   2  24
HETATM   24  N   UNL     1      39.365 -16.782   2.232  1.00  0.00    -0.248 NA
HETATM   25  H   UNL     1      38.795 -16.242   2.896  1.00  0.00     0.143 HD
HETATM   26  H   UNL     1      38.912 -17.666   2.002  1.00  0.00     0.143 HD
ENDBRANCH   2  24
TORSDOF 4
ENDMDL
MODEL 7
REMARK VINA RESULT:      -8.0      1.041      7.020
REMARK  4 active torsions:
REMARK  status: ('A' for Active; 'I' for Inactive)
REMARK    1  A    between atoms: C_4  and  N_5 
REMARK    2  A    between atoms: N_5  and  C_6 
REMARK    3  A    between atoms: C_6  and  C_7 
REMARK    4  A    between atoms: N_17  and  N_19 
ROOT
HETATM    1  C   UNL     1      40.799 -15.561   4.487  1.00  0.00     0.145 C 
HETATM    2  N   UNL     1      40.114 -15.667   5.634  1.00  0.00    -0.307 N 
HETATM    3  H   UNL     1      39.734 -14.797   6.003  1.00  0.00     0.182 HD
ENDROOT
BRANCH   1   4
HETATM    4  N   UNL     1      40.888 -14.242   3.930  1.00  0.00    -0.339 N 
HETATM    5  H   UNL     1      41.781 -13.786   4.076  1.00  0.00     0.167 HD
BRANCH   4   6
HETATM    6  C   UNL     1      39.944 -13.452   3.249  1.00  0.00     0.040 A 
HETATM    7  C   UNL     1      39.296 -13.942   2.103  1.00  0.00     0.036 A 
HETATM    8  C   UNL     1      38.307 -13.200   1.445  1.00  0.00    -0.060 A 
HETATM    9  C   UNL     1      37.663 -13.722   0.194  1.00  0.00     0.048 C 
HETATM   10  C   UNL     1      37.977 -11.935   1.931  1.00  0.00     0.007 A 
HETATM   11  C   UNL     1      38.608 -11.431   3.068  1.00  0.00     0.009 A 
HETATM   12  C   UNL     1      39.583 -12.184   3.744  1.00  0.00    -0.035 A 
HETATM   13  C   UNL     1      40.223 -11.599   4.974  1.00  0.00     0.050 C 
ENDBRANCH   4   6
ENDBRANCH   1   4
BRANCH   1  14
HETATM   14  C   UNL     1      41.502 -16.675   3.775  1.00  0.00     0.102 A 
HETATM   15  N   UNL     1      42.396 -17.394   4.509  1.00  0.00    -0.245 NA
HETATM   16  C   UNL     1      43.069 -18.404   3.922  1.00  0.00     0.068 A 
HETATM   17  C   UNL     1      42.859 -18.769   2.579  1.00  0.00    -0.007 A 
HETATM   18  C   UNL     1      44.003 -19.122   4.658  1.00  0.00     0.032 A 
HETATM   19  C   UNL     1      41.915 -18.043   1.846  1.00  0.00     0.016 A 
HETATM   20  C   UNL     1      43.580 -19.833   2.010  1.00  0.00     0.014 A 
HETATM   21  C   UNL     1      41.229 -16.991   2.447  1.00  0.00     0.036 A 
HETATM   22  C   UNL     1      44.510 -20.538   2.771  1.00  0.00     0.001 A 
HETATM   23  C   UNL     1      44.723 -20.181   4.098  1.00  0.00     0.002 A 
ENDBRANCH   1  14
BRANCH   2  24
HETATM   24  N   UNL     1      40.055 -16.856   6.333  1.00  0.00    -0.248 NA
HETATM   25  H   UNL     1      39.082 -17.156   6.474  1.00  0.00     0.143 HD
HETATM   26  H   UNL     1      40.543 -16.781   7.225  1.00  0.00     0.143 HD
ENDBRANCH   2  24
TORSDOF 4
ENDMDL
MODEL 8
REMARK VINA RESULT:      -8.0      1.817      7.334
REMARK  4 active torsions:
REMARK  status: ('A' for Active; 'I' for Inactive)
REMARK    1  A    between atoms: C_4  and  N_5 
REMARK    2  A    between atoms: N_5  and  C_6 
REMARK    3  A    between atoms: C_6  and  C_7 
REMARK    4  A    between atoms: N_17  and  N_19 
ROOT
HETATM    1  C   UNL     1      41.297 -16.208   2.256  1.00  0.00     0.145 C 
HETATM    2  N   UNL     1      41.337 -15.645   1.041  1.00  0.00    -0.307 N 
HETATM    3  H   UNL     1      40.585 -14.989   0.834  1.00  0.00     0.182 HD
ENDROOT
BRANCH   1   4
HETATM    4  N   UNL     1      40.215 -15.798   3.102  1.00  0.00    -0.339 N 
HETATM    5  H   UNL     1      39.474 -16.484   3.197  1.00  0.00     0.167 HD
BRANCH   4   6
HETATM    6  C   UNL     1      39.976 -14.597   3.796  1.00  0.00     0.040 A 
HETATM    7  C   UNL     1      39.544 -13.450   3.109  1.00  0.00     0.036 A 
HETATM    8  C   UNL     1      39.239 -12.261   3.786  1.00  0.00    -0.060 A 
HETATM    9  C   UNL     1      38.827 -11.034   3.027  1.00  0.00     0.048 C 
HETATM   10  C   UNL     1      39.391 -12.215   5.171  1.00  0.00     0.007 A 
HETATM   11  C   UNL     1      39.817 -13.344   5.871  1.00  0.00     0.009 A 
HETATM   12  C   UNL     1      40.101 -14.544   5.198  1.00  0.00    -0.035 A 
HETATM   13  C   UNL     1      40.544 -15.737   6.003  1.00  0.00     0.050 C 
ENDBRANCH   4   6
ENDBRANCH   1   4
BRANCH   1  14
HETATM   14  C   UNL     1      42.246 -17.242   2.779  1.00  0.00     0.102 A 
HETATM   15  N   UNL     1      42.324 -18.405   2.074  1.00  0.00    -0.245 NA
HETATM   16  C   UNL     1      43.153 -19.379   2.499  1.00  0.00     0.068 A 
HETATM   17  C   UNL     1      43.972 -19.229   3.633  1.00  0.00    -0.007 A 
HETATM   18  C   UNL     1      43.213 -20.578   1.800  1.00  0.00     0.032 A 
HETATM   19  C   UNL     1      43.906 -18.018   4.330  1.00  0.00     0.016 A 
HETATM   20  C   UNL     1      44.826 -20.271   4.037  1.00  0.00     0.014 A 
HETATM   21  C   UNL     1      43.041 -17.016   3.899  1.00  0.00     0.036 A 
HETATM   22  C   UNL     1      44.869 -21.463   3.317  1.00  0.00     0.001 A 
HETATM   23  C   UNL     1      44.060 -21.618   2.197  1.00  0.00     0.002 A 
ENDBRANCH   1  14
BRANCH   2  24
HETATM   24  N   UNL     1      42.256 -16.041   0.090  1.00  0.00    -0.248 NA
HETATM   25  H   UNL     1      41.920 -15.835  -0.860  1.00  0.00     0.143 HD
HETATM   26  H   UNL     1      42.481 -17.031   0.186  1.00  0.00     0.143 HD
ENDBRANCH   2  24
TORSDOF 4
ENDMDL
MODEL 9
REMARK VINA RESULT:      -7.7      1.577      2.145
REMARK  4 active torsions:
REMARK  status: ('A' for Active; 'I' for Inactive)
REMARK    1  A    between atoms: C_4  and  N_5 
REMARK    2  A    between atoms: N_5  and  C_6 
REMARK    3  A    between atoms: C_6  and  C_7 
REMARK    4  A    between atoms: N_17  and  N_19 
ROOT
HETATM    1  C   UNL     1      40.663 -15.633   5.250  1.00  0.00     0.145 C 
HETATM    2  N   UNL     1      40.325 -14.997   6.380  1.00  0.00    -0.307 N 
HETATM    3  H   UNL     1      40.283 -15.577   7.217  1.00  0.00     0.182 HD
ENDROOT
BRANCH   1   4
HETATM    4  N   UNL     1      40.936 -17.035   5.378  1.00  0.00    -0.339 N 
HETATM    5  H   UNL     1      40.154 -17.585   5.715  1.00  0.00     0.167 HD
BRANCH   4   6
HETATM    6  C   UNL     1      42.109 -17.781   5.156  1.00  0.00     0.040 A 
HETATM    7  C   UNL     1      42.406 -18.280   3.876  1.00  0.00     0.036 A 
HETATM    8  C   UNL     1      43.597 -18.970   3.616  1.00  0.00    -0.060 A 
HETATM    9  C   UNL     1      43.871 -19.537   2.254  1.00  0.00     0.048 C 
HETATM   10  C   UNL     1      44.495 -19.184   4.662  1.00  0.00     0.007 A 
HETATM   11  C   UNL     1      44.218 -18.695   5.938  1.00  0.00     0.009 A 
HETATM   12  C   UNL     1      43.036 -17.982   6.196  1.00  0.00    -0.035 A 
HETATM   13  C   UNL     1      42.794 -17.465   7.589  1.00  0.00     0.050 C 
ENDBRANCH   4   6
ENDBRANCH   1   4
BRANCH   1  14
HETATM   14  C   UNL     1      40.736 -15.024   3.884  1.00  0.00     0.102 A 
HETATM   15  N   UNL     1      39.563 -14.934   3.197  1.00  0.00    -0.245 NA
HETATM   16  C   UNL     1      39.565 -14.403   1.958  1.00  0.00     0.068 A 
HETATM   17  C   UNL     1      40.734 -13.904   1.355  1.00  0.00    -0.007 A 
HETATM   18  C   UNL     1      38.377 -14.337   1.242  1.00  0.00     0.032 A 
HETATM   19  C   UNL     1      41.925 -13.972   2.083  1.00  0.00     0.016 A 
HETATM   20  C   UNL     1      40.687 -13.353   0.062  1.00  0.00     0.014 A 
HETATM   21  C   UNL     1      41.928 -14.532   3.358  1.00  0.00     0.036 A 
HETATM   22  C   UNL     1      39.482 -13.297  -0.635  1.00  0.00     0.001 A 
HETATM   23  C   UNL     1      38.324 -13.791  -0.045  1.00  0.00     0.002 A 
ENDBRANCH   1  14
BRANCH   2  24
HETATM   24  N   UNL     1      39.922 -13.677   6.374  1.00  0.00    -0.248 NA
HETATM   25  H   UNL     1      40.606 -13.083   5.887  1.00  0.00     0.143 HD
HETATM   26  H   UNL     1      39.759 -13.338   7.321  1.00  0.00     0.143 HD
ENDBRANCH   2  24
TORSDOF 4
ENDMDL
MODEL 10
REMARK VINA RESULT:      -7.7      1.772      2.552
REMARK  4 active torsions:
REMARK  status: ('A' for Active; 'I' for Inactive)
REMARK    1  A    between atoms: C_4  and  N_5 
REMARK    2  A    between atoms: N_5  and  C_6 
REMARK    3  A    between atoms: C_6  and  C_7 
REMARK    4  A    between atoms: N_17  and  N_19 
ROOT
HETATM    1  C   UNL     1      42.469 -15.364   3.617  1.00  0.00     0.145 C 
HETATM    2  N   UNL     1      43.545 -14.613   3.891  1.00  0.00    -0.307 N 
HETATM    3  H   UNL     1      44.184 -14.995   4.587  1.00  0.00     0.182 HD
ENDROOT
BRANCH   1   4
HETATM    4  N   UNL     1      42.375 -16.607   4.326  1.00  0.00    -0.339 N 
HETATM    5  H   UNL     1      41.644 -16.634   5.028  1.00  0.00     0.167 HD
BRANCH   4   6
HETATM    6  C   UNL     1      43.141 -17.785   4.251  1.00  0.00     0.040 A 
HETATM    7  C   UNL     1      43.023 -18.643   3.144  1.00  0.00     0.036 A 
HETATM    8  C   UNL     1      43.820 -19.788   3.015  1.00  0.00    -0.060 A 
HETATM    9  C   UNL     1      43.642 -20.717   1.851  1.00  0.00     0.048 C 
HETATM   10  C   UNL     1      44.735 -20.090   4.024  1.00  0.00     0.007 A 
HETATM   11  C   UNL     1      44.868 -19.249   5.129  1.00  0.00     0.009 A 
HETATM   12  C   UNL     1      44.087 -18.088   5.248  1.00  0.00    -0.035 A 
HETATM   13  C   UNL     1      44.281 -17.208   6.455  1.00  0.00     0.050 C 
ENDBRANCH   4   6
ENDBRANCH   1   4
BRANCH   1  14
HETATM   14  C   UNL     1      41.358 -15.001   2.681  1.00  0.00     0.102 A 
HETATM   15  N   UNL     1      41.680 -14.920   1.360  1.00  0.00    -0.245 NA
HETATM   16  C   UNL     1      40.725 -14.589   0.469  1.00  0.00     0.068 A 
HETATM   17  C   UNL     1      39.390 -14.353   0.848  1.00  0.00    -0.007 A 
HETATM   18  C   UNL     1      41.055 -14.476  -0.876  1.00  0.00     0.032 A 
HETATM   19  C   UNL     1      39.066 -14.471   2.203  1.00  0.00     0.016 A 
HETATM   20  C   UNL     1      38.426 -14.015  -0.118  1.00  0.00     0.014 A 
HETATM   21  C   UNL     1      40.054 -14.801   3.126  1.00  0.00     0.036 A 
HETATM   22  C   UNL     1      38.783 -13.909  -1.461  1.00  0.00     0.001 A 
HETATM   23  C   UNL     1      40.100 -14.140  -1.841  1.00  0.00     0.002 A 
ENDBRANCH   1  14
BRANCH   2  24
HETATM   24  N   UNL     1      43.694 -13.345   3.367  1.00  0.00    -0.248 NA
HETATM   25  H   UNL     1      44.294 -12.763   3.967  1.00  0.00     0.143 HD
HETATM   26  H   UNL     1      42.789 -12.899   3.220  1.00  0.00     0.143 HD
ENDBRANCH   2  24
TORSDOF 4
ENDMDL
