MODEL 1
REMARK VINA RESULT:      -8.5      0.000      0.000
REMARK  6 active torsions:
REMARK  status: ('A' for Active; 'I' for Inactive)
REMARK    1  A    between atoms: C_8  and  N_9 
REMARK       I    between atoms: N_9  and  C_10 
REMARK    2  A    between atoms: C_10  and  C_11 
REMARK    3  A    between atoms: C_11  and  N_12 
REMARK    4  A    between atoms: N_12  and  C_15 
REMARK    5  A    between atoms: C_15  and  C_16 
REMARK    6  A    between atoms: C_15  and  C_22 
ROOT
HETATM    1  N   UNL     1      43.731 -18.124   1.922  1.00  0.00    -0.055 N 
HETATM    2  H   UNL     1      42.924 -18.704   1.688  1.00  0.00     0.278 HD
HETATM    3  H   UNL     1      44.526 -18.425   1.337  1.00  0.00     0.278 HD
ENDROOT
BRANCH   1   4
HETATM    4  C   UNL     1      43.452 -16.683   1.570  1.00  0.00     0.336 C 
BRANCH   4   5
HETATM    5  C   UNL     1      42.097 -16.522   0.881  1.00  0.00     0.248 C 
HETATM    6  N   UNL     1      41.954 -15.335   0.203  1.00  0.00    -0.322 N 
HETATM    7  H   UNL     1      42.717 -14.667   0.200  1.00  0.00     0.169 HD
HETATM    8  O   UNL     1      41.287 -17.439   0.987  1.00  0.00    -0.271 OA
BRANCH   6   9
HETATM    9  C   UNL     1      40.841 -14.918  -0.514  1.00  0.00     0.085 A 
HETATM   10  C   UNL     1      39.719 -14.424   0.131  1.00  0.00     0.052 A 
HETATM   11  C   UNL     1      39.383 -14.214   1.560  1.00  0.00     0.072 C 
HETATM   12  N   UNL     1      38.825 -14.114  -0.856  1.00  0.00    -0.280 N 
HETATM   13  H   UNL     1      37.888 -13.731  -0.763  1.00  0.00     0.189 HD
HETATM   14  N   UNL     1      39.280 -14.360  -2.084  1.00  0.00    -0.177 NA
HETATM   15  C   UNL     1      40.509 -14.862  -1.900  1.00  0.00     0.079 A 
HETATM   16  C   UNL     1      41.274 -15.258  -3.109  1.00  0.00     0.075 C 
ENDBRANCH   6   9
ENDBRANCH   4   5
ENDBRANCH   1   4
BRANCH   1  17
HETATM   17  C   UNL     1      44.152 -18.400   3.341  1.00  0.00     0.252 C 
BRANCH  17  18
HETATM   18  C   UNL     1      43.220 -17.730   4.337  1.00  0.00    -0.023 A 
HETATM   19  C   UNL     1      43.678 -16.755   5.239  1.00  0.00     0.009 A 
HETATM   20  C   UNL     1      42.807 -16.186   6.171  1.00  0.00     0.001 A 
HETATM   21  C   UNL     1      41.473 -16.585   6.217  1.00  0.00     0.000 A 
HETATM   22  C   UNL     1      41.003 -17.547   5.327  1.00  0.00     0.001 A 
HETATM   23  C   UNL     1      41.868 -18.116   4.392  1.00  0.00     0.009 A 
ENDBRANCH  17  18
BRANCH  17  24
HETATM   24  C   UNL     1      44.351 -19.888   3.610  1.00  0.00    -0.023 A 
HETATM   25  C   UNL     1      44.174 -20.796   2.549  1.00  0.00     0.009 A 
HETATM   26  C   UNL     1      44.355 -22.168   2.740  1.00  0.00     0.001 A 
HETATM   27  C   UNL     1      44.719 -22.656   3.990  1.00  0.00     0.000 A 
HETATM   28  C   UNL     1      44.910 -21.774   5.050  1.00  0.00     0.001 A 
HETATM   29  C   UNL     1      44.732 -20.400   4.864  1.00  0.00     0.009 A 
ENDBRANCH  17  24
ENDBRANCH   1  17
TORSDOF 6
ENDMDL
MODEL 2
REMARK VINA RESULT:      -8.4      3.159      4.530
REMARK  6 active torsions:
REMARK  status: ('A' for Active; 'I' for Inactive)
REMARK    1  A    between atoms: C_8  and  N_9 
REMARK       I    between atoms: N_9  and  C_10 
REMARK    2  A    between atoms: C_10  and  C_11 
REMARK    3  A    between atoms: C_11  and  N_12 
REMARK    4  A    between atoms: N_12  and  C_15 
REMARK    5  A    between atoms: C_15  and  C_16 
REMARK    6  A    between atoms: C_15  and  C_22 
ROOT
HETATM    1  N   UNL     1      42.796 -17.303   3.102  1.00  0.00    -0.055 N 
HETATM    2  H   UNL     1      42.079 -17.063   3.789  1.00  0.00     0.278 HD
HETATM    3  H   UNL     1      42.394 -17.983   2.439  1.00  0.00     0.278 HD
ENDROOT
BRANCH   1   4
HETATM    4  C   UNL     1      43.173 -16.081   2.300  1.00  0.00     0.336 C 
BRANCH   4   5
HETATM    5  C   UNL     1      43.147 -14.814   3.154  1.00  0.00     0.248 C 
HETATM    6  N   UNL     1      42.176 -14.818   4.128  1.00  0.00    -0.322 N 
HETATM    7  H   UNL     1      41.562 -15.620   4.218  1.00  0.00     0.169 HD
HETATM    8  O   UNL     1      43.972 -13.939   2.908  1.00  0.00    -0.271 OA
BRANCH   6   9
HETATM    9  C   UNL     1      41.920 -13.811   5.048  1.00  0.00     0.085 A 
HETATM   10  C   UNL     1      42.781 -13.574   6.107  1.00  0.00     0.052 A 
HETATM   11  C   UNL     1      44.049 -14.210   6.543  1.00  0.00     0.072 C 
HETATM   12  N   UNL     1      42.238 -12.534   6.808  1.00  0.00    -0.280 N 
HETATM   13  H   UNL     1      42.589 -12.087   7.650  1.00  0.00     0.189 HD
HETATM   14  N   UNL     1      41.101 -12.076   6.285  1.00  0.00    -0.177 NA
HETATM   15  C   UNL     1      40.881 -12.848   5.212  1.00  0.00     0.079 A 
HETATM   16  C   UNL     1      39.652 -12.586   4.422  1.00  0.00     0.075 C 
ENDBRANCH   6   9
ENDBRANCH   4   5
ENDBRANCH   1   4
BRANCH   1  17
HETATM   17  C   UNL     1      43.923 -18.031   3.787  1.00  0.00     0.252 C 
BRANCH  17  18
HETATM   18  C   UNL     1      43.837 -17.891   5.297  1.00  0.00    -0.023 A 
HETATM   19  C   UNL     1      44.971 -18.016   6.118  1.00  0.00     0.009 A 
HETATM   20  C   UNL     1      44.855 -17.924   7.507  1.00  0.00     0.001 A 
HETATM   21  C   UNL     1      43.610 -17.710   8.093  1.00  0.00     0.000 A 
HETATM   22  C   UNL     1      42.477 -17.580   7.293  1.00  0.00     0.001 A 
HETATM   23  C   UNL     1      42.588 -17.668   5.905  1.00  0.00     0.009 A 
ENDBRANCH  17  18
BRANCH  17  24
HETATM   24  C   UNL     1      44.048 -19.478   3.322  1.00  0.00    -0.023 A 
HETATM   25  C   UNL     1      44.616 -20.422   4.197  1.00  0.00     0.009 A 
HETATM   26  C   UNL     1      44.744 -21.762   3.825  1.00  0.00     0.001 A 
HETATM   27  C   UNL     1      44.302 -22.183   2.575  1.00  0.00     0.000 A 
HETATM   28  C   UNL     1      43.726 -21.268   1.699  1.00  0.00     0.001 A 
HETATM   29  C   UNL     1      43.594 -19.925   2.068  1.00  0.00     0.009 A 
ENDBRANCH  17  24
ENDBRANCH   1  17
TORSDOF 6
ENDMDL
MODEL 3
REMARK VINA RESULT:      -8.4      0.311      1.650
REMARK  6 active torsions:
REMARK  status: ('A' for Active; 'I' for Inactive)
REMARK    1  A    between atoms: C_8  and  N_9 
REMARK       I    between atoms: N_9  and  C_10 
REMARK    2  A    between atoms: C_10  and  C_11 
REMARK    3  A    between atoms: C_11  and  N_12 
REMARK    4  A    between atoms: N_12  and  C_15 
REMARK    5  A    between atoms: C_15  and  C_16 
REMARK    6  A    between atoms: C_15  and  C_22 
ROOT
HETATM    1  N   UNL     1      43.260 -18.382   1.781  1.00  0.00    -0.055 N 
HETATM    2  H   UNL     1      42.300 -18.723   1.854  1.00  0.00     0.278 HD
HETATM    3  H   UNL     1      43.781 -19.013   1.153  1.00  0.00     0.278 HD
ENDROOT
BRANCH   1   4
HETATM    4  C   UNL     1      43.277 -17.015   1.140  1.00  0.00     0.336 C 
BRANCH   4   5
HETATM    5  C   UNL     1      41.873 -16.563   0.738  1.00  0.00     0.248 C 
HETATM    6  N   UNL     1      41.858 -15.457  -0.079  1.00  0.00    -0.322 N 
HETATM    7  H   UNL     1      42.733 -15.026  -0.353  1.00  0.00     0.169 HD
HETATM    8  O   UNL     1      40.919 -17.209   1.160  1.00  0.00    -0.271 OA
BRANCH   6   9
HETATM    9  C   UNL     1      40.736 -14.829  -0.602  1.00  0.00     0.085 A 
HETATM   10  C   UNL     1      40.474 -14.847  -1.962  1.00  0.00     0.052 A 
HETATM   11  C   UNL     1      41.184 -15.440  -3.121  1.00  0.00     0.072 C 
HETATM   12  N   UNL     1      39.314 -14.144  -2.131  1.00  0.00    -0.280 N 
HETATM   13  H   UNL     1      38.816 -13.944  -2.993  1.00  0.00     0.189 HD
HETATM   14  N   UNL     1      38.802 -13.679  -0.991  1.00  0.00    -0.177 NA
HETATM   15  C   UNL     1      39.660 -14.077  -0.042  1.00  0.00     0.079 A 
HETATM   16  C   UNL     1      39.362 -13.683   1.357  1.00  0.00     0.075 C 
ENDBRANCH   6   9
ENDBRANCH   4   5
ENDBRANCH   1   4
BRANCH   1  17
HETATM   17  C   UNL     1      43.937 -18.504   3.121  1.00  0.00     0.252 C 
BRANCH  17  18
HETATM   18  C   UNL     1      43.176 -17.751   4.199  1.00  0.00    -0.023 A 
HETATM   19  C   UNL     1      43.789 -16.759   4.983  1.00  0.00     0.009 A 
HETATM   20  C   UNL     1      43.076 -16.112   5.994  1.00  0.00     0.001 A 
HETATM   21  C   UNL     1      41.747 -16.448   6.238  1.00  0.00     0.000 A 
HETATM   22  C   UNL     1      41.123 -17.426   5.467  1.00  0.00     0.001 A 
HETATM   23  C   UNL     1      41.830 -18.073   4.453  1.00  0.00     0.009 A 
ENDBRANCH  17  18
BRANCH  17  24
HETATM   24  C   UNL     1      44.232 -19.954   3.494  1.00  0.00    -0.023 A 
HETATM   25  C   UNL     1      44.146 -20.940   2.493  1.00  0.00     0.009 A 
HETATM   26  C   UNL     1      44.417 -22.279   2.779  1.00  0.00     0.001 A 
HETATM   27  C   UNL     1      44.781 -22.657   4.067  1.00  0.00     0.000 A 
HETATM   28  C   UNL     1      44.883 -21.696   5.069  1.00  0.00     0.001 A 
HETATM   29  C   UNL     1      44.615 -20.353   4.787  1.00  0.00     0.009 A 
ENDBRANCH  17  24
ENDBRANCH   1  17
TORSDOF 6
ENDMDL
MODEL 4
REMARK VINA RESULT:      -8.2      1.833      2.675
REMARK  6 active torsions:
REMARK  status: ('A' for Active; 'I' for Inactive)
REMARK    1  A    between atoms: C_8  and  N_9 
REMARK       I    between atoms: N_9  and  C_10 
REMARK    2  A    between atoms: C_10  and  C_11 
REMARK    3  A    between atoms: C_11  and  N_12 
REMARK    4  A    between atoms: N_12  and  C_15 
REMARK    5  A    between atoms: C_15  and  C_16 
REMARK    6  A    between atoms: C_15  and  C_22 
ROOT
HETATM    1  N   UNL     1      41.592 -17.933   1.654  1.00  0.00    -0.055 N 
HETATM    2  H   UNL     1      40.736 -17.813   2.197  1.00  0.00     0.278 HD
HETATM    3  H   UNL     1      41.583 -18.878   1.240  1.00  0.00     0.278 HD
ENDROOT
BRANCH   1   4
HETATM    4  C   UNL     1      41.618 -16.953   0.506  1.00  0.00     0.336 C 
BRANCH   4   5
HETATM    5  C   UNL     1      41.278 -15.536   0.966  1.00  0.00     0.248 C 
HETATM    6  N   UNL     1      39.944 -15.344   1.237  1.00  0.00    -0.322 N 
HETATM    7  H   UNL     1      39.295 -16.113   1.122  1.00  0.00     0.169 HD
HETATM    8  O   UNL     1      42.196 -14.726   1.054  1.00  0.00    -0.271 OA
BRANCH   6   9
HETATM    9  C   UNL     1      39.348 -14.168   1.673  1.00  0.00     0.085 A 
HETATM   10  C   UNL     1      38.425 -13.500   0.885  1.00  0.00     0.052 A 
HETATM   11  C   UNL     1      37.862 -13.766  -0.462  1.00  0.00     0.072 C 
HETATM   12  N   UNL     1      38.045 -12.400   1.602  1.00  0.00    -0.280 N 
HETATM   13  H   UNL     1      37.384 -11.673   1.343  1.00  0.00     0.189 HD
HETATM   14  N   UNL     1      38.641 -12.307   2.791  1.00  0.00    -0.177 NA
HETATM   15  C   UNL     1      39.450 -13.373   2.853  1.00  0.00     0.079 A 
HETATM   16  C   UNL     1      40.278 -13.534   4.075  1.00  0.00     0.075 C 
ENDBRANCH   6   9
ENDBRANCH   4   5
ENDBRANCH   1   4
BRANCH   1  17
HETATM   17  C   UNL     1      42.779 -17.915   2.580  1.00  0.00     0.252 C 
BRANCH  17  18
HETATM   18  C   UNL     1      42.443 -17.246   3.902  1.00  0.00    -0.023 A 
HETATM   19  C   UNL     1      43.257 -16.241   4.453  1.00  0.00     0.009 A 
HETATM   20  C   UNL     1      42.945 -15.673   5.689  1.00  0.00     0.001 A 
HETATM   21  C   UNL     1      41.821 -16.101   6.393  1.00  0.00     0.000 A 
HETATM   22  C   UNL     1      41.002 -17.092   5.859  1.00  0.00     0.001 A 
HETATM   23  C   UNL     1      41.308 -17.661   4.622  1.00  0.00     0.009 A 
ENDBRANCH  17  18
BRANCH  17  24
HETATM   24  C   UNL     1      43.408 -19.295   2.747  1.00  0.00    -0.023 A 
HETATM   25  C   UNL     1      43.168 -20.270   1.762  1.00  0.00     0.009 A 
HETATM   26  C   UNL     1      43.729 -21.545   1.861  1.00  0.00     0.001 A 
HETATM   27  C   UNL     1      44.542 -21.866   2.943  1.00  0.00     0.000 A 
HETATM   28  C   UNL     1      44.802 -20.913   3.922  1.00  0.00     0.001 A 
HETATM   29  C   UNL     1      44.245 -19.634   3.827  1.00  0.00     0.009 A 
ENDBRANCH  17  24
ENDBRANCH   1  17
TORSDOF 6
ENDMDL
MODEL 5
REMARK VINA RESULT:      -8.1      1.735      2.164
REMARK  6 active torsions:
REMARK  status: ('A' for Active; 'I' for Inactive)
REMARK    1  A    between atoms: C_8  and  N_9 
REMARK       I    between atoms: N_9  and  C_10 
REMARK    2  A    between atoms: C_10  and  C_11 
REMARK    3  A    between atoms: C_11  and  N_12 
REMARK    4  A    between atoms: N_12  and  C_15 
REMARK    5  A    between atoms: C_15  and  C_16 
REMARK    6  A    between atoms: C_15  and  C_22 
ROOT
HETATM    1  N   UNL     1      41.697 -17.812   1.596  1.00  0.00    -0.055 N 
HETATM    2  H   UNL     1      40.838 -17.565   2.089  1.00  0.00     0.278 HD
HETATM    3  H   UNL     1      41.611 -18.784   1.262  1.00  0.00     0.278 HD
ENDROOT
BRANCH   1   4
HETATM    4  C   UNL     1      41.861 -16.943   0.373  1.00  0.00     0.336 C 
BRANCH   4   5
HETATM    5  C   UNL     1      41.348 -15.524   0.615  1.00  0.00     0.248 C 
HETATM    6  N   UNL     1      40.007 -15.459   0.911  1.00  0.00    -0.322 N 
HETATM    7  H   UNL     1      39.462 -16.313   0.949  1.00  0.00     0.169 HD
HETATM    8  O   UNL     1      42.153 -14.601   0.533  1.00  0.00    -0.271 OA
BRANCH   6   9
HETATM    9  C   UNL     1      39.271 -14.313   1.180  1.00  0.00     0.085 A 
HETATM   10  C   UNL     1      39.283 -13.734   2.438  1.00  0.00     0.052 A 
HETATM   11  C   UNL     1      39.965 -14.084   3.707  1.00  0.00     0.072 C 
HETATM   12  N   UNL     1      38.464 -12.642   2.356  1.00  0.00    -0.280 N 
HETATM   13  H   UNL     1      38.225 -11.975   3.084  1.00  0.00     0.189 HD
HETATM   14  N   UNL     1      37.930 -12.466   1.147  1.00  0.00    -0.177 NA
HETATM   15  C   UNL     1      38.402 -13.482   0.412  1.00  0.00     0.079 A 
HETATM   16  C   UNL     1      37.957 -13.567  -1.001  1.00  0.00     0.075 C 
ENDBRANCH   6   9
ENDBRANCH   4   5
ENDBRANCH   1   4
BRANCH   1  17
HETATM   17  C   UNL     1      42.846 -17.825   2.570  1.00  0.00     0.252 C 
BRANCH  17  18
HETATM   18  C   UNL     1      42.467 -17.167   3.886  1.00  0.00    -0.023 A 
HETATM   19  C   UNL     1      43.214 -16.106   4.426  1.00  0.00     0.009 A 
HETATM   20  C   UNL     1      42.866 -15.547   5.657  1.00  0.00     0.001 A 
HETATM   21  C   UNL     1      41.773 -16.041   6.366  1.00  0.00     0.000 A 
HETATM   22  C   UNL     1      41.020 -17.089   5.842  1.00  0.00     0.001 A 
HETATM   23  C   UNL     1      41.362 -17.649   4.611  1.00  0.00     0.009 A 
ENDBRANCH  17  18
BRANCH  17  24
HETATM   24  C   UNL     1      43.445 -19.217   2.744  1.00  0.00    -0.023 A 
HETATM   25  C   UNL     1      43.165 -20.199   1.776  1.00  0.00     0.009 A 
HETATM   26  C   UNL     1      43.697 -21.486   1.882  1.00  0.00     0.001 A 
HETATM   27  C   UNL     1      44.520 -21.813   2.954  1.00  0.00     0.000 A 
HETATM   28  C   UNL     1      44.820 -20.853   3.917  1.00  0.00     0.001 A 
HETATM   29  C   UNL     1      44.291 -19.563   3.814  1.00  0.00     0.009 A 
ENDBRANCH  17  24
ENDBRANCH   1  17
TORSDOF 6
ENDMDL
MODEL 6
REMARK VINA RESULT:      -8.0      1.574      2.387
REMARK  6 active torsions:
REMARK  status: ('A' for Active; 'I' for Inactive)
REMARK    1  A    between atoms: C_8  and  N_9 
REMARK       I    between atoms: N_9  and  C_10 
REMARK    2  A    between atoms: C_10  and  C_11 
REMARK    3  A    between atoms: C_11  and  N_12 
REMARK    4  A    between atoms: N_12  and  C_15 
REMARK    5  A    between atoms: C_15  and  C_16 
REMARK    6  A    between atoms: C_15  and  C_22 
ROOT
HETATM    1  N   UNL     1      43.307 -17.080   1.007  1.00  0.00    -0.055 N 
HETATM    2  H   UNL     1      43.780 -17.668   0.319  1.00  0.00     0.278 HD
HETATM    3  H   UNL     1      43.631 -16.109   0.880  1.00  0.00     0.278 HD
ENDROOT
BRANCH   1   4
HETATM    4  C   UNL     1      41.819 -17.081   0.754  1.00  0.00     0.336 C 
BRANCH   4   5
HETATM    5  C   UNL     1      41.359 -15.783   0.090  1.00  0.00     0.248 C 
HETATM    6  N   UNL     1      41.476 -15.787  -1.280  1.00  0.00    -0.322 N 
HETATM    7  H   UNL     1      41.843 -16.607  -1.748  1.00  0.00     0.169 HD
HETATM    8  O   UNL     1      40.935 -14.887   0.814  1.00  0.00    -0.271 OA
BRANCH   6   9
HETATM    9  C   UNL     1      41.135 -14.755  -2.144  1.00  0.00     0.085 A 
HETATM   10  C   UNL     1      40.252 -14.960  -3.191  1.00  0.00     0.052 A 
HETATM   11  C   UNL     1      39.502 -16.150  -3.664  1.00  0.00     0.072 C 
HETATM   12  N   UNL     1      40.142 -13.758  -3.832  1.00  0.00    -0.280 N 
HETATM   13  H   UNL     1      39.586 -13.526  -4.650  1.00  0.00     0.189 HD
HETATM   14  N   UNL     1      40.878 -12.792  -3.282  1.00  0.00    -0.177 NA
HETATM   15  C   UNL     1      41.502 -13.380  -2.252  1.00  0.00     0.079 A 
HETATM   16  C   UNL     1      42.425 -12.545  -1.445  1.00  0.00     0.075 C 
ENDBRANCH   6   9
ENDBRANCH   4   5
ENDBRANCH   1   4
BRANCH   1  17
HETATM   17  C   UNL     1      43.753 -17.473   2.391  1.00  0.00     0.252 C 
BRANCH  17  18
HETATM   18  C   UNL     1      42.837 -16.893   3.455  1.00  0.00    -0.023 A 
HETATM   19  C   UNL     1      42.882 -15.534   3.811  1.00  0.00     0.009 A 
HETATM   20  C   UNL     1      42.056 -15.038   4.822  1.00  0.00     0.001 A 
HETATM   21  C   UNL     1      41.181 -15.889   5.492  1.00  0.00     0.000 A 
HETATM   22  C   UNL     1      41.121 -17.238   5.148  1.00  0.00     0.001 A 
HETATM   23  C   UNL     1      41.942 -17.738   4.137  1.00  0.00     0.009 A 
ENDBRANCH  17  18
BRANCH  17  24
HETATM   24  C   UNL     1      43.961 -18.977   2.531  1.00  0.00    -0.023 A 
HETATM   25  C   UNL     1      44.663 -19.462   3.650  1.00  0.00     0.009 A 
HETATM   26  C   UNL     1      44.871 -20.830   3.831  1.00  0.00     0.001 A 
HETATM   27  C   UNL     1      44.378 -21.739   2.900  1.00  0.00     0.000 A 
HETATM   28  C   UNL     1      43.670 -21.282   1.792  1.00  0.00     0.001 A 
HETATM   29  C   UNL     1      43.458 -19.912   1.608  1.00  0.00     0.009 A 
ENDBRANCH  17  24
ENDBRANCH   1  17
TORSDOF 6
ENDMDL
MODEL 7
REMARK VINA RESULT:      -7.9      1.965      4.543
REMARK  6 active torsions:
REMARK  status: ('A' for Active; 'I' for Inactive)
REMARK    1  A    between atoms: C_8  and  N_9 
REMARK       I    between atoms: N_9  and  C_10 
REMARK    2  A    between atoms: C_10  and  C_11 
REMARK    3  A    between atoms: C_11  and  N_12 
REMARK    4  A    between atoms: N_12  and  C_15 
REMARK    5  A    between atoms: C_15  and  C_16 
REMARK    6  A    between atoms: C_15  and  C_22 
ROOT
HETATM    1  N   UNL     1      41.110 -16.994   1.919  1.00  0.00    -0.055 N 
HETATM    2  H   UNL     1      40.827 -17.883   1.503  1.00  0.00     0.278 HD
HETATM    3  H   UNL     1      41.828 -16.568   1.313  1.00  0.00     0.278 HD
ENDROOT
BRANCH   1   4
HETATM    4  C   UNL     1      39.941 -16.040   1.949  1.00  0.00     0.336 C 
BRANCH   4   5
HETATM    5  C   UNL     1      39.914 -15.142   0.713  1.00  0.00     0.248 C 
HETATM    6  N   UNL     1      40.778 -15.535  -0.281  1.00  0.00    -0.322 N 
HETATM    7  H   UNL     1      41.356 -16.357  -0.144  1.00  0.00     0.169 HD
HETATM    8  O   UNL     1      39.144 -14.185   0.715  1.00  0.00    -0.271 OA
BRANCH   6   9
HETATM    9  C   UNL     1      40.966 -14.917  -1.510  1.00  0.00     0.085 A 
HETATM   10  C   UNL     1      41.621 -13.701  -1.607  1.00  0.00     0.052 A 
HETATM   11  C   UNL     1      42.235 -12.799  -0.601  1.00  0.00     0.072 C 
HETATM   12  N   UNL     1      41.629 -13.383  -2.936  1.00  0.00    -0.280 N 
HETATM   13  H   UNL     1      42.019 -12.560  -3.387  1.00  0.00     0.189 HD
HETATM   14  N   UNL     1      41.038 -14.297  -3.706  1.00  0.00    -0.177 NA
HETATM   15  C   UNL     1      40.616 -15.241  -2.855  1.00  0.00     0.079 A 
HETATM   16  C   UNL     1      39.889 -16.402  -3.427  1.00  0.00     0.075 C 
ENDBRANCH   6   9
ENDBRANCH   4   5
ENDBRANCH   1   4
BRANCH   1  17
HETATM   17  C   UNL     1      41.800 -17.253   3.233  1.00  0.00     0.252 C 
BRANCH  17  18
HETATM   18  C   UNL     1      42.782 -18.407   3.127  1.00  0.00    -0.023 A 
HETATM   19  C   UNL     1      42.857 -19.214   1.979  1.00  0.00     0.009 A 
HETATM   20  C   UNL     1      43.742 -20.293   1.926  1.00  0.00     0.001 A 
HETATM   21  C   UNL     1      44.558 -20.583   3.017  1.00  0.00     0.000 A 
HETATM   22  C   UNL     1      44.499 -19.790   4.161  1.00  0.00     0.001 A 
HETATM   23  C   UNL     1      43.619 -18.709   4.217  1.00  0.00     0.009 A 
ENDBRANCH  17  18
BRANCH  17  24
HETATM   24  C   UNL     1      42.417 -15.990   3.824  1.00  0.00    -0.023 A 
HETATM   25  C   UNL     1      42.122 -15.656   5.159  1.00  0.00     0.009 A 
HETATM   26  C   UNL     1      42.670 -14.516   5.752  1.00  0.00     0.001 A 
HETATM   27  C   UNL     1      43.524 -13.694   5.025  1.00  0.00     0.000 A 
HETATM   28  C   UNL     1      43.837 -14.013   3.707  1.00  0.00     0.001 A 
HETATM   29  C   UNL     1      43.293 -15.154   3.109  1.00  0.00     0.009 A 
ENDBRANCH  17  24
ENDBRANCH   1  17
TORSDOF 6
ENDMDL
MODEL 8
REMARK VINA RESULT:      -7.9      1.319      1.672
REMARK  6 active torsions:
REMARK  status: ('A' for Active; 'I' for Inactive)
REMARK    1  A    between atoms: C_8  and  N_9 
REMARK       I    between atoms: N_9  and  C_10 
REMARK    2  A    between atoms: C_10  and  C_11 
REMARK    3  A    between atoms: C_11  and  N_12 
REMARK    4  A    between atoms: N_12  and  C_15 
REMARK    5  A    between atoms: C_15  and  C_16 
REMARK    6  A    between atoms: C_15  and  C_22 
ROOT
HETATM    1  N   UNL     1      43.249 -17.185   2.519  1.00  0.00    -0.055 N 
HETATM    2  H   UNL     1      42.248 -17.242   2.713  1.00  0.00     0.278 HD
HETATM    3  H   UNL     1      43.433 -17.663   1.624  1.00  0.00     0.278 HD
ENDROOT
BRANCH   1   4
HETATM    4  C   UNL     1      43.659 -15.744   2.337  1.00  0.00     0.336 C 
BRANCH   4   5
HETATM    5  C   UNL     1      42.511 -14.893   1.796  1.00  0.00     0.248 C 
HETATM    6  N   UNL     1      41.824 -15.480   0.760  1.00  0.00    -0.322 N 
HETATM    7  H   UNL     1      42.104 -16.396   0.429  1.00  0.00     0.169 HD
HETATM    8  O   UNL     1      42.307 -13.803   2.321  1.00  0.00    -0.271 OA
BRANCH   6   9
HETATM    9  C   UNL     1      40.739 -14.947   0.077  1.00  0.00     0.085 A 
HETATM   10  C   UNL     1      39.502 -14.819   0.688  1.00  0.00     0.052 A 
HETATM   11  C   UNL     1      39.003 -15.155   2.044  1.00  0.00     0.072 C 
HETATM   12  N   UNL     1      38.674 -14.271  -0.251  1.00  0.00    -0.280 N 
HETATM   13  H   UNL     1      37.689 -14.035  -0.166  1.00  0.00     0.189 HD
HETATM   14  N   UNL     1      39.276 -14.028  -1.416  1.00  0.00    -0.177 NA
HETATM   15  C   UNL     1      40.538 -14.442  -1.242  1.00  0.00     0.079 A 
HETATM   16  C   UNL     1      41.463 -14.317  -2.396  1.00  0.00     0.075 C 
ENDBRANCH   6   9
ENDBRANCH   4   5
ENDBRANCH   1   4
BRANCH   1  17
HETATM   17  C   UNL     1      44.006 -17.973   3.555  1.00  0.00     0.252 C 
BRANCH  17  18
HETATM   18  C   UNL     1      43.479 -17.703   4.954  1.00  0.00    -0.023 A 
HETATM   19  C   UNL     1      42.103 -17.601   5.221  1.00  0.00     0.009 A 
HETATM   20  C   UNL     1      41.650 -17.312   6.510  1.00  0.00     0.001 A 
HETATM   21  C   UNL     1      42.561 -17.116   7.545  1.00  0.00     0.000 A 
HETATM   22  C   UNL     1      43.928 -17.218   7.298  1.00  0.00     0.001 A 
HETATM   23  C   UNL     1      44.386 -17.510   6.013  1.00  0.00     0.009 A 
ENDBRANCH  17  18
BRANCH  17  24
HETATM   24  C   UNL     1      44.079 -19.459   3.216  1.00  0.00    -0.023 A 
HETATM   25  C   UNL     1      43.525 -19.903   2.001  1.00  0.00     0.009 A 
HETATM   26  C   UNL     1      43.576 -21.250   1.638  1.00  0.00     0.001 A 
HETATM   27  C   UNL     1      44.183 -22.176   2.480  1.00  0.00     0.000 A 
HETATM   28  C   UNL     1      44.748 -21.756   3.680  1.00  0.00     0.001 A 
HETATM   29  C   UNL     1      44.702 -20.408   4.048  1.00  0.00     0.009 A 
ENDBRANCH  17  24
ENDBRANCH   1  17
TORSDOF 6
ENDMDL
MODEL 9
REMARK VINA RESULT:      -7.8      2.068      3.048
REMARK  6 active torsions:
REMARK  status: ('A' for Active; 'I' for Inactive)
REMARK    1  A    between atoms: C_8  and  N_9 
REMARK       I    between atoms: N_9  and  C_10 
REMARK    2  A    between atoms: C_10  and  C_11 
REMARK    3  A    between atoms: C_11  and  N_12 
REMARK    4  A    between atoms: N_12  and  C_15 
REMARK    5  A    between atoms: C_15  and  C_16 
REMARK    6  A    between atoms: C_15  and  C_22 
ROOT
HETATM    1  N   UNL     1      42.154 -18.019   1.756  1.00  0.00    -0.055 N 
HETATM    2  H   UNL     1      41.228 -18.045   2.184  1.00  0.00     0.278 HD
HETATM    3  H   UNL     1      42.251 -18.842   1.142  1.00  0.00     0.278 HD
ENDROOT
BRANCH   1   4
HETATM    4  C   UNL     1      42.282 -16.800   0.873  1.00  0.00     0.336 C 
BRANCH   4   5
HETATM    5  C   UNL     1      41.473 -15.623   1.416  1.00  0.00     0.248 C 
HETATM    6  N   UNL     1      42.214 -14.480   1.608  1.00  0.00    -0.322 N 
HETATM    7  H   UNL     1      43.204 -14.484   1.389  1.00  0.00     0.169 HD
HETATM    8  O   UNL     1      40.275 -15.794   1.621  1.00  0.00    -0.271 OA
BRANCH   6   9
HETATM    9  C   UNL     1      41.750 -13.262   2.084  1.00  0.00     0.085 A 
HETATM   10  C   UNL     1      41.134 -12.351   1.242  1.00  0.00     0.052 A 
HETATM   11  C   UNL     1      40.818 -12.367  -0.207  1.00  0.00     0.072 C 
HETATM   12  N   UNL     1      40.809 -11.277   2.022  1.00  0.00    -0.280 N 
HETATM   13  H   UNL     1      40.348 -10.414   1.750  1.00  0.00     0.189 HD
HETATM   14  N   UNL     1      41.159 -11.422   3.300  1.00  0.00    -0.177 NA
HETATM   15  C   UNL     1      41.746 -12.625   3.361  1.00  0.00     0.079 A 
HETATM   16  C   UNL     1      42.269 -13.064   4.679  1.00  0.00     0.075 C 
ENDBRANCH   6   9
ENDBRANCH   4   5
ENDBRANCH   1   4
BRANCH   1  17
HETATM   17  C   UNL     1      43.205 -18.189   2.821  1.00  0.00     0.252 C 
BRANCH  17  18
HETATM   18  C   UNL     1      42.747 -17.611   4.150  1.00  0.00    -0.023 A 
HETATM   19  C   UNL     1      41.420 -17.733   4.594  1.00  0.00     0.009 A 
HETATM   20  C   UNL     1      41.019 -17.157   5.800  1.00  0.00     0.001 A 
HETATM   21  C   UNL     1      41.934 -16.450   6.576  1.00  0.00     0.000 A 
HETATM   22  C   UNL     1      43.255 -16.323   6.153  1.00  0.00     0.001 A 
HETATM   23  C   UNL     1      43.661 -16.900   4.949  1.00  0.00     0.009 A 
ENDBRANCH  17  18
BRANCH  17  24
HETATM   24  C   UNL     1      43.696 -19.629   2.929  1.00  0.00    -0.023 A 
HETATM   25  C   UNL     1      43.466 -20.504   1.850  1.00  0.00     0.009 A 
HETATM   26  C   UNL     1      43.905 -21.828   1.893  1.00  0.00     0.001 A 
HETATM   27  C   UNL     1      44.585 -22.302   3.010  1.00  0.00     0.000 A 
HETATM   28  C   UNL     1      44.833 -21.450   4.083  1.00  0.00     0.001 A 
HETATM   29  C   UNL     1      44.397 -20.122   4.044  1.00  0.00     0.009 A 
ENDBRANCH  17  24
ENDBRANCH   1  17
TORSDOF 6
ENDMDL
MODEL 10
REMARK VINA RESULT:      -7.8      3.310      4.923
REMARK  6 active torsions:
REMARK  status: ('A' for Active; 'I' for Inactive)
REMARK    1  A    between atoms: C_8  and  N_9 
REMARK       I    between atoms: N_9  and  C_10 
REMARK    2  A    between atoms: C_10  and  C_11 
REMARK    3  A    between atoms: C_11  and  N_12 
REMARK    4  A    between atoms: N_12  and  C_15 
REMARK    5  A    between atoms: C_15  and  C_16 
REMARK    6  A    between atoms: C_15  and  C_22 
ROOT
HETATM    1  N   UNL     1      42.910 -17.128   3.210  1.00  0.00    -0.055 N 
HETATM    2  H   UNL     1      42.214 -16.838   3.898  1.00  0.00     0.278 HD
HETATM    3  H   UNL     1      42.451 -17.750   2.527  1.00  0.00     0.278 HD
ENDROOT
BRANCH   1   4
HETATM    4  C   UNL     1      43.409 -15.928   2.441  1.00  0.00     0.336 C 
BRANCH   4   5
HETATM    5  C   UNL     1      43.347 -14.653   3.281  1.00  0.00     0.248 C 
HETATM    6  N   UNL     1      43.048 -14.873   4.605  1.00  0.00    -0.322 N 
HETATM    7  H   UNL     1      42.893 -15.820   4.932  1.00  0.00     0.169 HD
HETATM    8  O   UNL     1      43.568 -13.585   2.720  1.00  0.00    -0.271 OA
BRANCH   6   9
HETATM    9  C   UNL     1      42.929 -13.911   5.599  1.00  0.00     0.085 A 
HETATM   10  C   UNL     1      41.802 -13.112   5.690  1.00  0.00     0.052 A 
HETATM   11  C   UNL     1      40.555 -13.026   4.891  1.00  0.00     0.072 C 
HETATM   12  N   UNL     1      42.011 -12.288   6.760  1.00  0.00    -0.280 N 
HETATM   13  H   UNL     1      41.401 -11.564   7.129  1.00  0.00     0.189 HD
HETATM   14  N   UNL     1      43.178 -12.493   7.371  1.00  0.00    -0.177 NA
HETATM   15  C   UNL     1      43.762 -13.476   6.673  1.00  0.00     0.079 A 
HETATM   16  C   UNL     1      45.110 -13.917   7.111  1.00  0.00     0.075 C 
ENDBRANCH   6   9
ENDBRANCH   4   5
ENDBRANCH   1   4
BRANCH   1  17
HETATM   17  C   UNL     1      43.956 -17.977   3.883  1.00  0.00     0.252 C 
BRANCH  17  18
HETATM   18  C   UNL     1      43.822 -17.930   5.395  1.00  0.00    -0.023 A 
HETATM   19  C   UNL     1      42.578 -17.745   6.023  1.00  0.00     0.009 A 
HETATM   20  C   UNL     1      42.491 -17.666   7.414  1.00  0.00     0.001 A 
HETATM   21  C   UNL     1      43.640 -17.765   8.195  1.00  0.00     0.000 A 
HETATM   22  C   UNL     1      44.879 -17.953   7.589  1.00  0.00     0.001 A 
HETATM   23  C   UNL     1      44.972 -18.036   6.199  1.00  0.00     0.009 A 
ENDBRANCH  17  18
BRANCH  17  24
HETATM   24  C   UNL     1      44.000 -19.396   3.326  1.00  0.00    -0.023 A 
HETATM   25  C   UNL     1      43.270 -19.687   2.159  1.00  0.00     0.009 A 
HETATM   26  C   UNL     1      43.285 -20.967   1.602  1.00  0.00     0.001 A 
HETATM   27  C   UNL     1      44.033 -21.978   2.198  1.00  0.00     0.000 A 
HETATM   28  C   UNL     1      44.772 -21.708   3.346  1.00  0.00     0.001 A 
HETATM   29  C   UNL     1      44.762 -20.427   3.906  1.00  0.00     0.009 A 
ENDBRANCH  17  24
ENDBRANCH   1  17
TORSDOF 6
ENDMDL
