MODEL 1
REMARK VINA RESULT:      -7.9      0.000      0.000
REMARK  4 active torsions:
REMARK  status: ('A' for Active; 'I' for Inactive)
REMARK    1  A    between atoms: C_5  and  C_6 
REMARK       I    between atoms: C_6  and  N_7 
REMARK    2  A    between atoms: N_7  and  C_8 
REMARK    3  A    between atoms: C_8  and  N_9 
REMARK    4  A    between atoms: N_9  and  C_10 
ROOT
HETATM    1  C   UNL     1      43.059 -17.960   1.590  1.00  0.00     0.257 C 
HETATM    2  N   UNL     1      41.709 -17.685   1.794  1.00  0.00    -0.299 N 
HETATM    3  O   UNL     1      43.821 -17.347   0.852  1.00  0.00    -0.267 OA
HETATM    4  H   UNL     1      41.241 -18.227   2.515  1.00  0.00     0.171 HD
ENDROOT
BRANCH   2   5
HETATM    5  C   UNL     1      40.878 -16.736   1.236  1.00  0.00     0.180 C 
HETATM    6  S   UNL     1      39.864 -15.676   2.037  1.00  0.00    -0.040 SA
BRANCH   5   7
HETATM    7  N   UNL     1      40.888 -16.654  -0.136  1.00  0.00    -0.318 N 
HETATM    8  H   UNL     1      40.610 -17.513  -0.595  1.00  0.00     0.170 HD
BRANCH   7   9
HETATM    9  C   UNL     1      41.208 -15.564  -0.956  1.00  0.00     0.129 A 
HETATM   10  N   UNL     1      41.748 -14.451  -0.408  1.00  0.00    -0.243 NA
HETATM   11  C   UNL     1      42.025 -13.420  -1.242  1.00  0.00     0.125 A 
HETATM   12  C   UNL     1      41.798 -13.440  -2.611  1.00  0.00    -0.044 A 
HETATM   13  C   UNL     1      42.092 -12.254  -3.473  1.00  0.00     0.049 C 
HETATM   14  C   UNL     1      41.238 -14.598  -3.149  1.00  0.00     0.012 A 
HETATM   15  C   UNL     1      40.942 -15.674  -2.315  1.00  0.00     0.051 A 
ENDBRANCH   7   9
ENDBRANCH   5   7
ENDBRANCH   2   5
BRANCH   1  16
HETATM   16  C   UNL     1      43.603 -19.081   2.408  1.00  0.00     0.032 A 
HETATM   17  C   UNL     1      43.743 -20.378   1.900  1.00  0.00     0.017 A 
HETATM   18  C   UNL     1      44.235 -21.400   2.718  1.00  0.00     0.007 A 
HETATM   19  C   UNL     1      44.591 -21.139   4.047  1.00  0.00    -0.062 A 
HETATM   20  C   UNL     1      45.138 -22.228   4.922  1.00  0.00     0.048 C 
HETATM   21  C   UNL     1      44.487 -19.832   4.537  1.00  0.00     0.007 A 
HETATM   22  C   UNL     1      43.998 -18.809   3.723  1.00  0.00     0.017 A 
ENDBRANCH   1  16
TORSDOF 4
ENDMDL
MODEL 2
REMARK VINA RESULT:      -7.7      3.858      4.980
REMARK  4 active torsions:
REMARK  status: ('A' for Active; 'I' for Inactive)
REMARK    1  A    between atoms: C_5  and  C_6 
REMARK       I    between atoms: C_6  and  N_7 
REMARK    2  A    between atoms: N_7  and  C_8 
REMARK    3  A    between atoms: C_8  and  N_9 
REMARK    4  A    between atoms: N_9  and  C_10 
ROOT
HETATM    1  C   UNL     1      44.118 -17.824   5.834  1.00  0.00     0.257 C 
HETATM    2  N   UNL     1      43.621 -16.597   5.404  1.00  0.00    -0.299 N 
HETATM    3  O   UNL     1      44.463 -18.109   6.975  1.00  0.00    -0.267 OA
HETATM    4  H   UNL     1      43.287 -16.555   4.445  1.00  0.00     0.171 HD
ENDROOT
BRANCH   2   5
HETATM    5  C   UNL     1      43.422 -15.408   6.077  1.00  0.00     0.180 C 
HETATM    6  S   UNL     1      44.546 -14.540   6.957  1.00  0.00    -0.040 SA
BRANCH   5   7
HETATM    7  N   UNL     1      42.155 -14.880   6.011  1.00  0.00    -0.318 N 
HETATM    8  H   UNL     1      41.819 -14.524   6.898  1.00  0.00     0.170 HD
BRANCH   7   9
HETATM    9  C   UNL     1      41.302 -14.761   4.907  1.00  0.00     0.129 A 
HETATM   10  N   UNL     1      41.199 -15.783   4.027  1.00  0.00    -0.243 NA
HETATM   11  C   UNL     1      40.371 -15.611   2.969  1.00  0.00     0.125 A 
HETATM   12  C   UNL     1      39.624 -14.464   2.739  1.00  0.00    -0.044 A 
HETATM   13  C   UNL     1      38.756 -14.322   1.530  1.00  0.00     0.049 C 
HETATM   14  C   UNL     1      39.752 -13.424   3.659  1.00  0.00     0.012 A 
HETATM   15  C   UNL     1      40.597 -13.573   4.758  1.00  0.00     0.051 A 
ENDBRANCH   7   9
ENDBRANCH   5   7
ENDBRANCH   2   5
BRANCH   1  16
HETATM   16  C   UNL     1      44.167 -18.885   4.788  1.00  0.00     0.032 A 
HETATM   17  C   UNL     1      44.731 -20.145   5.026  1.00  0.00     0.017 A 
HETATM   18  C   UNL     1      44.776 -21.095   4.000  1.00  0.00     0.007 A 
HETATM   19  C   UNL     1      44.261 -20.800   2.732  1.00  0.00    -0.062 A 
HETATM   20  C   UNL     1      44.289 -21.823   1.636  1.00  0.00     0.048 C 
HETATM   21  C   UNL     1      43.662 -19.553   2.512  1.00  0.00     0.007 A 
HETATM   22  C   UNL     1      43.614 -18.602   3.533  1.00  0.00     0.017 A 
ENDBRANCH   1  16
TORSDOF 4
ENDMDL
MODEL 3
REMARK VINA RESULT:      -7.5      1.966      2.692
REMARK  4 active torsions:
REMARK  status: ('A' for Active; 'I' for Inactive)
REMARK    1  A    between atoms: C_5  and  C_6 
REMARK       I    between atoms: C_6  and  N_7 
REMARK    2  A    between atoms: N_7  and  C_8 
REMARK    3  A    between atoms: C_8  and  N_9 
REMARK    4  A    between atoms: N_9  and  C_10 
ROOT
HETATM    1  C   UNL     1      42.773 -17.040   3.895  1.00  0.00     0.257 C 
HETATM    2  N   UNL     1      41.428 -16.811   3.618  1.00  0.00    -0.299 N 
HETATM    3  O   UNL     1      43.535 -16.276   4.474  1.00  0.00    -0.267 OA
HETATM    4  H   UNL     1      40.909 -17.588   3.218  1.00  0.00     0.171 HD
ENDROOT
BRANCH   2   5
HETATM    5  C   UNL     1      40.621 -15.717   3.859  1.00  0.00     0.180 C 
HETATM    6  S   UNL     1      40.554 -14.791   5.249  1.00  0.00    -0.040 SA
BRANCH   5   7
HETATM    7  N   UNL     1      39.780 -15.349   2.837  1.00  0.00    -0.318 N 
HETATM    8  H   UNL     1      38.828 -15.176   3.138  1.00  0.00     0.170 HD
BRANCH   7   9
HETATM    9  C   UNL     1      40.064 -15.172   1.477  1.00  0.00     0.129 A 
HETATM   10  N   UNL     1      41.049 -15.896   0.899  1.00  0.00    -0.243 NA
HETATM   11  C   UNL     1      41.293 -15.676  -0.415  1.00  0.00     0.125 A 
HETATM   12  C   UNL     1      40.595 -14.767  -1.198  1.00  0.00    -0.044 A 
HETATM   13  C   UNL     1      40.938 -14.544  -2.636  1.00  0.00     0.049 C 
HETATM   14  C   UNL     1      39.587 -14.030  -0.577  1.00  0.00     0.012 A 
HETATM   15  C   UNL     1      39.315 -14.236   0.775  1.00  0.00     0.051 A 
ENDBRANCH   7   9
ENDBRANCH   5   7
ENDBRANCH   2   5
BRANCH   1  16
HETATM   16  C   UNL     1      43.281 -18.378   3.479  1.00  0.00     0.032 A 
HETATM   17  C   UNL     1      44.168 -19.120   4.270  1.00  0.00     0.017 A 
HETATM   18  C   UNL     1      44.636 -20.359   3.821  1.00  0.00     0.007 A 
HETATM   19  C   UNL     1      44.226 -20.869   2.583  1.00  0.00    -0.062 A 
HETATM   20  C   UNL     1      44.709 -22.207   2.107  1.00  0.00     0.048 C 
HETATM   21  C   UNL     1      43.308 -20.143   1.816  1.00  0.00     0.007 A 
HETATM   22  C   UNL     1      42.837 -18.906   2.261  1.00  0.00     0.017 A 
ENDBRANCH   1  16
TORSDOF 4
ENDMDL
MODEL 4
REMARK VINA RESULT:      -7.3      1.572      2.047
REMARK  4 active torsions:
REMARK  status: ('A' for Active; 'I' for Inactive)
REMARK    1  A    between atoms: C_5  and  C_6 
REMARK       I    between atoms: C_6  and  N_7 
REMARK    2  A    between atoms: N_7  and  C_8 
REMARK    3  A    between atoms: C_8  and  N_9 
REMARK    4  A    between atoms: N_9  and  C_10 
ROOT
HETATM    1  C   UNL     1      43.687 -17.465   2.433  1.00  0.00     0.257 C 
HETATM    2  N   UNL     1      43.088 -16.489   3.225  1.00  0.00    -0.299 N 
HETATM    3  O   UNL     1      43.983 -17.359   1.249  1.00  0.00    -0.267 OA
HETATM    4  H   UNL     1      43.000 -16.700   4.215  1.00  0.00     0.171 HD
ENDROOT
BRANCH   2   5
HETATM    5  C   UNL     1      42.643 -15.218   2.923  1.00  0.00     0.180 C 
HETATM    6  S   UNL     1      43.275 -13.767   3.460  1.00  0.00    -0.040 SA
BRANCH   5   7
HETATM    7  N   UNL     1      41.556 -15.140   2.085  1.00  0.00    -0.318 N 
HETATM    8  H   UNL     1      40.675 -15.330   2.548  1.00  0.00     0.170 HD
BRANCH   7   9
HETATM    9  C   UNL     1      41.511 -14.828   0.721  1.00  0.00     0.129 A 
HETATM   10  N   UNL     1      41.776 -13.565   0.315  1.00  0.00    -0.243 NA
HETATM   11  C   UNL     1      41.705 -13.313  -1.014  1.00  0.00     0.125 A 
HETATM   12  C   UNL     1      41.387 -14.263  -1.975  1.00  0.00    -0.044 A 
HETATM   13  C   UNL     1      41.289 -13.911  -3.424  1.00  0.00     0.049 C 
HETATM   14  C   UNL     1      41.115 -15.556  -1.528  1.00  0.00     0.012 A 
HETATM   15  C   UNL     1      41.180 -15.844  -0.166  1.00  0.00     0.051 A 
ENDBRANCH   7   9
ENDBRANCH   5   7
ENDBRANCH   2   5
BRANCH   1  16
HETATM   16  C   UNL     1      44.037 -18.726   3.147  1.00  0.00     0.032 A 
HETATM   17  C   UNL     1      44.220 -18.774   4.535  1.00  0.00     0.017 A 
HETATM   18  C   UNL     1      44.574 -19.979   5.152  1.00  0.00     0.007 A 
HETATM   19  C   UNL     1      44.749 -21.143   4.394  1.00  0.00    -0.062 A 
HETATM   20  C   UNL     1      45.109 -22.441   5.054  1.00  0.00     0.048 C 
HETATM   21  C   UNL     1      44.526 -21.098   3.013  1.00  0.00     0.007 A 
HETATM   22  C   UNL     1      44.170 -19.898   2.393  1.00  0.00     0.017 A 
ENDBRANCH   1  16
TORSDOF 4
ENDMDL
MODEL 5
REMARK VINA RESULT:      -7.3      3.536      7.089
REMARK  4 active torsions:
REMARK  status: ('A' for Active; 'I' for Inactive)
REMARK    1  A    between atoms: C_5  and  C_6 
REMARK       I    between atoms: C_6  and  N_7 
REMARK    2  A    between atoms: N_7  and  C_8 
REMARK    3  A    between atoms: C_8  and  N_9 
REMARK    4  A    between atoms: N_9  and  C_10 
ROOT
HETATM    1  C   UNL     1      42.197 -16.346   4.050  1.00  0.00     0.257 C 
HETATM    2  N   UNL     1      42.946 -16.602   2.905  1.00  0.00    -0.299 N 
HETATM    3  O   UNL     1      41.074 -16.771   4.292  1.00  0.00    -0.267 OA
HETATM    4  H   UNL     1      43.902 -16.255   2.902  1.00  0.00     0.171 HD
ENDROOT
BRANCH   2   5
HETATM    5  C   UNL     1      42.653 -17.324   1.766  1.00  0.00     0.180 C 
HETATM    6  S   UNL     1      41.449 -17.013   0.649  1.00  0.00    -0.040 SA
BRANCH   5   7
HETATM    7  N   UNL     1      43.443 -18.422   1.524  1.00  0.00    -0.318 N 
HETATM    8  H   UNL     1      43.765 -18.486   0.566  1.00  0.00     0.170 HD
BRANCH   7   9
HETATM    9  C   UNL     1      43.860 -19.424   2.410  1.00  0.00     0.129 A 
HETATM   10  N   UNL     1      44.243 -19.092   3.663  1.00  0.00    -0.243 NA
HETATM   11  C   UNL     1      44.651 -20.098   4.474  1.00  0.00     0.125 A 
HETATM   12  C   UNL     1      44.692 -21.434   4.103  1.00  0.00    -0.044 A 
HETATM   13  C   UNL     1      45.188 -22.493   5.035  1.00  0.00     0.049 C 
HETATM   14  C   UNL     1      44.294 -21.748   2.803  1.00  0.00     0.012 A 
HETATM   15  C   UNL     1      43.870 -20.734   1.947  1.00  0.00     0.051 A 
ENDBRANCH   7   9
ENDBRANCH   5   7
ENDBRANCH   2   5
BRANCH   1  16
HETATM   16  C   UNL     1      42.885 -15.517   5.080  1.00  0.00     0.032 A 
HETATM   17  C   UNL     1      42.679 -14.136   5.188  1.00  0.00     0.017 A 
HETATM   18  C   UNL     1      43.370 -13.399   6.155  1.00  0.00     0.007 A 
HETATM   19  C   UNL     1      44.271 -14.031   7.022  1.00  0.00    -0.062 A 
HETATM   20  C   UNL     1      44.999 -13.248   8.074  1.00  0.00     0.048 C 
HETATM   21  C   UNL     1      44.442 -15.417   6.936  1.00  0.00     0.007 A 
HETATM   22  C   UNL     1      43.753 -16.156   5.972  1.00  0.00     0.017 A 
ENDBRANCH   1  16
TORSDOF 4
ENDMDL
MODEL 6
REMARK VINA RESULT:      -7.2      2.969      3.907
REMARK  4 active torsions:
REMARK  status: ('A' for Active; 'I' for Inactive)
REMARK    1  A    between atoms: C_5  and  C_6 
REMARK       I    between atoms: C_6  and  N_7 
REMARK    2  A    between atoms: N_7  and  C_8 
REMARK    3  A    between atoms: C_8  and  N_9 
REMARK    4  A    between atoms: N_9  and  C_10 
ROOT
HETATM    1  C   UNL     1      43.725 -17.416   5.040  1.00  0.00     0.257 C 
HETATM    2  N   UNL     1      43.243 -16.242   4.469  1.00  0.00    -0.299 N 
HETATM    3  O   UNL     1      44.000 -17.590   6.221  1.00  0.00    -0.267 OA
HETATM    4  H   UNL     1      42.970 -16.293   3.491  1.00  0.00     0.171 HD
ENDROOT
BRANCH   2   5
HETATM    5  C   UNL     1      42.989 -15.000   5.015  1.00  0.00     0.180 C 
HETATM    6  S   UNL     1      43.952 -14.141   6.076  1.00  0.00    -0.040 SA
BRANCH   5   7
HETATM    7  N   UNL     1      41.808 -14.405   4.640  1.00  0.00    -0.318 N 
HETATM    8  H   UNL     1      41.325 -13.947   5.404  1.00  0.00     0.170 HD
BRANCH   7   9
HETATM    9  C   UNL     1      41.213 -14.338   3.374  1.00  0.00     0.129 A 
HETATM   10  N   UNL     1      41.990 -14.185   2.277  1.00  0.00    -0.243 NA
HETATM   11  C   UNL     1      41.364 -14.112   1.078  1.00  0.00     0.125 A 
HETATM   12  C   UNL     1      39.988 -14.190   0.908  1.00  0.00    -0.044 A 
HETATM   13  C   UNL     1      39.356 -14.064  -0.440  1.00  0.00     0.049 C 
HETATM   14  C   UNL     1      39.211 -14.343   2.056  1.00  0.00     0.012 A 
HETATM   15  C   UNL     1      39.828 -14.421   3.303  1.00  0.00     0.051 A 
ENDBRANCH   7   9
ENDBRANCH   5   7
ENDBRANCH   2   5
BRANCH   1  16
HETATM   16  C   UNL     1      43.853 -18.567   4.101  1.00  0.00     0.032 A 
HETATM   17  C   UNL     1      43.308 -18.543   2.811  1.00  0.00     0.017 A 
HETATM   18  C   UNL     1      43.433 -19.660   1.978  1.00  0.00     0.007 A 
HETATM   19  C   UNL     1      44.100 -20.808   2.422  1.00  0.00    -0.062 A 
HETATM   20  C   UNL     1      44.254 -22.001   1.525  1.00  0.00     0.048 C 
HETATM   21  C   UNL     1      44.678 -20.811   3.698  1.00  0.00     0.007 A 
HETATM   22  C   UNL     1      44.557 -19.697   4.531  1.00  0.00     0.017 A 
ENDBRANCH   1  16
TORSDOF 4
ENDMDL
MODEL 7
REMARK VINA RESULT:      -7.2      4.495      5.112
REMARK  4 active torsions:
REMARK  status: ('A' for Active; 'I' for Inactive)
REMARK    1  A    between atoms: C_5  and  C_6 
REMARK       I    between atoms: C_6  and  N_7 
REMARK    2  A    between atoms: N_7  and  C_8 
REMARK    3  A    between atoms: C_8  and  N_9 
REMARK    4  A    between atoms: N_9  and  C_10 
ROOT
HETATM    1  C   UNL     1      43.503 -16.819   4.001  1.00  0.00     0.257 C 
HETATM    2  N   UNL     1      43.359 -16.675   5.378  1.00  0.00    -0.299 N 
HETATM    3  O   UNL     1      43.501 -15.916   3.173  1.00  0.00    -0.267 OA
HETATM    4  H   UNL     1      43.483 -17.516   5.937  1.00  0.00     0.171 HD
ENDROOT
BRANCH   2   5
HETATM    5  C   UNL     1      43.143 -15.559   6.160  1.00  0.00     0.180 C 
HETATM    6  S   UNL     1      44.292 -14.620   6.928  1.00  0.00    -0.040 SA
BRANCH   5   7
HETATM    7  N   UNL     1      41.832 -15.179   6.324  1.00  0.00    -0.318 N 
HETATM    8  H   UNL     1      41.383 -15.607   7.125  1.00  0.00     0.170 HD
BRANCH   7   9
HETATM    9  C   UNL     1      41.066 -14.290   5.558  1.00  0.00     0.129 A 
HETATM   10  N   UNL     1      40.966 -12.996   5.936  1.00  0.00    -0.243 NA
HETATM   11  C   UNL     1      40.201 -12.182   5.169  1.00  0.00     0.125 A 
HETATM   12  C   UNL     1      39.528 -12.591   4.026  1.00  0.00    -0.044 A 
HETATM   13  C   UNL     1      38.670 -11.651   3.243  1.00  0.00     0.049 C 
HETATM   14  C   UNL     1      39.647 -13.932   3.661  1.00  0.00     0.012 A 
HETATM   15  C   UNL     1      40.426 -14.792   4.432  1.00  0.00     0.051 A 
ENDBRANCH   7   9
ENDBRANCH   5   7
ENDBRANCH   2   5
BRANCH   1  16
HETATM   16  C   UNL     1      43.737 -18.215   3.535  1.00  0.00     0.032 A 
HETATM   17  C   UNL     1      44.459 -19.146   4.294  1.00  0.00     0.017 A 
HETATM   18  C   UNL     1      44.673 -20.436   3.798  1.00  0.00     0.007 A 
HETATM   19  C   UNL     1      44.170 -20.811   2.546  1.00  0.00    -0.062 A 
HETATM   20  C   UNL     1      44.380 -22.200   2.020  1.00  0.00     0.048 C 
HETATM   21  C   UNL     1      43.415 -19.889   1.810  1.00  0.00     0.007 A 
HETATM   22  C   UNL     1      43.198 -18.601   2.302  1.00  0.00     0.017 A 
ENDBRANCH   1  16
TORSDOF 4
ENDMDL
MODEL 8
REMARK VINA RESULT:      -7.2      4.762      5.411
REMARK  4 active torsions:
REMARK  status: ('A' for Active; 'I' for Inactive)
REMARK    1  A    between atoms: C_5  and  C_6 
REMARK       I    between atoms: C_6  and  N_7 
REMARK    2  A    between atoms: N_7  and  C_8 
REMARK    3  A    between atoms: C_8  and  N_9 
REMARK    4  A    between atoms: N_9  and  C_10 
ROOT
HETATM    1  C   UNL     1      44.169 -17.748   5.732  1.00  0.00     0.257 C 
HETATM    2  N   UNL     1      43.629 -16.505   5.414  1.00  0.00    -0.299 N 
HETATM    3  O   UNL     1      44.614 -18.089   6.821  1.00  0.00    -0.267 OA
HETATM    4  H   UNL     1      43.212 -16.415   4.491  1.00  0.00     0.171 HD
ENDROOT
BRANCH   2   5
HETATM    5  C   UNL     1      43.484 -15.355   6.163  1.00  0.00     0.180 C 
HETATM    6  S   UNL     1      44.689 -14.478   6.921  1.00  0.00    -0.040 SA
BRANCH   5   7
HETATM    7  N   UNL     1      42.202 -14.879   6.298  1.00  0.00    -0.318 N 
HETATM    8  H   UNL     1      41.693 -15.300   7.066  1.00  0.00     0.170 HD
BRANCH   7   9
HETATM    9  C   UNL     1      41.536 -13.904   5.545  1.00  0.00     0.129 A 
HETATM   10  N   UNL     1      42.236 -13.130   4.684  1.00  0.00    -0.243 NA
HETATM   11  C   UNL     1      41.546 -12.193   3.990  1.00  0.00     0.125 A 
HETATM   12  C   UNL     1      40.178 -11.986   4.103  1.00  0.00    -0.044 A 
HETATM   13  C   UNL     1      39.481 -10.908   3.336  1.00  0.00     0.049 C 
HETATM   14  C   UNL     1      39.482 -12.795   5.002  1.00  0.00     0.012 A 
HETATM   15  C   UNL     1      40.166 -13.767   5.729  1.00  0.00     0.051 A 
ENDBRANCH   7   9
ENDBRANCH   5   7
ENDBRANCH   2   5
BRANCH   1  16
HETATM   16  C   UNL     1      44.131 -18.751   4.630  1.00  0.00     0.032 A 
HETATM   17  C   UNL     1      43.455 -18.515   3.426  1.00  0.00     0.017 A 
HETATM   18  C   UNL     1      43.429 -19.501   2.434  1.00  0.00     0.007 A 
HETATM   19  C   UNL     1      44.073 -20.728   2.632  1.00  0.00    -0.062 A 
HETATM   20  C   UNL     1      44.064 -21.780   1.563  1.00  0.00     0.048 C 
HETATM   21  C   UNL     1      44.781 -20.943   3.821  1.00  0.00     0.007 A 
HETATM   22  C   UNL     1      44.812 -19.961   4.813  1.00  0.00     0.017 A 
ENDBRANCH   1  16
TORSDOF 4
ENDMDL
MODEL 9
REMARK VINA RESULT:      -7.1      4.431      5.575
REMARK  4 active torsions:
REMARK  status: ('A' for Active; 'I' for Inactive)
REMARK    1  A    between atoms: C_5  and  C_6 
REMARK       I    between atoms: C_6  and  N_7 
REMARK    2  A    between atoms: N_7  and  C_8 
REMARK    3  A    between atoms: C_8  and  N_9 
REMARK    4  A    between atoms: N_9  and  C_10 
ROOT
HETATM    1  C   UNL     1      42.399 -16.971   3.942  1.00  0.00     0.257 C 
HETATM    2  N   UNL     1      41.257 -16.540   3.271  1.00  0.00    -0.299 N 
HETATM    3  O   UNL     1      42.914 -16.435   4.915  1.00  0.00    -0.267 OA
HETATM    4  H   UNL     1      40.902 -17.154   2.542  1.00  0.00     0.171 HD
ENDROOT
BRANCH   2   5
HETATM    5  C   UNL     1      40.449 -15.438   3.462  1.00  0.00     0.180 C 
HETATM    6  S   UNL     1      39.735 -14.486   2.288  1.00  0.00    -0.040 SA
BRANCH   5   7
HETATM    7  N   UNL     1      40.203 -15.087   4.768  1.00  0.00    -0.318 N 
HETATM    8  H   UNL     1      39.793 -15.834   5.317  1.00  0.00     0.170 HD
BRANCH   7   9
HETATM    9  C   UNL     1      40.453 -13.874   5.420  1.00  0.00     0.129 A 
HETATM   10  N   UNL     1      41.713 -13.382   5.460  1.00  0.00    -0.243 NA
HETATM   11  C   UNL     1      41.903 -12.213   6.116  1.00  0.00     0.125 A 
HETATM   12  C   UNL     1      40.893 -11.491   6.737  1.00  0.00    -0.044 A 
HETATM   13  C   UNL     1      41.175 -10.224   7.477  1.00  0.00     0.049 C 
HETATM   14  C   UNL     1      39.604 -12.022   6.684  1.00  0.00     0.012 A 
HETATM   15  C   UNL     1      39.379 -13.225   6.016  1.00  0.00     0.051 A 
ENDBRANCH   7   9
ENDBRANCH   5   7
ENDBRANCH   2   5
BRANCH   1  16
HETATM   16  C   UNL     1      42.988 -18.240   3.429  1.00  0.00     0.032 A 
HETATM   17  C   UNL     1      42.682 -18.748   2.161  1.00  0.00     0.017 A 
HETATM   18  C   UNL     1      43.243 -19.958   1.738  1.00  0.00     0.007 A 
HETATM   19  C   UNL     1      44.111 -20.671   2.574  1.00  0.00    -0.062 A 
HETATM   20  C   UNL     1      44.730 -21.959   2.118  1.00  0.00     0.048 C 
HETATM   21  C   UNL     1      44.445 -20.139   3.825  1.00  0.00     0.007 A 
HETATM   22  C   UNL     1      43.889 -18.930   4.250  1.00  0.00     0.017 A 
ENDBRANCH   1  16
TORSDOF 4
ENDMDL
MODEL 10
REMARK VINA RESULT:      -7.1      9.247     10.998
REMARK  4 active torsions:
REMARK  status: ('A' for Active; 'I' for Inactive)
REMARK    1  A    between atoms: C_5  and  C_6 
REMARK       I    between atoms: C_6  and  N_7 
REMARK    2  A    between atoms: N_7  and  C_8 
REMARK    3  A    between atoms: C_8  and  N_9 
REMARK    4  A    between atoms: N_9  and  C_10 
ROOT
HETATM    1  C   UNL     1      43.264 -11.062   9.581  1.00  0.00     0.257 C 
HETATM    2  N   UNL     1      44.085 -12.164   9.359  1.00  0.00    -0.299 N 
HETATM    3  O   UNL     1      42.771 -10.339   8.723  1.00  0.00    -0.267 OA
HETATM    4  H   UNL     1      44.329 -12.718  10.176  1.00  0.00     0.171 HD
ENDROOT
BRANCH   2   5
HETATM    5  C   UNL     1      44.587 -12.707   8.194  1.00  0.00     0.180 C 
HETATM    6  S   UNL     1      46.190 -12.818   7.734  1.00  0.00    -0.040 SA
BRANCH   5   7
HETATM    7  N   UNL     1      43.661 -13.214   7.314  1.00  0.00    -0.318 N 
HETATM    8  H   UNL     1      42.904 -12.572   7.109  1.00  0.00     0.170 HD
BRANCH   7   9
HETATM    9  C   UNL     1      43.638 -14.459   6.673  1.00  0.00     0.129 A 
HETATM   10  N   UNL     1      43.963 -15.574   7.366  1.00  0.00    -0.243 NA
HETATM   11  C   UNL     1      43.940 -16.751   6.695  1.00  0.00     0.125 A 
HETATM   12  C   UNL     1      43.598 -16.881   5.356  1.00  0.00    -0.044 A 
HETATM   13  C   UNL     1      43.627 -18.206   4.664  1.00  0.00     0.049 C 
HETATM   14  C   UNL     1      43.270 -15.715   4.665  1.00  0.00     0.012 A 
HETATM   15  C   UNL     1      43.286 -14.490   5.330  1.00  0.00     0.051 A 
ENDBRANCH   7   9
ENDBRANCH   5   7
ENDBRANCH   2   5
BRANCH   1  16
HETATM   16  C   UNL     1      42.930 -10.803  11.011  1.00  0.00     0.032 A 
HETATM   17  C   UNL     1      41.757 -11.286  11.604  1.00  0.00     0.017 A 
HETATM   18  C   UNL     1      41.479 -10.993  12.943  1.00  0.00     0.007 A 
HETATM   19  C   UNL     1      42.365 -10.217  13.701  1.00  0.00    -0.062 A 
HETATM   20  C   UNL     1      42.080  -9.916  15.143  1.00  0.00     0.048 C 
HETATM   21  C   UNL     1      43.555  -9.771  13.114  1.00  0.00     0.007 A 
HETATM   22  C   UNL     1      43.837 -10.063  11.778  1.00  0.00     0.017 A 
ENDBRANCH   1  16
TORSDOF 4
ENDMDL
