MODEL 1
REMARK VINA RESULT:      -8.6      0.000      0.000
REMARK  8 active torsions:
REMARK  status: ('A' for Active; 'I' for Inactive)
REMARK    1  A    between atoms: C_1  and  C_15 
REMARK    2  A    between atoms: C_2  and  C_5 
REMARK    3  A    between atoms: C_5  and  C_13 
REMARK       I    between atoms: C_7  and  N_8 
REMARK    4  A    between atoms: N_8  and  C_9 
REMARK       I    between atoms: C_13  and  N_14 
REMARK    5  A    between atoms: N_14  and  C_15 
REMARK    6  A    between atoms: C_23  and  C_24 
REMARK    7  A    between atoms: C_24  and  O_25 
REMARK    8  A    between atoms: C_27  and  O_28 
ROOT
HETATM    1  C           1      43.416 -16.367   5.183  0.00  0.00     0.056 C 
HETATM    2  C           1      41.978 -13.938   4.052  0.00  0.00     0.055 C 
HETATM    3  C           1      42.159 -15.263   3.275  0.00  0.00     0.012 C 
HETATM    4  C           1      43.805 -13.532   7.170  0.00  0.00     0.173 A 
HETATM    5  S           1      43.012 -12.770   6.204  0.00  0.00    -0.055 SA
HETATM    6  C           1      42.808 -13.913   5.303  0.00  0.00     0.012 A 
HETATM    7  C           1      43.430 -14.992   5.787  0.00  0.00     0.056 A 
HETATM    8  C           1      42.181 -16.503   4.231  0.00  0.00    -0.030 C 
HETATM    9  C           1      40.907 -16.612   5.097  0.00  0.00     0.016 C 
HETATM   10  C           1      41.318 -15.343   1.954  0.00  0.00     0.008 C 
HETATM   11  C           1      41.815 -14.234   0.983  0.00  0.00     0.020 C 
HETATM   12  C           1      41.588 -16.702   1.276  0.00  0.00     0.128 C 
HETATM   13  C           1      41.396 -17.893   2.207  0.00  0.00     0.033 C 
HETATM   14  C           1      42.353 -17.796   3.397  0.00  0.00     0.013 C 
HETATM   15  N           1      44.006 -14.744   6.878  0.00  0.00    -0.227 NA
ENDROOT
BRANCH   1  16
HETATM   16  C           1      43.570 -17.441   6.283  0.00  0.00     0.114 C 
BRANCH  16  17
HETATM   17  C           1      44.640 -18.479   5.957  0.00  0.00     0.218 C 
HETATM   18  N           1      44.174 -19.673   5.481  0.00  0.00    -0.355 N 
HETATM   19  H           1      43.170 -19.866   5.467  0.00  0.00     0.162 HD
HETATM   20  O           1      45.813 -18.249   6.116  0.00  0.00    -0.274 OA
BRANCH  18  21
HETATM   21  C           1      45.074 -20.747   5.057  0.00  0.00     0.187 C 
BRANCH  21  22
HETATM   22  C           1      44.692 -21.171   3.668  0.00  0.00     0.070 A 
HETATM   23  C           1      44.385 -20.350   2.652  0.00  0.00     0.036 A 
HETATM   24  C           1      44.139 -21.166   1.621  0.00  0.00     0.027 A 
HETATM   25  C           1      44.320 -22.391   2.130  0.00  0.00     0.142 A 
HETATM   26  O           1      44.635 -22.351   3.318  0.00  0.00    -0.325 OA
ENDBRANCH  21  22
ENDBRANCH  18  21
ENDBRANCH  16  17
ENDBRANCH   1  16
BRANCH  10  27
HETATM   27  C           1      39.806 -15.123   2.161  0.00  0.00     0.176 C 
BRANCH  27  28
HETATM   28  O           1      39.143 -14.854   0.939  0.00  0.00    -0.400 OA
HETATM   29  H           1      38.485 -15.529   0.769  0.00  0.00     0.209 HD
ENDBRANCH  27  28
ENDBRANCH  10  27
BRANCH   4  30
HETATM   30  N           1      44.158 -12.959   8.338  0.00  0.00    -0.306 N 
HETATM   31  C           1      45.376 -12.451   8.692  0.00  0.00     0.219 C 
HETATM   32  C           1      45.407 -11.823  10.070  0.00  0.00     0.117 C 
HETATM   33  O           1      46.344 -12.505   7.976  0.00  0.00    -0.274 OA
HETATM   34  H           1      43.410 -12.980   9.015  0.00  0.00     0.171 HD
ENDBRANCH   4  30
BRANCH  12  35
HETATM   35  O           1      40.753 -16.886   0.157  0.00  0.00    -0.395 OA
HETATM   36  H           1      41.169 -17.480  -0.470  0.00  0.00     0.210 HD
ENDBRANCH  12  35
TORSDOF 8
ENDMDL
MODEL 2
REMARK VINA RESULT:      -8.1      2.643      6.405
REMARK  8 active torsions:
REMARK  status: ('A' for Active; 'I' for Inactive)
REMARK    1  A    between atoms: C_1  and  C_15 
REMARK    2  A    between atoms: C_2  and  C_5 
REMARK    3  A    between atoms: C_5  and  C_13 
REMARK       I    between atoms: C_7  and  N_8 
REMARK    4  A    between atoms: N_8  and  C_9 
REMARK       I    between atoms: C_13  and  N_14 
REMARK    5  A    between atoms: N_14  and  C_15 
REMARK    6  A    between atoms: C_23  and  C_24 
REMARK    7  A    between atoms: C_24  and  O_25 
REMARK    8  A    between atoms: C_27  and  O_28 
ROOT
HETATM    1  C           1      43.160 -14.614   5.313  0.00  0.00     0.056 C 
HETATM    2  C           1      40.977 -14.382   3.209  0.00  0.00     0.055 C 
HETATM    3  C           1      42.191 -15.332   3.080  0.00  0.00     0.012 C 
HETATM    4  C           1      41.006 -11.940   5.904  0.00  0.00     0.173 A 
HETATM    5  S           1      40.277 -12.284   4.682  0.00  0.00    -0.055 SA
HETATM    6  C           1      41.144 -13.423   4.352  0.00  0.00     0.012 A 
HETATM    7  C           1      42.107 -13.543   5.270  0.00  0.00     0.056 A 
HETATM    8  C           1      42.680 -15.848   4.476  0.00  0.00    -0.030 C 
HETATM    9  C           1      41.570 -16.572   5.268  0.00  0.00     0.016 C 
HETATM   10  C           1      42.074 -16.355   1.898  0.00  0.00     0.008 C 
HETATM   11  C           1      42.038 -15.561   0.561  0.00  0.00     0.020 C 
HETATM   12  C           1      43.339 -17.235   1.876  0.00  0.00     0.128 C 
HETATM   13  C           1      43.655 -17.877   3.222  0.00  0.00     0.033 C 
HETATM   14  C           1      43.886 -16.798   4.283  0.00  0.00     0.013 C 
HETATM   15  N           1      42.006 -12.666   6.166  0.00  0.00    -0.227 NA
ENDROOT
BRANCH   1  16
HETATM   16  C           1      43.591 -14.887   6.773  0.00  0.00     0.114 C 
BRANCH  16  17
HETATM   17  C           1      44.649 -13.909   7.275  0.00  0.00     0.218 C 
HETATM   18  N           1      44.318 -13.216   8.405  0.00  0.00    -0.355 N 
HETATM   19  H           1      43.375 -13.284   8.794  0.00  0.00     0.162 HD
HETATM   20  O           1      45.700 -13.767   6.702  0.00  0.00    -0.274 OA
BRANCH  18  21
HETATM   21  C           1      45.249 -12.291   9.053  0.00  0.00     0.187 C 
BRANCH  21  22
HETATM   22  C           1      44.594 -11.734  10.284  0.00  0.00     0.070 A 
HETATM   23  C           1      44.573 -10.443  10.648  0.00  0.00     0.036 A 
HETATM   24  C           1      43.864 -10.424  11.782  0.00  0.00     0.027 A 
HETATM   25  C           1      43.539 -11.707  11.980  0.00  0.00     0.142 A 
HETATM   26  O           1      43.983 -12.435  11.093  0.00  0.00    -0.325 OA
ENDBRANCH  21  22
ENDBRANCH  18  21
ENDBRANCH  16  17
ENDBRANCH   1  16
BRANCH  10  27
HETATM   27  C           1      40.801 -17.223   1.946  0.00  0.00     0.176 C 
BRANCH  27  28
HETATM   28  O           1      40.493 -17.773   0.678  0.00  0.00    -0.400 OA
HETATM   29  H           1      39.717 -17.344   0.315  0.00  0.00     0.209 HD
ENDBRANCH  27  28
ENDBRANCH  10  27
BRANCH   4  30
HETATM   30  N           1      40.517 -10.988   6.723  0.00  0.00    -0.306 N 
HETATM   31  C           1      39.584 -11.126   7.711  0.00  0.00     0.219 C 
HETATM   32  C           1      39.308  -9.852   8.483  0.00  0.00     0.117 C 
HETATM   33  O           1      39.021 -12.166   7.944  0.00  0.00    -0.274 OA
HETATM   34  H           1      40.880 -10.072   6.503  0.00  0.00     0.171 HD
ENDBRANCH   4  30
BRANCH  12  35
HETATM   35  O           1      43.227 -18.262   0.920  0.00  0.00    -0.395 OA
HETATM   36  H           1      44.097 -18.575   0.668  0.00  0.00     0.210 HD
ENDBRANCH  12  35
TORSDOF 8
ENDMDL
MODEL 3
REMARK VINA RESULT:      -8.0      2.702      3.779
REMARK  8 active torsions:
REMARK  status: ('A' for Active; 'I' for Inactive)
REMARK    1  A    between atoms: C_1  and  C_15 
REMARK    2  A    between atoms: C_2  and  C_5 
REMARK    3  A    between atoms: C_5  and  C_13 
REMARK       I    between atoms: C_7  and  N_8 
REMARK    4  A    between atoms: N_8  and  C_9 
REMARK       I    between atoms: C_13  and  N_14 
REMARK    5  A    between atoms: N_14  and  C_15 
REMARK    6  A    between atoms: C_23  and  C_24 
REMARK    7  A    between atoms: C_24  and  O_25 
REMARK    8  A    between atoms: C_27  and  O_28 
ROOT
HETATM    1  C           1      42.363 -16.107   1.805  0.00  0.00     0.056 C 
HETATM    2  C           1      41.945 -13.222   2.674  0.00  0.00     0.055 C 
HETATM    3  C           1      41.846 -13.696   1.204  0.00  0.00     0.012 C 
HETATM    4  C           1      43.247 -15.567   5.131  0.00  0.00     0.173 A 
HETATM    5  S           1      42.900 -14.153   4.973  0.00  0.00    -0.055 SA
HETATM    6  C           1      42.516 -14.290   3.561  0.00  0.00     0.012 A 
HETATM    7  C           1      42.689 -15.554   3.163  0.00  0.00     0.056 A 
HETATM    8  C           1      41.326 -15.170   1.098  0.00  0.00    -0.030 C 
HETATM    9  C           1      39.951 -15.368   1.773  0.00  0.00     0.016 C 
HETATM   10  C           1      41.259 -12.617   0.229  0.00  0.00     0.008 C 
HETATM   11  C           1      42.228 -11.401   0.197  0.00  0.00     0.020 C 
HETATM   12  C           1      41.216 -13.208  -1.195  0.00  0.00     0.128 C 
HETATM   13  C           1      40.516 -14.559  -1.271  0.00  0.00     0.033 C 
HETATM   14  C           1      41.239 -15.582  -0.391  0.00  0.00     0.013 C 
HETATM   15  N           1      43.117 -16.280   4.097  0.00  0.00    -0.227 NA
ENDROOT
BRANCH   1  16
HETATM   16  C           1      41.993 -17.604   1.907  0.00  0.00     0.114 C 
BRANCH  16  17
HETATM   17  C           1      43.180 -18.530   1.652  0.00  0.00     0.218 C 
HETATM   18  N           1      42.977 -19.844   1.970  0.00  0.00    -0.355 N 
HETATM   19  H           1      42.122 -20.132   2.451  0.00  0.00     0.162 HD
HETATM   20  O           1      44.219 -18.115   1.203  0.00  0.00    -0.274 OA
BRANCH  18  21
HETATM   21  C           1      43.991 -20.870   1.721  0.00  0.00     0.187 C 
BRANCH  21  22
HETATM   22  C           1      44.395 -21.472   3.036  0.00  0.00     0.070 A 
HETATM   23  C           1      44.758 -20.791   4.134  0.00  0.00     0.036 A 
HETATM   24  C           1      45.002 -21.734   5.051  0.00  0.00     0.027 A 
HETATM   25  C           1      44.763 -22.882   4.404  0.00  0.00     0.142 A 
HETATM   26  O           1      44.418 -22.688   3.239  0.00  0.00    -0.325 OA
ENDBRANCH  21  22
ENDBRANCH  18  21
ENDBRANCH  16  17
ENDBRANCH   1  16
BRANCH  10  27
HETATM   27  C           1      39.874 -12.086   0.646  0.00  0.00     0.176 C 
BRANCH  27  28
HETATM   28  O           1      39.678 -10.747   0.226  0.00  0.00    -0.400 OA
HETATM   29  H           1      40.524 -10.327   0.071  0.00  0.00     0.209 HD
ENDBRANCH  27  28
ENDBRANCH  10  27
BRANCH   4  30
HETATM   30  N           1      43.552 -16.042   6.354  0.00  0.00    -0.306 N 
HETATM   31  C           1      42.766 -16.787   7.187  0.00  0.00     0.219 C 
HETATM   32  C           1      43.450 -17.205   8.473  0.00  0.00     0.117 C 
HETATM   33  O           1      41.626 -17.081   6.928  0.00  0.00    -0.274 OA
HETATM   34  H           1      44.462 -15.738   6.667  0.00  0.00     0.171 HD
ENDBRANCH   4  30
BRANCH  12  35
HETATM   35  O           1      40.570 -12.332  -2.088  0.00  0.00    -0.395 OA
HETATM   36  H           1      39.752 -12.013  -1.703  0.00  0.00     0.210 HD
ENDBRANCH  12  35
TORSDOF 8
ENDMDL
MODEL 4
REMARK VINA RESULT:      -8.0      3.065      6.066
REMARK  8 active torsions:
REMARK  status: ('A' for Active; 'I' for Inactive)
REMARK    1  A    between atoms: C_1  and  C_15 
REMARK    2  A    between atoms: C_2  and  C_5 
REMARK    3  A    between atoms: C_5  and  C_13 
REMARK       I    between atoms: C_7  and  N_8 
REMARK    4  A    between atoms: N_8  and  C_9 
REMARK       I    between atoms: C_13  and  N_14 
REMARK    5  A    between atoms: N_14  and  C_15 
REMARK    6  A    between atoms: C_23  and  C_24 
REMARK    7  A    between atoms: C_24  and  O_25 
REMARK    8  A    between atoms: C_27  and  O_28 
ROOT
HETATM    1  C           1      43.003 -14.187   5.090  0.00  0.00     0.056 C 
HETATM    2  C           1      40.401 -13.567   3.643  0.00  0.00     0.055 C 
HETATM    3  C           1      41.553 -14.387   3.016  0.00  0.00     0.012 C 
HETATM    4  C           1      41.043 -11.865   6.792  0.00  0.00     0.173 A 
HETATM    5  S           1      40.056 -11.937   5.714  0.00  0.00    -0.055 SA
HETATM    6  C           1      40.824 -12.910   4.925  0.00  0.00     0.012 A 
HETATM    7  C           1      41.970 -13.199   5.550  0.00  0.00     0.056 A 
HETATM    8  C           1      42.345 -15.202   4.095  0.00  0.00    -0.030 C 
HETATM    9  C           1      41.441 -16.159   4.902  0.00  0.00     0.016 C 
HETATM   10  C           1      41.170 -15.093   1.670  0.00  0.00     0.008 C 
HETATM   11  C           1      40.834 -13.998   0.617  0.00  0.00     0.020 C 
HETATM   12  C           1      42.396 -15.869   1.150  0.00  0.00     0.128 C 
HETATM   13  C           1      43.007 -16.803   2.187  0.00  0.00     0.033 C 
HETATM   14  C           1      43.474 -16.008   3.409  0.00  0.00     0.013 C 
HETATM   15  N           1      42.075 -12.575   6.637  0.00  0.00    -0.227 NA
ENDROOT
BRANCH   1  16
HETATM   16  C           1      43.753 -14.786   6.301  0.00  0.00     0.114 C 
BRANCH  16  17
HETATM   17  C           1      44.817 -13.850   6.866  0.00  0.00     0.218 C 
HETATM   18  N           1      44.547 -13.332   8.102  0.00  0.00    -0.355 N 
HETATM   19  H           1      43.635 -13.486   8.537  0.00  0.00     0.162 HD
HETATM   20  O           1      45.823 -13.594   6.252  0.00  0.00    -0.274 OA
BRANCH  18  21
HETATM   21  C           1      45.497 -12.473   8.810  0.00  0.00     0.187 C 
BRANCH  21  22
HETATM   22  C           1      44.801 -11.861   9.992  0.00  0.00     0.070 A 
HETATM   23  C           1      44.951 -10.601  10.427  0.00  0.00     0.036 A 
HETATM   24  C           1      44.125 -10.505  11.475  0.00  0.00     0.027 A 
HETATM   25  C           1      43.570 -11.720  11.559  0.00  0.00     0.142 A 
HETATM   26  O           1      43.990 -12.478  10.685  0.00  0.00    -0.325 OA
ENDBRANCH  21  22
ENDBRANCH  18  21
ENDBRANCH  16  17
ENDBRANCH   1  16
BRANCH  10  27
HETATM   27  C           1      39.939 -16.015   1.776  0.00  0.00     0.176 C 
BRANCH  27  28
HETATM   28  O           1      38.748 -15.344   1.406  0.00  0.00    -0.400 OA
HETATM   29  H           1      37.986 -15.857   1.679  0.00  0.00     0.209 HD
ENDBRANCH  27  28
ENDBRANCH  10  27
BRANCH   4  30
HETATM   30  N           1      40.754 -11.172   7.911  0.00  0.00    -0.306 N 
HETATM   31  C           1      41.484 -10.177   8.497  0.00  0.00     0.219 C 
HETATM   32  C           1      40.830  -9.570   9.722  0.00  0.00     0.117 C 
HETATM   33  O           1      42.557  -9.818   8.084  0.00  0.00    -0.274 OA
HETATM   34  H           1      39.912 -11.502   8.359  0.00  0.00     0.171 HD
ENDBRANCH   4  30
BRANCH  12  35
HETATM   35  O           1      42.069 -16.634   0.015  0.00  0.00    -0.395 OA
HETATM   36  H           1      41.748 -17.498   0.280  0.00  0.00     0.210 HD
ENDBRANCH  12  35
TORSDOF 8
ENDMDL
MODEL 5
REMARK VINA RESULT:      -7.9      2.523      6.870
REMARK  8 active torsions:
REMARK  status: ('A' for Active; 'I' for Inactive)
REMARK    1  A    between atoms: C_1  and  C_15 
REMARK    2  A    between atoms: C_2  and  C_5 
REMARK    3  A    between atoms: C_5  and  C_13 
REMARK       I    between atoms: C_7  and  N_8 
REMARK    4  A    between atoms: N_8  and  C_9 
REMARK       I    between atoms: C_13  and  N_14 
REMARK    5  A    between atoms: N_14  and  C_15 
REMARK    6  A    between atoms: C_23  and  C_24 
REMARK    7  A    between atoms: C_24  and  O_25 
REMARK    8  A    between atoms: C_27  and  O_28 
ROOT
HETATM    1  C           1      43.679 -15.125   5.354  0.00  0.00     0.056 C 
HETATM    2  C           1      42.509 -15.748   2.617  0.00  0.00     0.055 C 
HETATM    3  C           1      43.481 -16.690   3.366  0.00  0.00     0.012 C 
HETATM    4  C           1      42.010 -12.404   3.960  0.00  0.00     0.173 A 
HETATM    5  S           1      41.730 -13.211   2.771  0.00  0.00    -0.055 SA
HETATM    6  C           1      42.423 -14.403   3.279  0.00  0.00     0.012 A 
HETATM    7  C           1      42.940 -14.148   4.485  0.00  0.00     0.056 A 
HETATM    8  C           1      43.316 -16.586   4.920  0.00  0.00    -0.030 C 
HETATM    9  C           1      41.877 -16.890   5.389  0.00  0.00     0.016 C 
HETATM   10  C           1      43.615 -18.110   2.715  0.00  0.00     0.008 C 
HETATM   11  C           1      44.225 -17.947   1.294  0.00  0.00     0.020 C 
HETATM   12  C           1      44.608 -18.946   3.549  0.00  0.00     0.128 C 
HETATM   13  C           1      44.279 -18.973   5.036  0.00  0.00     0.033 C 
HETATM   14  C           1      44.304 -17.555   5.612  0.00  0.00     0.013 C 
HETATM   15  N           1      42.686 -12.975   4.860  0.00  0.00    -0.227 NA
ENDROOT
BRANCH   1  16
HETATM   16  C           1      43.484 -14.773   6.847  0.00  0.00     0.114 C 
BRANCH  16  17
HETATM   17  C           1      44.569 -13.846   7.388  0.00  0.00     0.218 C 
HETATM   18  N           1      44.263 -13.203   8.555  0.00  0.00    -0.355 N 
HETATM   19  H           1      43.322 -13.269   8.948  0.00  0.00     0.162 HD
HETATM   20  O           1      45.618 -13.700   6.813  0.00  0.00    -0.274 OA
BRANCH  18  21
HETATM   21  C           1      45.222 -12.334   9.239  0.00  0.00     0.187 C 
BRANCH  21  22
HETATM   22  C           1      44.539 -11.704  10.418  0.00  0.00     0.070 A 
HETATM   23  C           1      44.555 -10.400  10.731  0.00  0.00     0.036 A 
HETATM   24  C           1      43.802 -10.307  11.833  0.00  0.00     0.027 A 
HETATM   25  C           1      43.417 -11.568  12.067  0.00  0.00     0.142 A 
HETATM   26  O           1      43.868 -12.347  11.228  0.00  0.00    -0.325 OA
ENDBRANCH  21  22
ENDBRANCH  18  21
ENDBRANCH  16  17
ENDBRANCH   1  16
BRANCH  10  27
HETATM   27  C           1      42.273 -18.851   2.553  0.00  0.00     0.176 C 
BRANCH  27  28
HETATM   28  O           1      42.391 -19.965   1.686  0.00  0.00    -0.400 OA
HETATM   29  H           1      41.613 -20.031   1.131  0.00  0.00     0.209 HD
ENDBRANCH  27  28
ENDBRANCH  10  27
BRANCH   4  30
HETATM   30  N           1      41.445 -11.188   4.084  0.00  0.00    -0.306 N 
HETATM   31  C           1      40.334 -10.844   4.801  0.00  0.00     0.219 C 
HETATM   32  C           1      40.010  -9.365   4.768  0.00  0.00     0.117 C 
HETATM   33  O           1      39.665 -11.647   5.401  0.00  0.00    -0.274 OA
HETATM   34  H           1      41.907 -10.492   3.517  0.00  0.00     0.171 HD
ENDBRANCH   4  30
BRANCH  12  35
HETATM   35  O           1      44.661 -20.276   3.090  0.00  0.00    -0.395 OA
HETATM   36  H           1      43.781 -20.655   3.074  0.00  0.00     0.210 HD
ENDBRANCH  12  35
TORSDOF 8
ENDMDL
MODEL 6
REMARK VINA RESULT:      -7.9      2.805      3.373
REMARK  8 active torsions:
REMARK  status: ('A' for Active; 'I' for Inactive)
REMARK    1  A    between atoms: C_1  and  C_15 
REMARK    2  A    between atoms: C_2  and  C_5 
REMARK    3  A    between atoms: C_5  and  C_13 
REMARK       I    between atoms: C_7  and  N_8 
REMARK    4  A    between atoms: N_8  and  C_9 
REMARK       I    between atoms: C_13  and  N_14 
REMARK    5  A    between atoms: N_14  and  C_15 
REMARK    6  A    between atoms: C_23  and  C_24 
REMARK    7  A    between atoms: C_24  and  O_25 
REMARK    8  A    between atoms: C_27  and  O_28 
ROOT
HETATM    1  C           1      41.270 -15.184   3.529  0.00  0.00     0.056 C 
HETATM    2  C           1      39.827 -12.884   2.159  0.00  0.00     0.055 C 
HETATM    3  C           1      40.741 -13.885   1.414  0.00  0.00     0.012 C 
HETATM    4  C           1      39.817 -12.973   5.795  0.00  0.00     0.173 A 
HETATM    5  S           1      39.355 -12.156   4.672  0.00  0.00    -0.055 SA
HETATM    6  C           1      39.947 -13.030   3.649  0.00  0.00     0.012 A 
HETATM    7  C           1      40.582 -14.050   4.233  0.00  0.00     0.056 A 
HETATM    8  C           1      40.710 -15.306   2.071  0.00  0.00    -0.030 C 
HETATM    9  C           1      39.287 -15.900   2.144  0.00  0.00     0.016 C 
HETATM   10  C           1      40.660 -13.775  -0.148  0.00  0.00     0.008 C 
HETATM   11  C           1      41.172 -12.368  -0.571  0.00  0.00     0.020 C 
HETATM   12  C           1      41.614 -14.816  -0.768  0.00  0.00     0.128 C 
HETATM   13  C           1      41.401 -16.227  -0.235  0.00  0.00     0.033 C 
HETATM   14  C           1      41.633 -16.263   1.278  0.00  0.00     0.013 C 
HETATM   15  N           1      40.493 -13.994   5.487  0.00  0.00    -0.227 NA
ENDROOT
BRANCH   1  16
HETATM   16  C           1      41.234 -16.461   4.399  0.00  0.00     0.114 C 
BRANCH  16  17
HETATM   17  C           1      42.618 -17.053   4.647  0.00  0.00     0.218 C 
HETATM   18  N           1      42.862 -18.251   4.035  0.00  0.00    -0.355 N 
HETATM   19  H           1      42.109 -18.745   3.551  0.00  0.00     0.162 HD
HETATM   20  O           1      43.430 -16.492   5.339  0.00  0.00    -0.274 OA
BRANCH  18  21
HETATM   21  C           1      44.163 -18.916   4.117  0.00  0.00     0.187 C 
BRANCH  21  22
HETATM   22  C           1      44.122 -20.155   3.270  0.00  0.00     0.070 A 
HETATM   23  C           1      43.542 -20.264   2.065  0.00  0.00     0.036 A 
HETATM   24  C           1      43.777 -21.527   1.690  0.00  0.00     0.027 A 
HETATM   25  C           1      44.469 -22.043   2.713  0.00  0.00     0.142 A 
HETATM   26  O           1      44.645 -21.219   3.609  0.00  0.00    -0.325 OA
ENDBRANCH  21  22
ENDBRANCH  18  21
ENDBRANCH  16  17
ENDBRANCH   1  16
BRANCH  10  27
HETATM   27  C           1      39.234 -13.930  -0.713  0.00  0.00     0.176 C 
BRANCH  27  28
HETATM   28  O           1      39.094 -13.285  -1.966  0.00  0.00    -0.400 OA
HETATM   29  H           1      38.626 -12.457  -1.857  0.00  0.00     0.209 HD
ENDBRANCH  27  28
ENDBRANCH  10  27
BRANCH   4  30
HETATM   30  N           1      39.406 -12.677   7.044  0.00  0.00    -0.306 N 
HETATM   31  C           1      39.762 -11.608   7.816  0.00  0.00     0.219 C 
HETATM   32  C           1      39.060 -11.552   9.157  0.00  0.00     0.117 C 
HETATM   33  O           1      40.570 -10.784   7.466  0.00  0.00    -0.274 OA
HETATM   34  H           1      38.805 -13.391   7.427  0.00  0.00     0.171 HD
ENDBRANCH   4  30
BRANCH  12  35
HETATM   35  O           1      41.480 -14.856  -2.169  0.00  0.00    -0.395 OA
HETATM   36  H           1      42.301 -15.144  -2.571  0.00  0.00     0.210 HD
ENDBRANCH  12  35
TORSDOF 8
ENDMDL
MODEL 7
REMARK VINA RESULT:      -7.7      3.059      7.041
REMARK  8 active torsions:
REMARK  status: ('A' for Active; 'I' for Inactive)
REMARK    1  A    between atoms: C_1  and  C_15 
REMARK    2  A    between atoms: C_2  and  C_5 
REMARK    3  A    between atoms: C_5  and  C_13 
REMARK       I    between atoms: C_7  and  N_8 
REMARK    4  A    between atoms: N_8  and  C_9 
REMARK       I    between atoms: C_13  and  N_14 
REMARK    5  A    between atoms: N_14  and  C_15 
REMARK    6  A    between atoms: C_23  and  C_24 
REMARK    7  A    between atoms: C_24  and  O_25 
REMARK    8  A    between atoms: C_27  and  O_28 
ROOT
HETATM    1  C           1      41.531 -13.557   5.173  0.00  0.00     0.056 C 
HETATM    2  C           1      43.621 -15.706   4.661  0.00  0.00     0.055 C 
HETATM    3  C           1      42.236 -15.677   3.971  0.00  0.00     0.012 C 
HETATM    4  C           1      44.201 -13.390   7.405  0.00  0.00     0.173 A 
HETATM    5  S           1      44.792 -14.561   6.754  0.00  0.00    -0.055 SA
HETATM    6  C           1      43.700 -14.710   5.782  0.00  0.00     0.012 A 
HETATM    7  C           1      42.774 -13.770   5.990  0.00  0.00     0.056 A 
HETATM    8  C           1      41.716 -14.214   3.764  0.00  0.00    -0.030 C 
HETATM    9  C           1      42.692 -13.344   2.944  0.00  0.00     0.016 C 
HETATM   10  C           1      42.094 -16.702   2.793  0.00  0.00     0.008 C 
HETATM   11  C           1      42.228 -18.140   3.371  0.00  0.00     0.020 C 
HETATM   12  C           1      40.677 -16.577   2.196  0.00  0.00     0.128 C 
HETATM   13  C           1      40.299 -15.149   1.824  0.00  0.00     0.033 C 
HETATM   14  C           1      40.337 -14.250   3.063  0.00  0.00     0.013 C 
HETATM   15  N           1      43.089 -13.012   6.942  0.00  0.00    -0.227 NA
ENDROOT
BRANCH   1  16
HETATM   16  C           1      41.119 -12.067   5.198  0.00  0.00     0.114 C 
BRANCH  16  17
HETATM   17  C           1      39.959 -11.785   6.149  0.00  0.00     0.218 C 
HETATM   18  N           1      40.269 -11.823   7.480  0.00  0.00    -0.355 N 
HETATM   19  H           1      41.193 -12.137   7.785  0.00  0.00     0.162 HD
HETATM   20  O           1      38.850 -11.548   5.739  0.00  0.00    -0.274 OA
BRANCH  18  21
HETATM   21  C           1      39.286 -11.508   8.517  0.00  0.00     0.187 C 
BRANCH  21  22
HETATM   22  C           1      39.991 -10.823   9.652  0.00  0.00     0.070 A 
HETATM   23  C           1      40.398  -9.545   9.667  0.00  0.00     0.036 A 
HETATM   24  C           1      40.945  -9.379  10.877  0.00  0.00     0.027 A 
HETATM   25  C           1      40.810 -10.577  11.458  0.00  0.00     0.142 A 
HETATM   26  O           1      40.257 -11.387  10.716  0.00  0.00    -0.325 OA
ENDBRANCH  21  22
ENDBRANCH  18  21
ENDBRANCH  16  17
ENDBRANCH   1  16
BRANCH  10  27
HETATM   27  C           1      43.167 -16.548   1.698  0.00  0.00     0.176 C 
BRANCH  27  28
HETATM   28  O           1      43.449 -17.783   1.063  0.00  0.00    -0.400 OA
HETATM   29  H           1      42.730 -18.399   1.212  0.00  0.00     0.209 HD
ENDBRANCH  27  28
ENDBRANCH  10  27
BRANCH   4  30
HETATM   30  N           1      44.907 -12.725   8.340  0.00  0.00    -0.306 N 
HETATM   31  C           1      44.563 -11.576   8.995  0.00  0.00     0.219 C 
HETATM   32  C           1      45.571 -11.132  10.035  0.00  0.00     0.117 C 
HETATM   33  O           1      43.551 -10.964   8.762  0.00  0.00    -0.274 OA
HETATM   34  H           1      45.813 -13.138   8.501  0.00  0.00     0.171 HD
ENDBRANCH   4  30
BRANCH  12  35
HETATM   35  O           1      40.539 -17.377   1.046  0.00  0.00    -0.395 OA
HETATM   36  H           1      39.777 -17.094   0.538  0.00  0.00     0.210 HD
ENDBRANCH  12  35
TORSDOF 8
ENDMDL
MODEL 8
REMARK VINA RESULT:      -7.5      3.361      4.503
REMARK  8 active torsions:
REMARK  status: ('A' for Active; 'I' for Inactive)
REMARK    1  A    between atoms: C_1  and  C_15 
REMARK    2  A    between atoms: C_2  and  C_5 
REMARK    3  A    between atoms: C_5  and  C_13 
REMARK       I    between atoms: C_7  and  N_8 
REMARK    4  A    between atoms: N_8  and  C_9 
REMARK       I    between atoms: C_13  and  N_14 
REMARK    5  A    between atoms: N_14  and  C_15 
REMARK    6  A    between atoms: C_23  and  C_24 
REMARK    7  A    between atoms: C_24  and  O_25 
REMARK    8  A    between atoms: C_27  and  O_28 
ROOT
HETATM    1  C           1      41.233 -14.760   1.874  0.00  0.00     0.056 C 
HETATM    2  C           1      41.137 -11.955   0.703  0.00  0.00     0.055 C 
HETATM    3  C           1      41.463 -13.218  -0.128  0.00  0.00     0.012 C 
HETATM    4  C           1      40.990 -12.293   4.322  0.00  0.00     0.173 A 
HETATM    5  S           1      41.017 -11.275   3.270  0.00  0.00    -0.055 SA
HETATM    6  C           1      41.131 -12.249   2.175  0.00  0.00     0.012 A 
HETATM    7  C           1      41.170 -13.489   2.672  0.00  0.00     0.056 A 
HETATM    8  C           1      40.724 -14.486   0.419  0.00  0.00    -0.030 C 
HETATM    9  C           1      39.190 -14.309   0.465  0.00  0.00     0.016 C 
HETATM   10  C           1      41.488 -12.969  -1.676  0.00  0.00     0.008 C 
HETATM   11  C           1      42.634 -11.968  -1.997  0.00  0.00     0.020 C 
HETATM   12  C           1      41.825 -14.296  -2.386  0.00  0.00     0.128 C 
HETATM   13  C           1      40.935 -15.456  -1.959  0.00  0.00     0.033 C 
HETATM   14  C           1      41.080 -15.711  -0.457  0.00  0.00     0.013 C 
HETATM   15  N           1      41.087 -13.489   3.927  0.00  0.00    -0.227 NA
ENDROOT
BRANCH   1  16
HETATM   16  C           1      40.553 -15.915   2.645  0.00  0.00     0.114 C 
BRANCH  16  17
HETATM   17  C           1      41.535 -16.739   3.472  0.00  0.00     0.218 C 
HETATM   18  N           1      42.734 -17.002   2.870  0.00  0.00    -0.355 N 
HETATM   19  H           1      42.885 -16.751   1.890  0.00  0.00     0.162 HD
HETATM   20  O           1      41.258 -17.127   4.580  0.00  0.00    -0.274 OA
BRANCH  18  21
HETATM   21  C           1      43.810 -17.720   3.556  0.00  0.00     0.187 C 
BRANCH  21  22
HETATM   22  C           1      43.874 -19.118   3.012  0.00  0.00     0.070 A 
HETATM   23  C           1      44.589 -20.130   3.527  0.00  0.00     0.036 A 
HETATM   24  C           1      44.319 -21.172   2.733  0.00  0.00     0.027 A 
HETATM   25  C           1      43.473 -20.674   1.824  0.00  0.00     0.142 A 
HETATM   26  O           1      43.243 -19.481   2.017  0.00  0.00    -0.325 OA
ENDBRANCH  21  22
ENDBRANCH  18  21
ENDBRANCH  16  17
ENDBRANCH   1  16
BRANCH  10  27
HETATM   27  C           1      40.184 -12.364  -2.232  0.00  0.00     0.176 C 
BRANCH  27  28
HETATM   28  O           1      40.406 -11.665  -3.444  0.00  0.00    -0.400 OA
HETATM   29  H           1      39.725 -11.889  -4.080  0.00  0.00     0.209 HD
ENDBRANCH  27  28
ENDBRANCH  10  27
BRANCH   4  30
HETATM   30  N           1      40.744 -11.926   5.594  0.00  0.00    -0.306 N 
HETATM   31  C           1      39.553 -11.952   6.262  0.00  0.00     0.219 C 
HETATM   32  C           1      39.647 -11.521   7.712  0.00  0.00     0.117 C 
HETATM   33  O           1      38.515 -12.279   5.744  0.00  0.00    -0.274 OA
HETATM   34  H           1      41.561 -11.545   6.047  0.00  0.00     0.171 HD
ENDBRANCH   4  30
BRANCH  12  35
HETATM   35  O           1      41.725 -14.163  -3.784  0.00  0.00    -0.395 OA
HETATM   36  H           1      41.488 -13.263  -4.014  0.00  0.00     0.210 HD
ENDBRANCH  12  35
TORSDOF 8
ENDMDL
MODEL 9
REMARK VINA RESULT:      -7.3      3.463      7.956
REMARK  8 active torsions:
REMARK  status: ('A' for Active; 'I' for Inactive)
REMARK    1  A    between atoms: C_1  and  C_15 
REMARK    2  A    between atoms: C_2  and  C_5 
REMARK    3  A    between atoms: C_5  and  C_13 
REMARK       I    between atoms: C_7  and  N_8 
REMARK    4  A    between atoms: N_8  and  C_9 
REMARK       I    between atoms: C_13  and  N_14 
REMARK    5  A    between atoms: N_14  and  C_15 
REMARK    6  A    between atoms: C_23  and  C_24 
REMARK    7  A    between atoms: C_24  and  O_25 
REMARK    8  A    between atoms: C_27  and  O_28 
ROOT
HETATM    1  C           1      41.587 -15.359   1.297  0.00  0.00     0.056 C 
HETATM    2  C           1      41.635 -15.825   4.301  0.00  0.00     0.055 C 
HETATM    3  C           1      41.380 -14.444   3.655  0.00  0.00     0.012 C 
HETATM    4  C           1      42.741 -18.535   2.141  0.00  0.00     0.173 A 
HETATM    5  S           1      42.588 -18.192   3.557  0.00  0.00    -0.055 SA
HETATM    6  C           1      42.103 -16.831   3.289  0.00  0.00     0.012 A 
HETATM    7  C           1      42.071 -16.610   1.972  0.00  0.00     0.056 A 
HETATM    8  C           1      40.651 -14.569   2.274  0.00  0.00    -0.030 C 
HETATM    9  C           1      39.306 -15.321   2.375  0.00  0.00     0.016 C 
HETATM   10  C           1      40.892 -13.350   4.667  0.00  0.00     0.008 C 
HETATM   11  C           1      42.020 -13.106   5.710  0.00  0.00     0.020 C 
HETATM   12  C           1      40.679 -12.027   3.904  0.00  0.00     0.128 C 
HETATM   13  C           1      39.791 -12.173   2.674  0.00  0.00     0.033 C 
HETATM   14  C           1      40.415 -13.159   1.683  0.00  0.00     0.013 C 
HETATM   15  N           1      42.448 -17.619   1.323  0.00  0.00    -0.227 NA
ENDROOT
BRANCH   1  16
HETATM   16  C           1      41.015 -15.687  -0.102  0.00  0.00     0.114 C 
BRANCH  16  17
HETATM   17  C           1      41.063 -14.499  -1.059  0.00  0.00     0.218 C 
HETATM   18  N           1      42.287 -13.907  -1.198  0.00  0.00    -0.355 N 
HETATM   19  H           1      43.067 -14.188  -0.600  0.00  0.00     0.162 HD
HETATM   20  O           1      40.079 -14.121  -1.645  0.00  0.00    -0.274 OA
BRANCH  18  21
HETATM   21  C           1      42.515 -12.801  -2.130  0.00  0.00     0.187 C 
BRANCH  21  22
HETATM   22  C           1      42.601 -11.524  -1.344  0.00  0.00     0.070 A 
HETATM   23  C           1      43.608 -10.640  -1.390  0.00  0.00     0.036 A 
HETATM   24  C           1      43.239  -9.664  -0.553  0.00  0.00     0.027 A 
HETATM   25  C           1      42.050 -10.069  -0.091  0.00  0.00     0.142 A 
HETATM   26  O           1      41.717 -11.152  -0.570  0.00  0.00    -0.325 OA
ENDBRANCH  21  22
ENDBRANCH  18  21
ENDBRANCH  16  17
ENDBRANCH   1  16
BRANCH  10  27
HETATM   27  C           1      39.625 -13.744   5.450  0.00  0.00     0.176 C 
BRANCH  27  28
HETATM   28  O           1      39.705 -13.352   6.809  0.00  0.00    -0.400 OA
HETATM   29  H           1      40.612 -13.409   7.113  0.00  0.00     0.209 HD
ENDBRANCH  27  28
ENDBRANCH  10  27
BRANCH   4  30
HETATM   30  N           1      43.050 -19.799   1.795  0.00  0.00    -0.306 N 
HETATM   31  C           1      44.100 -20.558   2.229  0.00  0.00     0.219 C 
HETATM   32  C           1      44.113 -21.969   1.677  0.00  0.00     0.117 C 
HETATM   33  O           1      44.948 -20.142   2.978  0.00  0.00    -0.274 OA
HETATM   34  H           1      42.429 -20.165   1.088  0.00  0.00     0.171 HD
ENDBRANCH   4  30
BRANCH  12  35
HETATM   35  O           1      40.109 -11.047   4.738  0.00  0.00    -0.395 OA
HETATM   36  H           1      39.301 -11.378   5.132  0.00  0.00     0.210 HD
ENDBRANCH  12  35
TORSDOF 8
ENDMDL
MODEL 10
REMARK VINA RESULT:      -7.3      3.502      5.326
REMARK  8 active torsions:
REMARK  status: ('A' for Active; 'I' for Inactive)
REMARK    1  A    between atoms: C_1  and  C_15 
REMARK    2  A    between atoms: C_2  and  C_5 
REMARK    3  A    between atoms: C_5  and  C_13 
REMARK       I    between atoms: C_7  and  N_8 
REMARK    4  A    between atoms: N_8  and  C_9 
REMARK       I    between atoms: C_13  and  N_14 
REMARK    5  A    between atoms: N_14  and  C_15 
REMARK    6  A    between atoms: C_23  and  C_24 
REMARK    7  A    between atoms: C_24  and  O_25 
REMARK    8  A    between atoms: C_27  and  O_28 
ROOT
HETATM    1  C           1      41.045 -14.772   1.604  0.00  0.00     0.056 C 
HETATM    2  C           1      41.304 -11.862   0.760  0.00  0.00     0.055 C 
HETATM    3  C           1      41.543 -13.055  -0.196  0.00  0.00     0.012 C 
HETATM    4  C           1      40.925 -12.576   4.306  0.00  0.00     0.173 A 
HETATM    5  S           1      41.114 -11.458   3.380  0.00  0.00    -0.055 SA
HETATM    6  C           1      41.187 -12.313   2.187  0.00  0.00     0.012 A 
HETATM    7  C           1      41.070 -13.597   2.540  0.00  0.00     0.056 A 
HETATM    8  C           1      40.647 -14.286   0.170  0.00  0.00    -0.030 C 
HETATM    9  C           1      39.140 -13.949   0.170  0.00  0.00     0.016 C 
HETATM   10  C           1      41.678 -12.642  -1.703  0.00  0.00     0.008 C 
HETATM   11  C           1      42.937 -11.743  -1.857  0.00  0.00     0.020 C 
HETATM   12  C           1      41.915 -13.912  -2.546  0.00  0.00     0.128 C 
HETATM   13  C           1      40.887 -15.008  -2.293  0.00  0.00     0.033 C 
HETATM   14  C           1      40.921 -15.440  -0.825  0.00  0.00     0.013 C 
HETATM   15  N           1      40.918 -13.724   3.781  0.00  0.00    -0.227 NA
ENDROOT
BRANCH   1  16
HETATM   16  C           1      40.207 -15.923   2.208  0.00  0.00     0.114 C 
BRANCH  16  17
HETATM   17  C           1      41.064 -17.004   2.861  0.00  0.00     0.218 C 
HETATM   18  N           1      40.977 -17.077   4.223  0.00  0.00    -0.355 N 
HETATM   19  H           1      40.459 -16.368   4.746  0.00  0.00     0.162 HD
HETATM   20  O           1      41.765 -17.735   2.207  0.00  0.00    -0.274 OA
BRANCH  18  21
HETATM   21  C           1      41.682 -18.103   4.994  0.00  0.00     0.187 C 
BRANCH  21  22
HETATM   22  C           1      42.575 -17.424   5.991  0.00  0.00     0.070 A 
HETATM   23  C           1      43.703 -16.755   5.708  0.00  0.00     0.036 A 
HETATM   24  C           1      44.138 -16.309   6.892  0.00  0.00     0.027 A 
HETATM   25  C           1      43.226 -16.762   7.761  0.00  0.00     0.142 A 
HETATM   26  O           1      42.340 -17.406   7.201  0.00  0.00    -0.325 OA
ENDBRANCH  21  22
ENDBRANCH  18  21
ENDBRANCH  16  17
ENDBRANCH   1  16
BRANCH  10  27
HETATM   27  C           1      40.476 -11.841  -2.242  0.00  0.00     0.176 C 
BRANCH  27  28
HETATM   28  O           1      40.861 -10.950  -3.274  0.00  0.00    -0.400 OA
HETATM   29  H           1      40.783 -11.383  -4.125  0.00  0.00     0.209 HD
ENDBRANCH  27  28
ENDBRANCH  10  27
BRANCH   4  30
HETATM   30  N           1      40.649 -12.325   5.600  0.00  0.00    -0.306 N 
HETATM   31  C           1      39.429 -12.099   6.172  0.00  0.00     0.219 C 
HETATM   32  C           1      39.476 -11.909   7.675  0.00  0.00     0.117 C 
HETATM   33  O           1      38.405 -12.047   5.539  0.00  0.00    -0.274 OA
HETATM   34  H           1      41.484 -12.255   6.163  0.00  0.00     0.171 HD
ENDBRANCH   4  30
BRANCH  12  35
HETATM   35  O           1      41.906 -13.617  -3.922  0.00  0.00    -0.395 OA
HETATM   36  H           1      41.462 -14.315  -4.406  0.00  0.00     0.210 HD
ENDBRANCH  12  35
TORSDOF 8
ENDMDL
