MODEL 1
REMARK VINA RESULT:      -9.4      0.000      0.000
REMARK  10 active torsions:
REMARK  status: ('A' for Active; 'I' for Inactive)
REMARK    1  A    between atoms: C_4  and  N_5 
REMARK    2  A    between atoms: N_5  and  C_6 
REMARK    3  A    between atoms: C_6  and  N_7 
REMARK    4  A    between atoms: N_7  and  N_8 
REMARK       I    between atoms: N_8  and  C_9 
REMARK    5  A    between atoms: C_9  and  C_10 
REMARK    6  A    between atoms: C_10  and  O_11 
REMARK    7  A    between atoms: O_11  and  C_12 
REMARK    8  A    between atoms: C_23  and  C_24 
REMARK    9  A    between atoms: C_24  and  O_25 
REMARK   10  A    between atoms: C_28  and  C_29 
ROOT
HETATM    1  C   UNL     1      42.264 -14.207   5.715  1.00  0.00     0.191 C 
HETATM    2  S   UNL     1      41.438 -12.770   5.439  1.00  0.00    -0.039 SA
ENDROOT
BRANCH   1   3
HETATM    3  N   UNL     1      41.769 -15.340   5.115  1.00  0.00    -0.325 N 
HETATM    4  H   UNL     1      41.041 -15.761   5.685  1.00  0.00     0.169 HD
BRANCH   3   5
HETATM    5  C   UNL     1      42.522 -16.268   4.414  1.00  0.00     0.094 C 
HETATM    6  S   UNL     1      42.904 -15.674   2.862  1.00  0.00    -0.075 SA
HETATM    7  C   UNL     1      43.462 -17.200   2.341  1.00  0.00    -0.007 C 
HETATM    8  C   UNL     1      43.844 -17.387   0.907  1.00  0.00     0.057 C 
HETATM    9  C   UNL     1      43.485 -18.110   3.387  1.00  0.00     0.006 C 
HETATM   10  C   UNL     1      43.083 -17.512   4.653  1.00  0.00     0.085 C 
BRANCH   9  11
HETATM   11  C   UNL     1      43.831 -19.509   3.149  1.00  0.00    -0.024 A 
HETATM   12  C   UNL     1      43.206 -20.192   2.096  1.00  0.00     0.012 A 
HETATM   13  C   UNL     1      43.524 -21.525   1.835  1.00  0.00     0.001 A 
HETATM   14  C   UNL     1      44.469 -22.181   2.623  1.00  0.00     0.000 A 
HETATM   15  C   UNL     1      45.092 -21.506   3.673  1.00  0.00     0.001 A 
HETATM   16  C   UNL     1      44.773 -20.173   3.940  1.00  0.00     0.012 A 
ENDBRANCH   9  11
BRANCH  10  17
HETATM   17  C   UNL     1      43.250 -18.103   5.984  1.00  0.00     0.296 C 
HETATM   18  O   UNL     1      42.834 -19.218   6.280  1.00  0.00    -0.259 OA
BRANCH  17  19
HETATM   19  O   UNL     1      43.861 -17.276   6.878  1.00  0.00    -0.322 OA
HETATM   20  C   UNL     1      43.355 -17.364   8.210  1.00  0.00     0.213 C 
ENDBRANCH  17  19
ENDBRANCH  10  17
ENDBRANCH   3   5
ENDBRANCH   1   3
BRANCH   1  21
HETATM   21  N   UNL     1      43.326 -14.331   6.568  1.00  0.00    -0.273 N 
HETATM   22  H   UNL     1      44.153 -14.783   6.171  1.00  0.00     0.189 HD
BRANCH  21  23
HETATM   23  N   UNL     1      43.656 -13.310   7.479  1.00  0.00    -0.266 N 
HETATM   24  C   UNL     1      44.996 -13.061   7.707  1.00  0.00     0.265 C 
HETATM   25  O   UNL     1      45.904 -13.581   7.057  1.00  0.00    -0.269 OA
HETATM   26  H   UNL     1      42.953 -13.069   8.176  1.00  0.00     0.190 HD
BRANCH  24  27
HETATM   27  C   UNL     1      45.271 -12.064   8.836  1.00  0.00     0.218 C 
HETATM   28  C   UNL     1      46.635 -11.411   8.632  1.00  0.00     0.050 C 
BRANCH  27  29
HETATM   29  O   UNL     1      44.294 -11.021   8.842  1.00  0.00    -0.335 OA
BRANCH  29  30
HETATM   30  C   UNL     1      43.676 -10.761  10.038  1.00  0.00     0.091 A 
HETATM   31  C   UNL     1      42.281 -10.598  10.024  1.00  0.00     0.068 A 
HETATM   32 CL   UNL     1      41.387 -10.673   8.546  1.00  0.00    -0.081 Cl
HETATM   33  C   UNL     1      41.578 -10.351  11.206  1.00  0.00     0.046 A 
HETATM   34  C   UNL     1      42.269 -10.281  12.410  1.00  0.00     0.012 A 
HETATM   35 BR   UNL     1      41.328  -9.947  14.015  1.00  0.00    -0.051 Br
HETATM   36  C   UNL     1      43.650 -10.462  12.446  1.00  0.00     0.022 A 
HETATM   37  C   UNL     1      44.352 -10.708  11.262  1.00  0.00     0.040 A 
ENDBRANCH  29  30
ENDBRANCH  27  29
ENDBRANCH  24  27
ENDBRANCH  21  23
ENDBRANCH   1  21
TORSDOF 10
ENDMDL
MODEL 2
REMARK VINA RESULT:      -9.2      3.804     10.508
REMARK  10 active torsions:
REMARK  status: ('A' for Active; 'I' for Inactive)
REMARK    1  A    between atoms: C_4  and  N_5 
REMARK    2  A    between atoms: N_5  and  C_6 
REMARK    3  A    between atoms: C_6  and  N_7 
REMARK    4  A    between atoms: N_7  and  N_8 
REMARK       I    between atoms: N_8  and  C_9 
REMARK    5  A    between atoms: C_9  and  C_10 
REMARK    6  A    between atoms: C_10  and  O_11 
REMARK    7  A    between atoms: O_11  and  C_12 
REMARK    8  A    between atoms: C_23  and  C_24 
REMARK    9  A    between atoms: C_24  and  O_25 
REMARK   10  A    between atoms: C_28  and  C_29 
ROOT
HETATM    1  C   UNL     1      41.773 -11.874   6.260  1.00  0.00     0.191 C 
HETATM    2  S   UNL     1      40.774 -11.810   4.911  1.00  0.00    -0.039 SA
ENDROOT
BRANCH   1   3
HETATM    3  N   UNL     1      41.855 -10.741   7.033  1.00  0.00    -0.325 N 
HETATM    4  H   UNL     1      42.617 -10.146   6.719  1.00  0.00     0.169 HD
BRANCH   3   5
HETATM    5  C   UNL     1      41.646 -10.690   8.402  1.00  0.00     0.094 C 
HETATM    6  S   UNL     1      39.978 -10.720   8.751  1.00  0.00    -0.075 SA
HETATM    7  C   UNL     1      40.242 -10.303  10.383  1.00  0.00    -0.007 C 
HETATM    8  C   UNL     1      39.067 -10.023  11.265  1.00  0.00     0.057 C 
HETATM    9  C   UNL     1      41.596 -10.281  10.684  1.00  0.00     0.006 C 
HETATM   10  C   UNL     1      42.423 -10.671   9.549  1.00  0.00     0.085 C 
BRANCH   9  11
HETATM   11  C   UNL     1      42.060  -9.847  11.999  1.00  0.00    -0.024 A 
HETATM   12  C   UNL     1      42.394  -8.499  12.189  1.00  0.00     0.012 A 
HETATM   13  C   UNL     1      42.828  -8.051  13.436  1.00  0.00     0.001 A 
HETATM   14  C   UNL     1      42.929  -8.947  14.500  1.00  0.00     0.000 A 
HETATM   15  C   UNL     1      42.600 -10.290  14.315  1.00  0.00     0.001 A 
HETATM   16  C   UNL     1      42.169 -10.743  13.067  1.00  0.00     0.012 A 
ENDBRANCH   9  11
BRANCH  10  17
HETATM   17  C   UNL     1      43.848 -11.012   9.591  1.00  0.00     0.296 C 
HETATM   18  O   UNL     1      44.704 -10.266  10.053  1.00  0.00    -0.259 OA
BRANCH  17  19
HETATM   19  O   UNL     1      44.140 -12.213   9.016  1.00  0.00    -0.322 OA
HETATM   20  C   UNL     1      45.521 -12.403   8.707  1.00  0.00     0.213 C 
ENDBRANCH  17  19
ENDBRANCH  10  17
ENDBRANCH   3   5
ENDBRANCH   1   3
BRANCH   1  21
HETATM   21  N   UNL     1      42.573 -12.938   6.574  1.00  0.00    -0.273 N 
HETATM   22  H   UNL     1      43.016 -12.893   7.496  1.00  0.00     0.189 HD
BRANCH  21  23
HETATM   23  N   UNL     1      42.221 -14.251   6.211  1.00  0.00    -0.266 N 
HETATM   24  C   UNL     1      43.175 -15.239   6.366  1.00  0.00     0.265 C 
HETATM   25  O   UNL     1      44.254 -15.059   6.931  1.00  0.00    -0.269 OA
HETATM   26  H   UNL     1      41.464 -14.356   5.536  1.00  0.00     0.190 HD
BRANCH  24  27
HETATM   27  C   UNL     1      42.777 -16.600   5.785  1.00  0.00     0.218 C 
HETATM   28  C   UNL     1      41.289 -16.846   6.010  1.00  0.00     0.050 C 
BRANCH  27  29
HETATM   29  O   UNL     1      43.010 -16.638   4.376  1.00  0.00    -0.335 OA
BRANCH  29  30
HETATM   30  C   UNL     1      43.311 -17.860   3.832  1.00  0.00     0.091 A 
HETATM   31  C   UNL     1      42.708 -18.190   2.608  1.00  0.00     0.068 A 
HETATM   32 CL   UNL     1      41.589 -17.116   1.843  1.00  0.00    -0.081 Cl
HETATM   33  C   UNL     1      42.981 -19.408   1.981  1.00  0.00     0.046 A 
HETATM   34  C   UNL     1      43.873 -20.296   2.572  1.00  0.00     0.012 A 
HETATM   35 BR   UNL     1      44.251 -21.947   1.734  1.00  0.00    -0.051 Br
HETATM   36  C   UNL     1      44.498 -19.975   3.776  1.00  0.00     0.022 A 
HETATM   37  C   UNL     1      44.222 -18.756   4.402  1.00  0.00     0.040 A 
ENDBRANCH  29  30
ENDBRANCH  27  29
ENDBRANCH  24  27
ENDBRANCH  21  23
ENDBRANCH   1  21
TORSDOF 10
ENDMDL
MODEL 3
REMARK VINA RESULT:      -9.0      3.853     10.573
REMARK  10 active torsions:
REMARK  status: ('A' for Active; 'I' for Inactive)
REMARK    1  A    between atoms: C_4  and  N_5 
REMARK    2  A    between atoms: N_5  and  C_6 
REMARK    3  A    between atoms: C_6  and  N_7 
REMARK    4  A    between atoms: N_7  and  N_8 
REMARK       I    between atoms: N_8  and  C_9 
REMARK    5  A    between atoms: C_9  and  C_10 
REMARK    6  A    between atoms: C_10  and  O_11 
REMARK    7  A    between atoms: O_11  and  C_12 
REMARK    8  A    between atoms: C_23  and  C_24 
REMARK    9  A    between atoms: C_24  and  O_25 
REMARK   10  A    between atoms: C_28  and  C_29 
ROOT
HETATM    1  C   UNL     1      41.410 -11.524   6.200  1.00  0.00     0.191 C 
HETATM    2  S   UNL     1      40.424 -11.143   4.894  1.00  0.00    -0.039 SA
ENDROOT
BRANCH   1   3
HETATM    3  N   UNL     1      41.763 -10.494   7.039  1.00  0.00    -0.325 N 
HETATM    4  H   UNL     1      42.660 -10.101   6.769  1.00  0.00     0.169 HD
BRANCH   3   5
HETATM    5  C   UNL     1      41.540 -10.465   8.407  1.00  0.00     0.094 C 
HETATM    6  S   UNL     1      39.871 -10.350   8.735  1.00  0.00    -0.075 SA
HETATM    7  C   UNL     1      40.149 -10.008  10.383  1.00  0.00    -0.007 C 
HETATM    8  C   UNL     1      38.992  -9.647  11.259  1.00  0.00     0.057 C 
HETATM    9  C   UNL     1      41.495 -10.122  10.699  1.00  0.00     0.006 C 
HETATM   10  C   UNL     1      42.298 -10.553   9.563  1.00  0.00     0.085 C 
BRANCH   9  11
HETATM   11  C   UNL     1      41.978  -9.773  12.032  1.00  0.00    -0.024 A 
HETATM   12  C   UNL     1      42.383  -8.454  12.283  1.00  0.00     0.012 A 
HETATM   13  C   UNL     1      42.837  -8.086  13.549  1.00  0.00     0.001 A 
HETATM   14  C   UNL     1      42.887  -9.033  14.572  1.00  0.00     0.000 A 
HETATM   15  C   UNL     1      42.487 -10.347  14.327  1.00  0.00     0.001 A 
HETATM   16  C   UNL     1      42.036 -10.720  13.060  1.00  0.00     0.012 A 
ENDBRANCH   9  11
BRANCH  10  17
HETATM   17  C   UNL     1      43.685 -11.026   9.610  1.00  0.00     0.296 C 
HETATM   18  O   UNL     1      44.569 -10.453  10.238  1.00  0.00    -0.259 OA
BRANCH  17  19
HETATM   19  O   UNL     1      43.912 -12.132   8.846  1.00  0.00    -0.322 OA
HETATM   20  C   UNL     1      45.290 -12.403   8.590  1.00  0.00     0.213 C 
ENDBRANCH  17  19
ENDBRANCH  10  17
ENDBRANCH   3   5
ENDBRANCH   1   3
BRANCH   1  21
HETATM   21  N   UNL     1      41.955 -12.759   6.418  1.00  0.00    -0.273 N 
HETATM   22  H   UNL     1      41.438 -13.354   7.070  1.00  0.00     0.189 HD
BRANCH  21  23
HETATM   23  N   UNL     1      42.544 -13.493   5.372  1.00  0.00    -0.266 N 
HETATM   24  C   UNL     1      41.887 -14.627   4.932  1.00  0.00     0.265 C 
HETATM   25  O   UNL     1      40.756 -14.944   5.305  1.00  0.00    -0.269 OA
HETATM   26  H   UNL     1      43.550 -13.390   5.245  1.00  0.00     0.190 HD
BRANCH  24  27
HETATM   27  C   UNL     1      42.675 -15.464   3.921  1.00  0.00     0.218 C 
HETATM   28  C   UNL     1      43.689 -14.584   3.196  1.00  0.00     0.050 C 
BRANCH  27  29
HETATM   29  O   UNL     1      43.402 -16.503   4.578  1.00  0.00    -0.335 OA
BRANCH  29  30
HETATM   30  C   UNL     1      43.536 -17.688   3.901  1.00  0.00     0.091 A 
HETATM   31  C   UNL     1      44.358 -18.672   4.474  1.00  0.00     0.068 A 
HETATM   32 CL   UNL     1      45.207 -18.379   5.951  1.00  0.00    -0.081 Cl
HETATM   33  C   UNL     1      44.527 -19.912   3.854  1.00  0.00     0.046 A 
HETATM   34  C   UNL     1      43.861 -20.177   2.662  1.00  0.00     0.012 A 
HETATM   35 BR   UNL     1      44.083 -21.851   1.814  1.00  0.00    -0.051 Br
HETATM   36  C   UNL     1      43.024 -19.220   2.091  1.00  0.00     0.022 A 
HETATM   37  C   UNL     1      42.857 -17.979   2.712  1.00  0.00     0.040 A 
ENDBRANCH  29  30
ENDBRANCH  27  29
ENDBRANCH  24  27
ENDBRANCH  21  23
ENDBRANCH   1  21
TORSDOF 10
ENDMDL
MODEL 4
REMARK VINA RESULT:      -9.0      5.472      8.134
REMARK  10 active torsions:
REMARK  status: ('A' for Active; 'I' for Inactive)
REMARK    1  A    between atoms: C_4  and  N_5 
REMARK    2  A    between atoms: N_5  and  C_6 
REMARK    3  A    between atoms: C_6  and  N_7 
REMARK    4  A    between atoms: N_7  and  N_8 
REMARK       I    between atoms: N_8  and  C_9 
REMARK    5  A    between atoms: C_9  and  C_10 
REMARK    6  A    between atoms: C_10  and  O_11 
REMARK    7  A    between atoms: O_11  and  C_12 
REMARK    8  A    between atoms: C_23  and  C_24 
REMARK    9  A    between atoms: C_24  and  O_25 
REMARK   10  A    between atoms: C_28  and  C_29 
ROOT
HETATM    1  C   UNL     1      41.222 -11.980   2.842  1.00  0.00     0.191 C 
HETATM    2  S   UNL     1      40.427 -10.514   2.635  1.00  0.00    -0.039 SA
ENDROOT
BRANCH   1   3
HETATM    3  N   UNL     1      42.130 -12.342   1.878  1.00  0.00    -0.325 N 
HETATM    4  H   UNL     1      42.942 -11.731   1.900  1.00  0.00     0.169 HD
BRANCH   3   5
HETATM    5  C   UNL     1      41.811 -12.784   0.604  1.00  0.00     0.094 C 
HETATM    6  S   UNL     1      42.371 -11.678  -0.567  1.00  0.00    -0.075 SA
HETATM    7  C   UNL     1      41.481 -12.438  -1.808  1.00  0.00    -0.007 C 
HETATM    8  C   UNL     1      41.443 -11.813  -3.167  1.00  0.00     0.057 C 
HETATM    9  C   UNL     1      40.879 -13.602  -1.355  1.00  0.00     0.006 C 
HETATM   10  C   UNL     1      41.210 -13.894   0.033  1.00  0.00     0.085 C 
BRANCH   9  11
HETATM   11  C   UNL     1      39.982 -14.362  -2.221  1.00  0.00    -0.024 A 
HETATM   12  C   UNL     1      38.619 -14.030  -2.244  1.00  0.00     0.012 A 
HETATM   13  C   UNL     1      37.739 -14.729  -3.069  1.00  0.00     0.001 A 
HETATM   14  C   UNL     1      38.215 -15.761  -3.877  1.00  0.00     0.000 A 
HETATM   15  C   UNL     1      39.569 -16.096  -3.857  1.00  0.00     0.001 A 
HETATM   16  C   UNL     1      40.453 -15.402  -3.029  1.00  0.00     0.012 A 
ENDBRANCH   9  11
BRANCH  10  17
HETATM   17  C   UNL     1      40.972 -15.159   0.735  1.00  0.00     0.296 C 
HETATM   18  O   UNL     1      41.372 -16.242   0.321  1.00  0.00    -0.259 OA
BRANCH  17  19
HETATM   19  O   UNL     1      40.216 -15.026   1.862  1.00  0.00    -0.322 OA
HETATM   20  C   UNL     1      38.819 -14.857   1.623  1.00  0.00     0.213 C 
ENDBRANCH  17  19
ENDBRANCH  10  17
ENDBRANCH   3   5
ENDBRANCH   1   3
BRANCH   1  21
HETATM   21  N   UNL     1      40.948 -12.867   3.847  1.00  0.00    -0.273 N 
HETATM   22  H   UNL     1      39.968 -13.151   3.922  1.00  0.00     0.189 HD
BRANCH  21  23
HETATM   23  N   UNL     1      41.836 -13.912   4.163  1.00  0.00    -0.266 N 
HETATM   24  C   UNL     1      42.604 -13.781   5.304  1.00  0.00     0.265 C 
HETATM   25  O   UNL     1      42.451 -12.876   6.126  1.00  0.00    -0.269 OA
HETATM   26  H   UNL     1      42.140 -14.507   3.392  1.00  0.00     0.190 HD
BRANCH  24  27
HETATM   27  C   UNL     1      43.667 -14.869   5.481  1.00  0.00     0.218 C 
HETATM   28  C   UNL     1      44.608 -14.496   6.622  1.00  0.00     0.050 C 
BRANCH  27  29
HETATM   29  O   UNL     1      43.062 -16.120   5.816  1.00  0.00    -0.335 OA
BRANCH  29  30
HETATM   30  C   UNL     1      43.230 -17.146   4.923  1.00  0.00     0.091 A 
HETATM   31  C   UNL     1      44.185 -18.128   5.236  1.00  0.00     0.068 A 
HETATM   32 CL   UNL     1      45.146 -18.014   6.669  1.00  0.00    -0.081 Cl
HETATM   33  C   UNL     1      44.398 -19.215   4.387  1.00  0.00     0.046 A 
HETATM   34  C   UNL     1      43.644 -19.333   3.224  1.00  0.00     0.012 A 
HETATM   35 BR   UNL     1      43.924 -20.800   2.066  1.00  0.00    -0.051 Br
HETATM   36  C   UNL     1      42.677 -18.380   2.909  1.00  0.00     0.022 A 
HETATM   37  C   UNL     1      42.466 -17.291   3.760  1.00  0.00     0.040 A 
ENDBRANCH  29  30
ENDBRANCH  27  29
ENDBRANCH  24  27
ENDBRANCH  21  23
ENDBRANCH   1  21
TORSDOF 10
ENDMDL
MODEL 5
REMARK VINA RESULT:      -8.5      4.021     10.490
REMARK  10 active torsions:
REMARK  status: ('A' for Active; 'I' for Inactive)
REMARK    1  A    between atoms: C_4  and  N_5 
REMARK    2  A    between atoms: N_5  and  C_6 
REMARK    3  A    between atoms: C_6  and  N_7 
REMARK    4  A    between atoms: N_7  and  N_8 
REMARK       I    between atoms: N_8  and  C_9 
REMARK    5  A    between atoms: C_9  and  C_10 
REMARK    6  A    between atoms: C_10  and  O_11 
REMARK    7  A    between atoms: O_11  and  C_12 
REMARK    8  A    between atoms: C_23  and  C_24 
REMARK    9  A    between atoms: C_24  and  O_25 
REMARK   10  A    between atoms: C_28  and  C_29 
ROOT
HETATM    1  C   UNL     1      41.240 -11.004   6.343  1.00  0.00     0.191 C 
HETATM    2  S   UNL     1      41.352  -9.348   6.082  1.00  0.00    -0.039 SA
ENDROOT
BRANCH   1   3
HETATM    3  N   UNL     1      41.098 -11.425   7.643  1.00  0.00    -0.325 N 
HETATM    4  H   UNL     1      40.126 -11.638   7.849  1.00  0.00     0.169 HD
BRANCH   3   5
HETATM    5  C   UNL     1      41.790 -10.913   8.729  1.00  0.00     0.094 C 
HETATM    6  S   UNL     1      43.434 -11.356   8.650  1.00  0.00    -0.075 SA
HETATM    7  C   UNL     1      43.721 -10.838  10.250  1.00  0.00    -0.007 C 
HETATM    8  C   UNL     1      45.056 -11.099  10.873  1.00  0.00     0.057 C 
HETATM    9  C   UNL     1      42.606 -10.208  10.781  1.00  0.00     0.006 C 
HETATM   10  C   UNL     1      41.514 -10.106   9.822  1.00  0.00     0.085 C 
BRANCH   9  11
HETATM   11  C   UNL     1      42.590  -9.774  12.176  1.00  0.00    -0.024 A 
HETATM   12  C   UNL     1      42.724  -8.408  12.463  1.00  0.00     0.012 A 
HETATM   13  C   UNL     1      42.699  -7.961  13.783  1.00  0.00     0.001 A 
HETATM   14  C   UNL     1      42.540  -8.875  14.824  1.00  0.00     0.000 A 
HETATM   15  C   UNL     1      42.408 -10.236  14.544  1.00  0.00     0.001 A 
HETATM   16  C   UNL     1      42.436 -10.688  13.223  1.00  0.00     0.012 A 
ENDBRANCH   9  11
BRANCH  10  17
HETATM   17  C   UNL     1      40.313  -9.277   9.957  1.00  0.00     0.296 C 
HETATM   18  O   UNL     1      40.285  -8.085   9.672  1.00  0.00    -0.259 OA
BRANCH  17  19
HETATM   19  O   UNL     1      39.246  -9.942  10.482  1.00  0.00    -0.322 OA
HETATM   20  C   UNL     1      39.031  -9.713  11.875  1.00  0.00     0.213 C 
ENDBRANCH  17  19
ENDBRANCH  10  17
ENDBRANCH   3   5
ENDBRANCH   1   3
BRANCH   1  21
HETATM   21  N   UNL     1      41.380 -11.948   5.362  1.00  0.00    -0.273 N 
HETATM   22  H   UNL     1      41.100 -11.647   4.426  1.00  0.00     0.189 HD
BRANCH  21  23
HETATM   23  N   UNL     1      42.483 -12.820   5.340  1.00  0.00    -0.266 N 
HETATM   24  C   UNL     1      42.229 -14.178   5.278  1.00  0.00     0.265 C 
HETATM   25  O   UNL     1      41.106 -14.651   5.100  1.00  0.00    -0.269 OA
HETATM   26  H   UNL     1      43.358 -12.469   5.729  1.00  0.00     0.190 HD
BRANCH  24  27
HETATM   27  C   UNL     1      43.469 -15.062   5.436  1.00  0.00     0.218 C 
HETATM   28  C   UNL     1      44.406 -14.462   6.479  1.00  0.00     0.050 C 
BRANCH  27  29
HETATM   29  O   UNL     1      43.107 -16.369   5.886  1.00  0.00    -0.335 OA
BRANCH  29  30
HETATM   30  C   UNL     1      43.333 -17.407   5.019  1.00  0.00     0.091 A 
HETATM   31  C   UNL     1      44.380 -18.290   5.326  1.00  0.00     0.068 A 
HETATM   32 CL   UNL     1      45.378 -18.046   6.717  1.00  0.00    -0.081 Cl
HETATM   33  C   UNL     1      44.658 -19.383   4.502  1.00  0.00     0.046 A 
HETATM   34  C   UNL     1      43.875 -19.605   3.373  1.00  0.00     0.012 A 
HETATM   35 BR   UNL     1      44.242 -21.081   2.251  1.00  0.00    -0.051 Br
HETATM   36  C   UNL     1      42.818 -18.751   3.067  1.00  0.00     0.022 A 
HETATM   37  C   UNL     1      42.543 -17.656   3.891  1.00  0.00     0.040 A 
ENDBRANCH  29  30
ENDBRANCH  27  29
ENDBRANCH  24  27
ENDBRANCH  21  23
ENDBRANCH   1  21
TORSDOF 10
ENDMDL
MODEL 6
REMARK VINA RESULT:      -8.5      5.693      8.464
REMARK  10 active torsions:
REMARK  status: ('A' for Active; 'I' for Inactive)
REMARK    1  A    between atoms: C_4  and  N_5 
REMARK    2  A    between atoms: N_5  and  C_6 
REMARK    3  A    between atoms: C_6  and  N_7 
REMARK    4  A    between atoms: N_7  and  N_8 
REMARK       I    between atoms: N_8  and  C_9 
REMARK    5  A    between atoms: C_9  and  C_10 
REMARK    6  A    between atoms: C_10  and  O_11 
REMARK    7  A    between atoms: O_11  and  C_12 
REMARK    8  A    between atoms: C_23  and  C_24 
REMARK    9  A    between atoms: C_24  and  O_25 
REMARK   10  A    between atoms: C_28  and  C_29 
ROOT
HETATM    1  C   UNL     1      40.306 -11.684   4.098  1.00  0.00     0.191 C 
HETATM    2  S   UNL     1      38.808 -10.954   4.314  1.00  0.00    -0.039 SA
ENDROOT
BRANCH   1   3
HETATM    3  N   UNL     1      40.519 -12.879   4.742  1.00  0.00    -0.325 N 
HETATM    4  H   UNL     1      40.869 -12.723   5.684  1.00  0.00     0.169 HD
BRANCH   3   5
HETATM    5  C   UNL     1      41.023 -14.027   4.152  1.00  0.00     0.094 C 
HETATM    6  S   UNL     1      39.965 -14.587   2.939  1.00  0.00    -0.075 SA
HETATM    7  C   UNL     1      40.793 -16.072   2.806  1.00  0.00    -0.007 C 
HETATM    8  C   UNL     1      40.232 -17.145   1.928  1.00  0.00     0.057 C 
HETATM    9  C   UNL     1      41.945 -16.076   3.579  1.00  0.00     0.006 C 
HETATM   10  C   UNL     1      42.168 -14.802   4.250  1.00  0.00     0.085 C 
BRANCH   9  11
HETATM   11  C   UNL     1      42.757 -17.284   3.699  1.00  0.00    -0.024 A 
HETATM   12  C   UNL     1      42.712 -18.015   4.895  1.00  0.00     0.012 A 
HETATM   13  C   UNL     1      43.466 -19.180   5.036  1.00  0.00     0.001 A 
HETATM   14  C   UNL     1      44.267 -19.620   3.983  1.00  0.00     0.000 A 
HETATM   15  C   UNL     1      44.317 -18.895   2.792  1.00  0.00     0.001 A 
HETATM   16  C   UNL     1      43.566 -17.727   2.649  1.00  0.00     0.012 A 
ENDBRANCH   9  11
BRANCH  10  17
HETATM   17  C   UNL     1      43.403 -14.376   4.915  1.00  0.00     0.296 C 
HETATM   18  O   UNL     1      44.240 -13.658   4.380  1.00  0.00    -0.259 OA
BRANCH  17  19
HETATM   19  O   UNL     1      43.559 -14.896   6.165  1.00  0.00    -0.322 OA
HETATM   20  C   UNL     1      44.611 -14.305   6.927  1.00  0.00     0.213 C 
ENDBRANCH  17  19
ENDBRANCH  10  17
ENDBRANCH   3   5
ENDBRANCH   1   3
BRANCH   1  21
HETATM   21  N   UNL     1      41.345 -11.119   3.410  1.00  0.00    -0.273 N 
HETATM   22  H   UNL     1      42.277 -11.406   3.718  1.00  0.00     0.189 HD
BRANCH  21  23
HETATM   23  N   UNL     1      41.276 -10.914   2.020  1.00  0.00    -0.266 N 
HETATM   24  C   UNL     1      42.074 -11.705   1.213  1.00  0.00     0.265 C 
HETATM   25  O   UNL     1      42.725 -12.662   1.632  1.00  0.00    -0.269 OA
HETATM   26  H   UNL     1      40.955 -10.000   1.703  1.00  0.00     0.190 HD
BRANCH  24  27
HETATM   27  C   UNL     1      42.075 -11.303  -0.264  1.00  0.00     0.218 C 
HETATM   28  C   UNL     1      42.881 -10.021  -0.453  1.00  0.00     0.050 C 
BRANCH  27  29
HETATM   29  O   UNL     1      42.687 -12.315  -1.065  1.00  0.00    -0.335 OA
BRANCH  29  30
HETATM   30  C   UNL     1      41.847 -13.196  -1.697  1.00  0.00     0.091 A 
HETATM   31  C   UNL     1      41.538 -12.944  -3.043  1.00  0.00     0.068 A 
HETATM   32 CL   UNL     1      42.154 -11.547  -3.855  1.00  0.00    -0.081 Cl
HETATM   33  C   UNL     1      40.707 -13.807  -3.760  1.00  0.00     0.046 A 
HETATM   34  C   UNL     1      40.192 -14.938  -3.133  1.00  0.00     0.012 A 
HETATM   35 BR   UNL     1      39.065 -16.113  -4.093  1.00  0.00    -0.051 Br
HETATM   36  C   UNL     1      40.507 -15.215  -1.805  1.00  0.00     0.022 A 
HETATM   37  C   UNL     1      41.338 -14.349  -1.088  1.00  0.00     0.040 A 
ENDBRANCH  29  30
ENDBRANCH  27  29
ENDBRANCH  24  27
ENDBRANCH  21  23
ENDBRANCH   1  21
TORSDOF 10
ENDMDL
MODEL 7
REMARK VINA RESULT:      -8.4      6.369      9.383
REMARK  10 active torsions:
REMARK  status: ('A' for Active; 'I' for Inactive)
REMARK    1  A    between atoms: C_4  and  N_5 
REMARK    2  A    between atoms: N_5  and  C_6 
REMARK    3  A    between atoms: C_6  and  N_7 
REMARK    4  A    between atoms: N_7  and  N_8 
REMARK       I    between atoms: N_8  and  C_9 
REMARK    5  A    between atoms: C_9  and  C_10 
REMARK    6  A    between atoms: C_10  and  O_11 
REMARK    7  A    between atoms: O_11  and  C_12 
REMARK    8  A    between atoms: C_23  and  C_24 
REMARK    9  A    between atoms: C_24  and  O_25 
REMARK   10  A    between atoms: C_28  and  C_29 
ROOT
HETATM    1  C   UNL     1      39.279 -14.946   1.350  1.00  0.00     0.191 C 
HETATM    2  S   UNL     1      37.901 -14.082   0.927  1.00  0.00    -0.039 SA
ENDROOT
BRANCH   1   3
HETATM    3  N   UNL     1      40.200 -15.180   0.359  1.00  0.00    -0.325 N 
HETATM    4  H   UNL     1      40.833 -15.929   0.625  1.00  0.00     0.169 HD
BRANCH   3   5
HETATM    5  C   UNL     1      40.802 -14.205  -0.421  1.00  0.00     0.094 C 
HETATM    6  S   UNL     1      41.682 -13.120   0.557  1.00  0.00    -0.075 SA
HETATM    7  C   UNL     1      41.891 -12.022  -0.731  1.00  0.00    -0.007 C 
HETATM    8  C   UNL     1      42.525 -10.693  -0.462  1.00  0.00     0.057 C 
HETATM    9  C   UNL     1      41.415 -12.548  -1.923  1.00  0.00     0.006 C 
HETATM   10  C   UNL     1      40.917 -13.909  -1.770  1.00  0.00     0.085 C 
BRANCH   9  11
HETATM   11  C   UNL     1      41.397 -11.740  -3.139  1.00  0.00    -0.024 A 
HETATM   12  C   UNL     1      40.203 -11.107  -3.514  1.00  0.00     0.012 A 
HETATM   13  C   UNL     1      40.157 -10.318  -4.663  1.00  0.00     0.001 A 
HETATM   14  C   UNL     1      41.303 -10.156  -5.442  1.00  0.00     0.000 A 
HETATM   15  C   UNL     1      42.492 -10.785  -5.073  1.00  0.00     0.001 A 
HETATM   16  C   UNL     1      42.541 -11.579  -3.926  1.00  0.00     0.012 A 
ENDBRANCH   9  11
BRANCH  10  17
HETATM   17  C   UNL     1      40.599 -14.844  -2.853  1.00  0.00     0.296 C 
HETATM   18  O   UNL     1      41.420 -15.211  -3.686  1.00  0.00    -0.259 OA
BRANCH  17  19
HETATM   19  O   UNL     1      39.290 -15.224  -2.881  1.00  0.00    -0.322 OA
HETATM   20  C   UNL     1      38.903 -15.930  -4.059  1.00  0.00     0.213 C 
ENDBRANCH  17  19
ENDBRANCH  10  17
ENDBRANCH   3   5
ENDBRANCH   1   3
BRANCH   1  21
HETATM   21  N   UNL     1      39.486 -15.507   2.581  1.00  0.00    -0.273 N 
HETATM   22  H   UNL     1      38.790 -16.201   2.865  1.00  0.00     0.189 HD
BRANCH  21  23
HETATM   23  N   UNL     1      40.781 -15.828   3.029  1.00  0.00    -0.266 N 
HETATM   24  C   UNL     1      41.383 -14.966   3.926  1.00  0.00     0.265 C 
HETATM   25  O   UNL     1      40.798 -14.020   4.457  1.00  0.00    -0.269 OA
HETATM   26  H   UNL     1      41.340 -16.433   2.428  1.00  0.00     0.190 HD
BRANCH  24  27
HETATM   27  C   UNL     1      42.849 -15.288   4.227  1.00  0.00     0.218 C 
HETATM   28  C   UNL     1      43.629 -13.996   4.449  1.00  0.00     0.050 C 
BRANCH  27  29
HETATM   29  O   UNL     1      42.964 -16.068   5.418  1.00  0.00    -0.335 OA
BRANCH  29  30
HETATM   30  C   UNL     1      43.431 -17.350   5.275  1.00  0.00     0.091 A 
HETATM   31  C   UNL     1      43.576 -18.120   6.440  1.00  0.00     0.068 A 
HETATM   32 CL   UNL     1      43.227 -17.458   7.999  1.00  0.00    -0.081 Cl
HETATM   33  C   UNL     1      44.025 -19.441   6.373  1.00  0.00     0.046 A 
HETATM   34  C   UNL     1      44.317 -20.001   5.134  1.00  0.00     0.012 A 
HETATM   35 BR   UNL     1      44.927 -21.787   5.031  1.00  0.00    -0.051 Br
HETATM   36  C   UNL     1      44.158 -19.258   3.966  1.00  0.00     0.022 A 
HETATM   37  C   UNL     1      43.709 -17.936   4.035  1.00  0.00     0.040 A 
ENDBRANCH  29  30
ENDBRANCH  27  29
ENDBRANCH  24  27
ENDBRANCH  21  23
ENDBRANCH   1  21
TORSDOF 10
ENDMDL
MODEL 8
REMARK VINA RESULT:      -8.2      6.367      9.164
REMARK  10 active torsions:
REMARK  status: ('A' for Active; 'I' for Inactive)
REMARK    1  A    between atoms: C_4  and  N_5 
REMARK    2  A    between atoms: N_5  and  C_6 
REMARK    3  A    between atoms: C_6  and  N_7 
REMARK    4  A    between atoms: N_7  and  N_8 
REMARK       I    between atoms: N_8  and  C_9 
REMARK    5  A    between atoms: C_9  and  C_10 
REMARK    6  A    between atoms: C_10  and  O_11 
REMARK    7  A    between atoms: O_11  and  C_12 
REMARK    8  A    between atoms: C_23  and  C_24 
REMARK    9  A    between atoms: C_24  and  O_25 
REMARK   10  A    between atoms: C_28  and  C_29 
ROOT
HETATM    1  C   UNL     1      40.378 -11.155   3.843  1.00  0.00     0.191 C 
HETATM    2  S   UNL     1      39.858  -9.867   4.788  1.00  0.00    -0.039 SA
ENDROOT
BRANCH   1   3
HETATM    3  N   UNL     1      39.855 -12.393   4.128  1.00  0.00    -0.325 N 
HETATM    4  H   UNL     1      39.135 -12.325   4.841  1.00  0.00     0.169 HD
BRANCH   3   5
HETATM    5  C   UNL     1      40.580 -13.573   4.192  1.00  0.00     0.094 C 
HETATM    6  S   UNL     1      41.459 -13.652   5.650  1.00  0.00    -0.075 SA
HETATM    7  C   UNL     1      42.370 -14.988   5.108  1.00  0.00    -0.007 C 
HETATM    8  C   UNL     1      43.500 -15.492   5.949  1.00  0.00     0.057 C 
HETATM    9  C   UNL     1      41.907 -15.449   3.885  1.00  0.00     0.006 C 
HETATM   10  C   UNL     1      40.740 -14.712   3.419  1.00  0.00     0.085 C 
BRANCH   9  11
HETATM   11  C   UNL     1      42.604 -16.522   3.180  1.00  0.00    -0.024 A 
HETATM   12  C   UNL     1      42.350 -17.851   3.549  1.00  0.00     0.012 A 
HETATM   13  C   UNL     1      42.990 -18.898   2.887  1.00  0.00     0.001 A 
HETATM   14  C   UNL     1      43.885 -18.624   1.853  1.00  0.00     0.000 A 
HETATM   15  C   UNL     1      44.142 -17.303   1.485  1.00  0.00     0.001 A 
HETATM   16  C   UNL     1      43.507 -16.252   2.147  1.00  0.00     0.012 A 
ENDBRANCH   9  11
BRANCH  10  17
HETATM   17  C   UNL     1      39.849 -15.100   2.321  1.00  0.00     0.296 C 
HETATM   18  O   UNL     1      39.624 -16.267   2.020  1.00  0.00    -0.259 OA
BRANCH  17  19
HETATM   19  O   UNL     1      39.336 -14.041   1.632  1.00  0.00    -0.322 OA
HETATM   20  C   UNL     1      38.067 -14.286   1.027  1.00  0.00     0.213 C 
ENDBRANCH  17  19
ENDBRANCH  10  17
ENDBRANCH   3   5
ENDBRANCH   1   3
BRANCH   1  21
HETATM   21  N   UNL     1      41.352 -11.063   2.886  1.00  0.00    -0.273 N 
HETATM   22  H   UNL     1      42.238 -11.516   3.122  1.00  0.00     0.189 HD
BRANCH  21  23
HETATM   23  N   UNL     1      41.044 -11.164   1.517  1.00  0.00    -0.266 N 
HETATM   24  C   UNL     1      41.809 -12.020   0.747  1.00  0.00     0.265 C 
HETATM   25  O   UNL     1      42.643 -12.795   1.218  1.00  0.00    -0.269 OA
HETATM   26  H   UNL     1      40.557 -10.375   1.094  1.00  0.00     0.190 HD
BRANCH  24  27
HETATM   27  C   UNL     1      41.530 -11.940  -0.756  1.00  0.00     0.218 C 
HETATM   28  C   UNL     1      42.759 -11.406  -1.485  1.00  0.00     0.050 C 
BRANCH  27  29
HETATM   29  O   UNL     1      41.245 -13.235  -1.289  1.00  0.00    -0.335 OA
BRANCH  29  30
HETATM   30  C   UNL     1      40.091 -13.363  -2.019  1.00  0.00     0.091 A 
HETATM   31  C   UNL     1      39.933 -14.532  -2.781  1.00  0.00     0.068 A 
HETATM   32 CL   UNL     1      41.170 -15.739  -2.834  1.00  0.00    -0.081 Cl
HETATM   33  C   UNL     1      38.776 -14.744  -3.534  1.00  0.00     0.046 A 
HETATM   34  C   UNL     1      37.764 -13.790  -3.515  1.00  0.00     0.012 A 
HETATM   35 BR   UNL     1      36.194 -14.065  -4.530  1.00  0.00    -0.051 Br
HETATM   36  C   UNL     1      37.895 -12.634  -2.747  1.00  0.00     0.022 A 
HETATM   37  C   UNL     1      39.054 -12.423  -1.995  1.00  0.00     0.040 A 
ENDBRANCH  29  30
ENDBRANCH  27  29
ENDBRANCH  24  27
ENDBRANCH  21  23
ENDBRANCH   1  21
TORSDOF 10
ENDMDL
MODEL 9
REMARK VINA RESULT:      -8.2      5.828      8.972
REMARK  10 active torsions:
REMARK  status: ('A' for Active; 'I' for Inactive)
REMARK    1  A    between atoms: C_4  and  N_5 
REMARK    2  A    between atoms: N_5  and  C_6 
REMARK    3  A    between atoms: C_6  and  N_7 
REMARK    4  A    between atoms: N_7  and  N_8 
REMARK       I    between atoms: N_8  and  C_9 
REMARK    5  A    between atoms: C_9  and  C_10 
REMARK    6  A    between atoms: C_10  and  O_11 
REMARK    7  A    between atoms: O_11  and  C_12 
REMARK    8  A    between atoms: C_23  and  C_24 
REMARK    9  A    between atoms: C_24  and  O_25 
REMARK   10  A    between atoms: C_28  and  C_29 
ROOT
HETATM    1  C   UNL     1      41.467 -11.549   4.070  1.00  0.00     0.191 C 
HETATM    2  S   UNL     1      40.688 -11.127   5.498  1.00  0.00    -0.039 SA
ENDROOT
BRANCH   1   3
HETATM    3  N   UNL     1      41.006 -10.974   2.911  1.00  0.00    -0.325 N 
HETATM    4  H   UNL     1      40.583 -10.070   3.101  1.00  0.00     0.169 HD
BRANCH   3   5
HETATM    5  C   UNL     1      40.399 -11.654   1.867  1.00  0.00     0.094 C 
HETATM    6  S   UNL     1      38.860 -12.217   2.337  1.00  0.00    -0.075 SA
HETATM    7  C   UNL     1      38.721 -13.201   0.951  1.00  0.00    -0.007 C 
HETATM    8  C   UNL     1      37.554 -14.128   0.827  1.00  0.00     0.057 C 
HETATM    9  C   UNL     1      39.777 -12.989   0.076  1.00  0.00     0.006 C 
HETATM   10  C   UNL     1      40.686 -11.951   0.544  1.00  0.00     0.085 C 
BRANCH   9  11
HETATM   11  C   UNL     1      39.918 -13.799  -1.130  1.00  0.00    -0.024 A 
HETATM   12  C   UNL     1      40.798 -14.891  -1.114  1.00  0.00     0.012 A 
HETATM   13  C   UNL     1      40.945 -15.692  -2.247  1.00  0.00     0.001 A 
HETATM   14  C   UNL     1      40.214 -15.408  -3.399  1.00  0.00     0.000 A 
HETATM   15  C   UNL     1      39.339 -14.321  -3.421  1.00  0.00     0.001 A 
HETATM   16  C   UNL     1      39.191 -13.515  -2.291  1.00  0.00     0.012 A 
ENDBRANCH   9  11
BRANCH  10  17
HETATM   17  C   UNL     1      41.735 -11.297  -0.243  1.00  0.00     0.296 C 
HETATM   18  O   UNL     1      42.932 -11.450  -0.026  1.00  0.00    -0.259 OA
BRANCH  17  19
HETATM   19  O   UNL     1      41.255 -10.458  -1.204  1.00  0.00    -0.322 OA
HETATM   20  C   UNL     1      41.996  -9.248  -1.360  1.00  0.00     0.213 C 
ENDBRANCH  17  19
ENDBRANCH  10  17
ENDBRANCH   3   5
ENDBRANCH   1   3
BRANCH   1  21
HETATM   21  N   UNL     1      42.453 -12.494   3.982  1.00  0.00    -0.273 N 
HETATM   22  H   UNL     1      43.329 -12.254   4.453  1.00  0.00     0.189 HD
BRANCH  21  23
HETATM   23  N   UNL     1      42.159 -13.868   4.063  1.00  0.00    -0.266 N 
HETATM   24  C   UNL     1      42.624 -14.562   5.163  1.00  0.00     0.265 C 
HETATM   25  O   UNL     1      43.153 -14.019   6.135  1.00  0.00    -0.269 OA
HETATM   26  H   UNL     1      41.960 -14.349   3.186  1.00  0.00     0.190 HD
BRANCH  24  27
HETATM   27  C   UNL     1      42.418 -16.078   5.090  1.00  0.00     0.218 C 
HETATM   28  C   UNL     1      41.129 -16.462   5.810  1.00  0.00     0.050 C 
BRANCH  27  29
HETATM   29  O   UNL     1      42.296 -16.508   3.733  1.00  0.00    -0.335 OA
BRANCH  29  30
HETATM   30  C   UNL     1      42.821 -17.737   3.424  1.00  0.00     0.091 A 
HETATM   31  C   UNL     1      42.381 -18.351   2.241  1.00  0.00     0.068 A 
HETATM   32 CL   UNL     1      41.184 -17.606   1.239  1.00  0.00    -0.081 Cl
HETATM   33  C   UNL     1      42.887 -19.592   1.848  1.00  0.00     0.046 A 
HETATM   34  C   UNL     1      43.848 -20.218   2.635  1.00  0.00     0.012 A 
HETATM   35 BR   UNL     1      44.539 -21.899   2.114  1.00  0.00    -0.051 Br
HETATM   36  C   UNL     1      44.312 -19.613   3.801  1.00  0.00     0.022 A 
HETATM   37  C   UNL     1      43.804 -18.371   4.193  1.00  0.00     0.040 A 
ENDBRANCH  29  30
ENDBRANCH  27  29
ENDBRANCH  24  27
ENDBRANCH  21  23
ENDBRANCH   1  21
TORSDOF 10
ENDMDL
MODEL 10
REMARK VINA RESULT:      -8.2      2.116      3.165
REMARK  10 active torsions:
REMARK  status: ('A' for Active; 'I' for Inactive)
REMARK    1  A    between atoms: C_4  and  N_5 
REMARK    2  A    between atoms: N_5  and  C_6 
REMARK    3  A    between atoms: C_6  and  N_7 
REMARK    4  A    between atoms: N_7  and  N_8 
REMARK       I    between atoms: N_8  and  C_9 
REMARK    5  A    between atoms: C_9  and  C_10 
REMARK    6  A    between atoms: C_10  and  O_11 
REMARK    7  A    between atoms: O_11  and  C_12 
REMARK    8  A    between atoms: C_23  and  C_24 
REMARK    9  A    between atoms: C_24  and  O_25 
REMARK   10  A    between atoms: C_28  and  C_29 
ROOT
HETATM    1  C   UNL     1      43.222 -13.876   5.561  1.00  0.00     0.191 C 
HETATM    2  S   UNL     1      41.628 -13.348   5.593  1.00  0.00    -0.039 SA
ENDROOT
BRANCH   1   3
HETATM    3  N   UNL     1      43.595 -14.679   4.510  1.00  0.00    -0.325 N 
HETATM    4  H   UNL     1      43.418 -14.217   3.623  1.00  0.00     0.169 HD
BRANCH   3   5
HETATM    5  C   UNL     1      43.428 -16.054   4.457  1.00  0.00     0.094 C 
HETATM    6  S   UNL     1      43.117 -16.677   6.013  1.00  0.00    -0.075 SA
HETATM    7  C   UNL     1      43.339 -18.285   5.488  1.00  0.00    -0.007 C 
HETATM    8  C   UNL     1      43.328 -19.390   6.496  1.00  0.00     0.057 C 
HETATM    9  C   UNL     1      43.508 -18.346   4.113  1.00  0.00     0.006 C 
HETATM   10  C   UNL     1      43.397 -17.037   3.481  1.00  0.00     0.085 C 
BRANCH   9  11
HETATM   11  C   UNL     1      43.817 -19.613   3.456  1.00  0.00    -0.024 A 
HETATM   12  C   UNL     1      44.735 -20.483   4.061  1.00  0.00     0.012 A 
HETATM   13  C   UNL     1      45.042 -21.706   3.465  1.00  0.00     0.001 A 
HETATM   14  C   UNL     1      44.432 -22.067   2.264  1.00  0.00     0.000 A 
HETATM   15  C   UNL     1      43.520 -21.203   1.657  1.00  0.00     0.001 A 
HETATM   16  C   UNL     1      43.213 -19.976   2.248  1.00  0.00     0.012 A 
ENDBRANCH   9  11
BRANCH  10  17
HETATM   17  C   UNL     1      43.257 -16.776   2.045  1.00  0.00     0.296 C 
HETATM   18  O   UNL     1      44.206 -16.762   1.269  1.00  0.00    -0.259 OA
BRANCH  17  19
HETATM   19  O   UNL     1      41.979 -16.495   1.663  1.00  0.00    -0.322 OA
HETATM   20  C   UNL     1      41.761 -16.529   0.253  1.00  0.00     0.213 C 
ENDBRANCH  17  19
ENDBRANCH  10  17
ENDBRANCH   3   5
ENDBRANCH   1   3
BRANCH   1  21
HETATM   21  N   UNL     1      44.131 -13.639   6.556  1.00  0.00    -0.273 N 
HETATM   22  H   UNL     1      45.059 -13.351   6.238  1.00  0.00     0.189 HD
BRANCH  21  23
HETATM   23  N   UNL     1      43.753 -13.008   7.756  1.00  0.00    -0.266 N 
HETATM   24  C   UNL     1      44.759 -12.565   8.594  1.00  0.00     0.265 C 
HETATM   25  O   UNL     1      45.951 -12.565   8.283  1.00  0.00    -0.269 OA
HETATM   26  H   UNL     1      42.827 -13.228   8.121  1.00  0.00     0.190 HD
BRANCH  24  27
HETATM   27  C   UNL     1      44.272 -12.054   9.953  1.00  0.00     0.218 C 
HETATM   28  C   UNL     1      45.384 -12.190  10.988  1.00  0.00     0.050 C 
BRANCH  27  29
HETATM   29  O   UNL     1      43.922 -10.671   9.879  1.00  0.00    -0.335 OA
BRANCH  29  30
HETATM   30  C   UNL     1      42.612 -10.350  10.128  1.00  0.00     0.091 A 
HETATM   31  C   UNL     1      42.300  -9.840  11.398  1.00  0.00     0.068 A 
HETATM   32 CL   UNL     1      43.514  -9.673  12.618  1.00  0.00    -0.081 Cl
HETATM   33  C   UNL     1      40.992  -9.471  11.719  1.00  0.00     0.046 A 
HETATM   34  C   UNL     1      39.992  -9.597  10.761  1.00  0.00     0.012 A 
HETATM   35 BR   UNL     1      38.217  -9.101  11.184  1.00  0.00    -0.051 Br
HETATM   36  C   UNL     1      40.288 -10.080   9.488  1.00  0.00     0.022 A 
HETATM   37  C   UNL     1      41.598 -10.451   9.169  1.00  0.00     0.040 A 
ENDBRANCH  29  30
ENDBRANCH  27  29
ENDBRANCH  24  27
ENDBRANCH  21  23
ENDBRANCH   1  21
TORSDOF 10
ENDMDL
