MODEL 1
REMARK VINA RESULT:      -7.9      0.000      0.000
REMARK  5 active torsions:
REMARK  status: ('A' for Active; 'I' for Inactive)
REMARK    1  A    between atoms: C_3  and  N_4 
REMARK       I    between atoms: N_4  and  C_5 
REMARK       I    between atoms: C_5  and  N_6 
REMARK    2  A    between atoms: N_6  and  C_7 
REMARK    3  A    between atoms: C_7  and  C_8 
REMARK    4  A    between atoms: C_8  and  O_9 
REMARK    5  A    between atoms: O_9  and  C_10 
ROOT
HETATM    1  N   UNL     1      41.911 -16.422   5.257  1.00  0.00    -0.307 N 
HETATM    2  C   UNL     1      41.451 -16.926   6.437  1.00  0.00     0.320 C 
HETATM    3  N   UNL     1      42.416 -17.402   7.277  1.00  0.00    -0.340 N 
HETATM    4  O   UNL     1      40.288 -16.935   6.820  1.00  0.00    -0.247 OA
HETATM    5  H   UNL     1      42.756 -15.885   5.410  1.00  0.00     0.170 HD
HETATM    6  H   UNL     1      41.977 -17.724   8.132  1.00  0.00     0.164 HD
ENDROOT
BRANCH   3   7
HETATM    7  C   UNL     1      43.663 -18.088   6.935  1.00  0.00     0.156 C 
BRANCH   7   8
HETATM    8  C   UNL     1      43.577 -19.536   6.407  1.00  0.00     0.142 C 
HETATM    9  C   UNL     1      43.749 -20.509   7.576  1.00  0.00     0.042 C 
BRANCH   8  10
HETATM   10  O   UNL     1      44.633 -19.721   5.457  1.00  0.00    -0.343 OA
BRANCH  10  11
HETATM   11  C   UNL     1      44.368 -20.207   4.207  1.00  0.00     0.091 A 
HETATM   12  C   UNL     1      44.682 -21.559   3.982  1.00  0.00     0.067 A 
HETATM   13 CL   UNL     1      45.344 -22.548   5.237  1.00  0.00    -0.081 Cl
HETATM   14  C   UNL     1      44.458 -22.150   2.735  1.00  0.00     0.026 A 
HETATM   15  C   UNL     1      43.926 -21.393   1.695  1.00  0.00     0.002 A 
HETATM   16  C   UNL     1      43.621 -20.050   1.903  1.00  0.00     0.003 A 
HETATM   17  C   UNL     1      43.841 -19.458   3.151  1.00  0.00     0.038 A 
ENDBRANCH  10  11
ENDBRANCH   8  10
ENDBRANCH   7   8
ENDBRANCH   3   7
BRANCH   1  18
HETATM   18  C   UNL     1      41.134 -16.032   4.142  1.00  0.00     0.059 A 
HETATM   19  C   UNL     1      40.413 -14.835   4.013  1.00  0.00    -0.032 A 
HETATM   20  C   UNL     1      40.323 -13.769   5.068  1.00  0.00     0.050 C 
HETATM   21  C   UNL     1      39.709 -14.610   2.816  1.00  0.00     0.028 A 
HETATM   22  C   UNL     1      39.692 -15.588   1.835  1.00  0.00     0.117 A 
HETATM   23  N   UNL     1      40.321 -16.771   1.953  1.00  0.00    -0.271 NA
HETATM   24  C   UNL     1      41.024 -16.957   3.095  1.00  0.00     0.146 A 
ENDBRANCH   1  18
TORSDOF 5
ENDMDL
MODEL 2
REMARK VINA RESULT:      -7.6      1.744      2.068
REMARK  5 active torsions:
REMARK  status: ('A' for Active; 'I' for Inactive)
REMARK    1  A    between atoms: C_3  and  N_4 
REMARK       I    between atoms: N_4  and  C_5 
REMARK       I    between atoms: C_5  and  N_6 
REMARK    2  A    between atoms: N_6  and  C_7 
REMARK    3  A    between atoms: C_7  and  C_8 
REMARK    4  A    between atoms: C_8  and  O_9 
REMARK    5  A    between atoms: O_9  and  C_10 
ROOT
HETATM    1  N   UNL     1      43.246 -15.404   4.405  1.00  0.00    -0.307 N 
HETATM    2  C   UNL     1      42.643 -15.675   5.596  1.00  0.00     0.320 C 
HETATM    3  N   UNL     1      43.408 -16.370   6.487  1.00  0.00    -0.340 N 
HETATM    4  O   UNL     1      41.527 -15.310   5.946  1.00  0.00    -0.247 OA
HETATM    5  H   UNL     1      44.212 -15.139   4.552  1.00  0.00     0.170 HD
HETATM    6  H   UNL     1      42.883 -16.493   7.345  1.00  0.00     0.164 HD
ENDROOT
BRANCH   3   7
HETATM    7  C   UNL     1      44.394 -17.419   6.217  1.00  0.00     0.156 C 
BRANCH   7   8
HETATM    8  C   UNL     1      43.897 -18.878   6.125  1.00  0.00     0.142 C 
HETATM    9  C   UNL     1      43.804 -19.468   7.534  1.00  0.00     0.042 C 
BRANCH   8  10
HETATM   10  O   UNL     1      44.845 -19.616   5.347  1.00  0.00    -0.343 OA
BRANCH  10  11
HETATM   11  C   UNL     1      44.486 -20.163   4.146  1.00  0.00     0.091 A 
HETATM   12  C   UNL     1      44.697 -21.546   4.001  1.00  0.00     0.067 A 
HETATM   13 CL   UNL     1      45.353 -22.495   5.290  1.00  0.00    -0.081 Cl
HETATM   14  C   UNL     1      44.372 -22.199   2.809  1.00  0.00     0.026 A 
HETATM   15  C   UNL     1      43.842 -21.477   1.743  1.00  0.00     0.002 A 
HETATM   16  C   UNL     1      43.639 -20.105   1.872  1.00  0.00     0.003 A 
HETATM   17  C   UNL     1      43.960 -19.449   3.066  1.00  0.00     0.038 A 
ENDBRANCH  10  11
ENDBRANCH   8  10
ENDBRANCH   7   8
ENDBRANCH   3   7
BRANCH   1  18
HETATM   18  C   UNL     1      42.636 -14.865   3.248  1.00  0.00     0.059 A 
HETATM   19  C   UNL     1      41.754 -15.537   2.388  1.00  0.00    -0.032 A 
HETATM   20  C   UNL     1      41.329 -16.969   2.542  1.00  0.00     0.050 C 
HETATM   21  C   UNL     1      41.228 -14.829   1.292  1.00  0.00     0.028 A 
HETATM   22  C   UNL     1      41.639 -13.527   1.053  1.00  0.00     0.117 A 
HETATM   23  N   UNL     1      42.531 -12.877   1.822  1.00  0.00    -0.271 NA
HETATM   24  C   UNL     1      42.998 -13.559   2.895  1.00  0.00     0.146 A 
ENDBRANCH   1  18
TORSDOF 5
ENDMDL
MODEL 3
REMARK VINA RESULT:      -7.4      3.053      6.587
REMARK  5 active torsions:
REMARK  status: ('A' for Active; 'I' for Inactive)
REMARK    1  A    between atoms: C_3  and  N_4 
REMARK       I    between atoms: N_4  and  C_5 
REMARK       I    between atoms: C_5  and  N_6 
REMARK    2  A    between atoms: N_6  and  C_7 
REMARK    3  A    between atoms: C_7  and  C_8 
REMARK    4  A    between atoms: C_8  and  O_9 
REMARK    5  A    between atoms: O_9  and  C_10 
ROOT
HETATM    1  N   UNL     1      42.985 -18.337   2.535  1.00  0.00    -0.307 N 
HETATM    2  C   UNL     1      43.487 -17.383   1.701  1.00  0.00     0.320 C 
HETATM    3  N   UNL     1      42.642 -16.346   1.433  1.00  0.00    -0.340 N 
HETATM    4  O   UNL     1      44.618 -17.350   1.232  1.00  0.00    -0.247 OA
HETATM    5  H   UNL     1      42.463 -17.906   3.288  1.00  0.00     0.170 HD
HETATM    6  H   UNL     1      43.117 -15.682   0.834  1.00  0.00     0.164 HD
ENDROOT
BRANCH   3   7
HETATM    7  C   UNL     1      41.186 -16.374   1.282  1.00  0.00     0.156 C 
BRANCH   7   8
HETATM    8  C   UNL     1      40.321 -15.907   2.474  1.00  0.00     0.142 C 
HETATM    9  C   UNL     1      39.110 -15.136   1.945  1.00  0.00     0.042 C 
BRANCH   8  10
HETATM   10  O   UNL     1      41.127 -15.051   3.292  1.00  0.00    -0.343 OA
BRANCH  10  11
HETATM   11  C   UNL     1      41.645 -15.503   4.474  1.00  0.00     0.091 A 
HETATM   12  C   UNL     1      42.917 -15.019   4.826  1.00  0.00     0.067 A 
HETATM   13 CL   UNL     1      43.759 -13.893   3.818  1.00  0.00    -0.081 Cl
HETATM   14  C   UNL     1      43.538 -15.427   6.009  1.00  0.00     0.026 A 
HETATM   15  C   UNL     1      42.898 -16.331   6.852  1.00  0.00     0.002 A 
HETATM   16  C   UNL     1      41.643 -16.826   6.509  1.00  0.00     0.003 A 
HETATM   17  C   UNL     1      41.018 -16.416   5.326  1.00  0.00     0.038 A 
ENDBRANCH  10  11
ENDBRANCH   8  10
ENDBRANCH   7   8
ENDBRANCH   3   7
BRANCH   1  18
HETATM   18  C   UNL     1      43.564 -19.591   2.835  1.00  0.00     0.059 A 
HETATM   19  C   UNL     1      44.321 -19.901   3.976  1.00  0.00    -0.032 A 
HETATM   20  C   UNL     1      44.667 -18.928   5.067  1.00  0.00     0.050 C 
HETATM   21  C   UNL     1      44.804 -21.215   4.115  1.00  0.00     0.028 A 
HETATM   22  C   UNL     1      44.580 -22.140   3.107  1.00  0.00     0.117 A 
HETATM   23  N   UNL     1      43.914 -21.856   1.974  1.00  0.00    -0.271 NA
HETATM   24  C   UNL     1      43.423 -20.598   1.873  1.00  0.00     0.146 A 
ENDBRANCH   1  18
TORSDOF 5
ENDMDL
MODEL 4
REMARK VINA RESULT:      -7.4      2.645      3.507
REMARK  5 active torsions:
REMARK  status: ('A' for Active; 'I' for Inactive)
REMARK    1  A    between atoms: C_3  and  N_4 
REMARK       I    between atoms: N_4  and  C_5 
REMARK       I    between atoms: C_5  and  N_6 
REMARK    2  A    between atoms: N_6  and  C_7 
REMARK    3  A    between atoms: C_7  and  C_8 
REMARK    4  A    between atoms: C_8  and  O_9 
REMARK    5  A    between atoms: O_9  and  C_10 
ROOT
HETATM    1  N   UNL     1      41.873 -15.284   2.811  1.00  0.00    -0.307 N 
HETATM    2  C   UNL     1      40.833 -15.477   3.670  1.00  0.00     0.320 C 
HETATM    3  N   UNL     1      41.014 -16.475   4.583  1.00  0.00    -0.340 N 
HETATM    4  O   UNL     1      39.805 -14.814   3.727  1.00  0.00    -0.247 OA
HETATM    5  H   UNL     1      42.754 -15.362   3.304  1.00  0.00     0.170 HD
HETATM    6  H   UNL     1      40.203 -16.517   5.188  1.00  0.00     0.164 HD
ENDROOT
BRANCH   3   7
HETATM    7  C   UNL     1      41.717 -17.748   4.412  1.00  0.00     0.156 C 
BRANCH   7   8
HETATM    8  C   UNL     1      42.951 -18.023   5.299  1.00  0.00     0.142 C 
HETATM    9  C   UNL     1      43.318 -16.747   6.060  1.00  0.00     0.042 C 
BRANCH   8  10
HETATM   10  O   UNL     1      44.030 -18.409   4.442  1.00  0.00    -0.343 OA
BRANCH  10  11
HETATM   11  C   UNL     1      44.253 -19.727   4.152  1.00  0.00     0.091 A 
HETATM   12  C   UNL     1      44.063 -20.114   2.813  1.00  0.00     0.067 A 
HETATM   13 CL   UNL     1      43.597 -18.967   1.605  1.00  0.00    -0.081 Cl
HETATM   14  C   UNL     1      44.256 -21.440   2.416  1.00  0.00     0.026 A 
HETATM   15  C   UNL     1      44.632 -22.397   3.354  1.00  0.00     0.002 A 
HETATM   16  C   UNL     1      44.812 -22.028   4.684  1.00  0.00     0.003 A 
HETATM   17  C   UNL     1      44.623 -20.700   5.084  1.00  0.00     0.038 A 
ENDBRANCH  10  11
ENDBRANCH   8  10
ENDBRANCH   7   8
ENDBRANCH   3   7
BRANCH   1  18
HETATM   18  C   UNL     1      41.886 -14.453   1.667  1.00  0.00     0.059 A 
HETATM   19  C   UNL     1      41.646 -14.860   0.345  1.00  0.00    -0.032 A 
HETATM   20  C   UNL     1      41.360 -16.272  -0.079  1.00  0.00     0.050 C 
HETATM   21  C   UNL     1      41.682 -13.884  -0.667  1.00  0.00     0.028 A 
HETATM   22  C   UNL     1      42.014 -12.576  -0.348  1.00  0.00     0.117 A 
HETATM   23  N   UNL     1      42.310 -12.168   0.898  1.00  0.00    -0.271 NA
HETATM   24  C   UNL     1      42.234 -13.111   1.866  1.00  0.00     0.146 A 
ENDBRANCH   1  18
TORSDOF 5
ENDMDL
MODEL 5
REMARK VINA RESULT:      -7.2      2.520      3.224
REMARK  5 active torsions:
REMARK  status: ('A' for Active; 'I' for Inactive)
REMARK    1  A    between atoms: C_3  and  N_4 
REMARK       I    between atoms: N_4  and  C_5 
REMARK       I    between atoms: C_5  and  N_6 
REMARK    2  A    between atoms: N_6  and  C_7 
REMARK    3  A    between atoms: C_7  and  C_8 
REMARK    4  A    between atoms: C_8  and  O_9 
REMARK    5  A    between atoms: O_9  and  C_10 
ROOT
HETATM    1  N   UNL     1      41.521 -14.782   4.082  1.00  0.00    -0.307 N 
HETATM    2  C   UNL     1      40.971 -14.414   5.272  1.00  0.00     0.320 C 
HETATM    3  N   UNL     1      41.082 -15.337   6.271  1.00  0.00    -0.340 N 
HETATM    4  O   UNL     1      40.451 -13.335   5.531  1.00  0.00    -0.247 OA
HETATM    5  H   UNL     1      42.403 -15.255   4.234  1.00  0.00     0.170 HD
HETATM    6  H   UNL     1      40.671 -14.958   7.116  1.00  0.00     0.164 HD
ENDROOT
BRANCH   3   7
HETATM    7  C   UNL     1      41.036 -16.797   6.170  1.00  0.00     0.156 C 
BRANCH   7   8
HETATM    8  C   UNL     1      42.364 -17.577   6.281  1.00  0.00     0.142 C 
HETATM    9  C   UNL     1      43.182 -17.017   7.446  1.00  0.00     0.042 C 
BRANCH   8  10
HETATM   10  O   UNL     1      43.079 -17.401   5.053  1.00  0.00    -0.343 OA
BRANCH  10  11
HETATM   11  C   UNL     1      43.618 -18.476   4.400  1.00  0.00     0.091 A 
HETATM   12  C   UNL     1      43.124 -18.735   3.109  1.00  0.00     0.067 A 
HETATM   13 CL   UNL     1      41.918 -17.725   2.389  1.00  0.00    -0.081 Cl
HETATM   14  C   UNL     1      43.602 -19.815   2.362  1.00  0.00     0.026 A 
HETATM   15  C   UNL     1      44.574 -20.655   2.900  1.00  0.00     0.002 A 
HETATM   16  C   UNL     1      45.062 -20.414   4.182  1.00  0.00     0.003 A 
HETATM   17  C   UNL     1      44.587 -19.331   4.930  1.00  0.00     0.038 A 
ENDBRANCH  10  11
ENDBRANCH   8  10
ENDBRANCH   7   8
ENDBRANCH   3   7
BRANCH   1  18
HETATM   18  C   UNL     1      41.396 -14.107   2.845  1.00  0.00     0.059 A 
HETATM   19  C   UNL     1      40.377 -14.295   1.899  1.00  0.00    -0.032 A 
HETATM   20  C   UNL     1      39.250 -15.279   2.035  1.00  0.00     0.050 C 
HETATM   21  C   UNL     1      40.407 -13.516   0.728  1.00  0.00     0.028 A 
HETATM   22  C   UNL     1      41.462 -12.644   0.510  1.00  0.00     0.117 A 
HETATM   23  N   UNL     1      42.485 -12.487   1.367  1.00  0.00    -0.271 NA
HETATM   24  C   UNL     1      42.422 -13.216   2.506  1.00  0.00     0.146 A 
ENDBRANCH   1  18
TORSDOF 5
ENDMDL
MODEL 6
REMARK VINA RESULT:      -7.2      1.790      2.477
REMARK  5 active torsions:
REMARK  status: ('A' for Active; 'I' for Inactive)
REMARK    1  A    between atoms: C_3  and  N_4 
REMARK       I    between atoms: N_4  and  C_5 
REMARK       I    between atoms: C_5  and  N_6 
REMARK    2  A    between atoms: N_6  and  C_7 
REMARK    3  A    between atoms: C_7  and  C_8 
REMARK    4  A    between atoms: C_8  and  O_9 
REMARK    5  A    between atoms: O_9  and  C_10 
ROOT
HETATM    1  N   UNL     1      41.717 -15.134   4.332  1.00  0.00    -0.307 N 
HETATM    2  C   UNL     1      41.551 -15.514   5.629  1.00  0.00     0.320 C 
HETATM    3  N   UNL     1      42.669 -16.011   6.234  1.00  0.00    -0.340 N 
HETATM    4  O   UNL     1      40.529 -15.400   6.296  1.00  0.00    -0.247 OA
HETATM    5  H   UNL     1      42.605 -14.660   4.216  1.00  0.00     0.170 HD
HETATM    6  H   UNL     1      42.449 -16.235   7.197  1.00  0.00     0.164 HD
ENDROOT
BRANCH   3   7
HETATM    7  C   UNL     1      43.738 -16.821   5.647  1.00  0.00     0.156 C 
BRANCH   7   8
HETATM    8  C   UNL     1      43.633 -18.357   5.759  1.00  0.00     0.142 C 
HETATM    9  C   UNL     1      43.630 -18.755   7.236  1.00  0.00     0.042 C 
BRANCH   8  10
HETATM   10  O   UNL     1      44.773 -18.924   5.102  1.00  0.00    -0.343 OA
BRANCH  10  11
HETATM   11  C   UNL     1      44.657 -20.077   4.376  1.00  0.00     0.091 A 
HETATM   12  C   UNL     1      44.297 -19.932   3.024  1.00  0.00     0.067 A 
HETATM   13 CL   UNL     1      44.043 -18.370   2.325  1.00  0.00    -0.081 Cl
HETATM   14  C   UNL     1      44.143 -21.049   2.199  1.00  0.00     0.026 A 
HETATM   15  C   UNL     1      44.338 -22.326   2.717  1.00  0.00     0.002 A 
HETATM   16  C   UNL     1      44.684 -22.483   4.057  1.00  0.00     0.003 A 
HETATM   17  C   UNL     1      44.841 -21.365   4.884  1.00  0.00     0.038 A 
ENDBRANCH  10  11
ENDBRANCH   8  10
ENDBRANCH   7   8
ENDBRANCH   3   7
BRANCH   1  18
HETATM   18  C   UNL     1      40.702 -14.758   3.421  1.00  0.00     0.059 A 
HETATM   19  C   UNL     1      40.113 -15.584   2.452  1.00  0.00    -0.032 A 
HETATM   20  C   UNL     1      40.490 -17.016   2.200  1.00  0.00     0.050 C 
HETATM   21  C   UNL     1      39.100 -15.038   1.643  1.00  0.00     0.028 A 
HETATM   22  C   UNL     1      38.759 -13.702   1.776  1.00  0.00     0.117 A 
HETATM   23  N   UNL     1      39.348 -12.869   2.652  1.00  0.00    -0.271 NA
HETATM   24  C   UNL     1      40.295 -13.418   3.449  1.00  0.00     0.146 A 
ENDBRANCH   1  18
TORSDOF 5
ENDMDL
MODEL 7
REMARK VINA RESULT:      -7.1      2.898      4.038
REMARK  5 active torsions:
REMARK  status: ('A' for Active; 'I' for Inactive)
REMARK    1  A    between atoms: C_3  and  N_4 
REMARK       I    between atoms: N_4  and  C_5 
REMARK       I    between atoms: C_5  and  N_6 
REMARK    2  A    between atoms: N_6  and  C_7 
REMARK    3  A    between atoms: C_7  and  C_8 
REMARK    4  A    between atoms: C_8  and  O_9 
REMARK    5  A    between atoms: O_9  and  C_10 
ROOT
HETATM    1  N   UNL     1      40.239 -14.962   2.080  1.00  0.00    -0.307 N 
HETATM    2  C   UNL     1      40.350 -16.263   2.467  1.00  0.00     0.320 C 
HETATM    3  N   UNL     1      40.650 -16.451   3.785  1.00  0.00    -0.340 N 
HETATM    4  O   UNL     1      40.154 -17.250   1.767  1.00  0.00    -0.247 OA
HETATM    5  H   UNL     1      39.753 -14.425   2.788  1.00  0.00     0.170 HD
HETATM    6  H   UNL     1      40.680 -17.446   3.977  1.00  0.00     0.164 HD
ENDROOT
BRANCH   3   7
HETATM    7  C   UNL     1      41.505 -15.636   4.650  1.00  0.00     0.156 C 
BRANCH   7   8
HETATM    8  C   UNL     1      42.836 -16.246   5.141  1.00  0.00     0.142 C 
HETATM    9  C   UNL     1      43.648 -15.168   5.862  1.00  0.00     0.042 C 
BRANCH   8  10
HETATM   10  O   UNL     1      43.554 -16.714   3.994  1.00  0.00    -0.343 OA
BRANCH  10  11
HETATM   11  C   UNL     1      43.914 -18.029   3.887  1.00  0.00     0.091 A 
HETATM   12  C   UNL     1      43.949 -18.565   2.587  1.00  0.00     0.067 A 
HETATM   13 CL   UNL     1      43.577 -17.593   1.205  1.00  0.00    -0.081 Cl
HETATM   14  C   UNL     1      44.297 -19.901   2.371  1.00  0.00     0.026 A 
HETATM   15  C   UNL     1      44.605 -20.721   3.453  1.00  0.00     0.002 A 
HETATM   16  C   UNL     1      44.563 -20.205   4.746  1.00  0.00     0.003 A 
HETATM   17  C   UNL     1      44.218 -18.866   4.964  1.00  0.00     0.038 A 
ENDBRANCH  10  11
ENDBRANCH   8  10
ENDBRANCH   7   8
ENDBRANCH   3   7
BRANCH   1  18
HETATM   18  C   UNL     1      40.115 -14.478   0.757  1.00  0.00     0.059 A 
HETATM   19  C   UNL     1      38.927 -14.066   0.134  1.00  0.00    -0.032 A 
HETATM   20  C   UNL     1      37.567 -14.100   0.771  1.00  0.00     0.050 C 
HETATM   21  C   UNL     1      39.001 -13.594  -1.189  1.00  0.00     0.028 A 
HETATM   22  C   UNL     1      40.215 -13.608  -1.857  1.00  0.00     0.117 A 
HETATM   23  N   UNL     1      41.359 -14.055  -1.309  1.00  0.00    -0.271 NA
HETATM   24  C   UNL     1      41.278 -14.470  -0.023  1.00  0.00     0.146 A 
ENDBRANCH   1  18
TORSDOF 5
ENDMDL
MODEL 8
REMARK VINA RESULT:      -7.0      2.919      4.046
REMARK  5 active torsions:
REMARK  status: ('A' for Active; 'I' for Inactive)
REMARK    1  A    between atoms: C_3  and  N_4 
REMARK       I    between atoms: N_4  and  C_5 
REMARK       I    between atoms: C_5  and  N_6 
REMARK    2  A    between atoms: N_6  and  C_7 
REMARK    3  A    between atoms: C_7  and  C_8 
REMARK    4  A    between atoms: C_8  and  O_9 
REMARK    5  A    between atoms: O_9  and  C_10 
ROOT
HETATM    1  N   UNL     1      41.019 -14.968   1.211  1.00  0.00    -0.307 N 
HETATM    2  C   UNL     1      41.935 -14.260   1.930  1.00  0.00     0.320 C 
HETATM    3  N   UNL     1      42.285 -14.814   3.127  1.00  0.00    -0.340 N 
HETATM    4  O   UNL     1      42.497 -13.230   1.578  1.00  0.00    -0.247 OA
HETATM    5  H   UNL     1      41.218 -15.960   1.268  1.00  0.00     0.170 HD
HETATM    6  H   UNL     1      42.988 -14.232   3.566  1.00  0.00     0.164 HD
ENDROOT
BRANCH   3   7
HETATM    7  C   UNL     1      41.446 -15.569   4.060  1.00  0.00     0.156 C 
BRANCH   7   8
HETATM    8  C   UNL     1      41.706 -17.083   4.212  1.00  0.00     0.142 C 
HETATM    9  C   UNL     1      41.454 -17.495   5.664  1.00  0.00     0.042 C 
BRANCH   8  10
HETATM   10  O   UNL     1      43.073 -17.331   3.863  1.00  0.00    -0.343 OA
BRANCH  10  11
HETATM   11  C   UNL     1      43.467 -18.563   3.420  1.00  0.00     0.091 A 
HETATM   12  C   UNL     1      44.401 -19.246   4.219  1.00  0.00     0.067 A 
HETATM   13 CL   UNL     1      44.992 -18.560   5.694  1.00  0.00    -0.081 Cl
HETATM   14  C   UNL     1      44.875 -20.508   3.850  1.00  0.00     0.026 A 
HETATM   15  C   UNL     1      44.427 -21.099   2.672  1.00  0.00     0.002 A 
HETATM   16  C   UNL     1      43.510 -20.428   1.867  1.00  0.00     0.003 A 
HETATM   17  C   UNL     1      43.032 -19.166   2.237  1.00  0.00     0.038 A 
ENDBRANCH  10  11
ENDBRANCH   8  10
ENDBRANCH   7   8
ENDBRANCH   3   7
BRANCH   1  18
HETATM   18  C   UNL     1      40.352 -14.547   0.038  1.00  0.00     0.059 A 
HETATM   19  C   UNL     1      39.038 -14.062  -0.039  1.00  0.00    -0.032 A 
HETATM   20  C   UNL     1      38.100 -13.935   1.128  1.00  0.00     0.050 C 
HETATM   21  C   UNL     1      38.547 -13.670  -1.298  1.00  0.00     0.028 A 
HETATM   22  C   UNL     1      39.338 -13.832  -2.424  1.00  0.00     0.117 A 
HETATM   23  N   UNL     1      40.577 -14.352  -2.393  1.00  0.00    -0.271 NA
HETATM   24  C   UNL     1      41.049 -14.689  -1.169  1.00  0.00     0.146 A 
ENDBRANCH   1  18
TORSDOF 5
ENDMDL
MODEL 9
REMARK VINA RESULT:      -6.9      5.294      6.745
REMARK  5 active torsions:
REMARK  status: ('A' for Active; 'I' for Inactive)
REMARK    1  A    between atoms: C_3  and  N_4 
REMARK       I    between atoms: N_4  and  C_5 
REMARK       I    between atoms: C_5  and  N_6 
REMARK    2  A    between atoms: N_6  and  C_7 
REMARK    3  A    between atoms: C_7  and  C_8 
REMARK    4  A    between atoms: C_8  and  O_9 
REMARK    5  A    between atoms: O_9  and  C_10 
ROOT
HETATM    1  N   UNL     1      43.767 -12.164   8.779  1.00  0.00    -0.307 N 
HETATM    2  C   UNL     1      45.050 -12.414   8.395  1.00  0.00     0.320 C 
HETATM    3  N   UNL     1      45.196 -13.424   7.488  1.00  0.00    -0.340 N 
HETATM    4  O   UNL     1      46.047 -11.791   8.739  1.00  0.00    -0.247 OA
HETATM    5  H   UNL     1      43.145 -12.220   7.982  1.00  0.00     0.170 HD
HETATM    6  H   UNL     1      46.177 -13.510   7.247  1.00  0.00     0.164 HD
ENDROOT
BRANCH   3   7
HETATM    7  C   UNL     1      44.429 -14.667   7.378  1.00  0.00     0.156 C 
BRANCH   7   8
HETATM    8  C   UNL     1      43.746 -14.983   6.030  1.00  0.00     0.142 C 
HETATM    9  C   UNL     1      42.718 -13.894   5.718  1.00  0.00     0.042 C 
BRANCH   8  10
HETATM   10  O   UNL     1      43.093 -16.251   6.155  1.00  0.00    -0.343 OA
BRANCH  10  11
HETATM   11  C   UNL     1      43.185 -17.184   5.160  1.00  0.00     0.091 A 
HETATM   12  C   UNL     1      44.231 -18.117   5.272  1.00  0.00     0.067 A 
HETATM   13 CL   UNL     1      45.320 -18.089   6.616  1.00  0.00    -0.081 Cl
HETATM   14  C   UNL     1      44.417 -19.106   4.302  1.00  0.00     0.026 A 
HETATM   15  C   UNL     1      43.565 -19.169   3.203  1.00  0.00     0.002 A 
HETATM   16  C   UNL     1      42.532 -18.243   3.076  1.00  0.00     0.003 A 
HETATM   17  C   UNL     1      42.342 -17.254   4.048  1.00  0.00     0.038 A 
ENDBRANCH  10  11
ENDBRANCH   8  10
ENDBRANCH   7   8
ENDBRANCH   3   7
BRANCH   1  18
HETATM   18  C   UNL     1      43.346 -11.309   9.823  1.00  0.00     0.059 A 
HETATM   19  C   UNL     1      43.601 -11.485  11.191  1.00  0.00    -0.032 A 
HETATM   20  C   UNL     1      44.352 -12.645  11.782  1.00  0.00     0.050 C 
HETATM   21  C   UNL     1      43.116 -10.515  12.087  1.00  0.00     0.028 A 
HETATM   22  C   UNL     1      42.353  -9.461  11.611  1.00  0.00     0.117 A 
HETATM   23  N   UNL     1      42.038  -9.298  10.314  1.00  0.00    -0.271 NA
HETATM   24  C   UNL     1      42.544 -10.219   9.461  1.00  0.00     0.146 A 
ENDBRANCH   1  18
TORSDOF 5
ENDMDL
MODEL 10
REMARK VINA RESULT:      -6.9      2.936      5.795
REMARK  5 active torsions:
REMARK  status: ('A' for Active; 'I' for Inactive)
REMARK    1  A    between atoms: C_3  and  N_4 
REMARK       I    between atoms: N_4  and  C_5 
REMARK       I    between atoms: C_5  and  N_6 
REMARK    2  A    between atoms: N_6  and  C_7 
REMARK    3  A    between atoms: C_7  and  C_8 
REMARK    4  A    between atoms: C_8  and  O_9 
REMARK    5  A    between atoms: O_9  and  C_10 
ROOT
HETATM    1  N   UNL     1      42.931 -18.190   5.990  1.00  0.00    -0.307 N 
HETATM    2  C   UNL     1      43.487 -17.146   6.667  1.00  0.00     0.320 C 
HETATM    3  N   UNL     1      42.665 -16.072   6.849  1.00  0.00    -0.340 N 
HETATM    4  O   UNL     1      44.607 -17.114   7.162  1.00  0.00    -0.247 OA
HETATM    5  H   UNL     1      41.974 -18.333   6.288  1.00  0.00     0.170 HD
HETATM    6  H   UNL     1      43.159 -15.368   7.385  1.00  0.00     0.164 HD
ENDROOT
BRANCH   3   7
HETATM    7  C   UNL     1      41.642 -15.545   5.943  1.00  0.00     0.156 C 
BRANCH   7   8
HETATM    8  C   UNL     1      42.040 -14.407   4.979  1.00  0.00     0.142 C 
HETATM    9  C   UNL     1      41.492 -13.081   5.511  1.00  0.00     0.042 C 
BRANCH   8  10
HETATM   10  O   UNL     1      41.466 -14.695   3.699  1.00  0.00    -0.343 OA
BRANCH  10  11
HETATM   11  C   UNL     1      42.071 -15.577   2.846  1.00  0.00     0.091 A 
HETATM   12  C   UNL     1      41.222 -16.310   1.998  1.00  0.00     0.067 A 
HETATM   13 CL   UNL     1      39.508 -16.080   2.027  1.00  0.00    -0.081 Cl
HETATM   14  C   UNL     1      41.741 -17.243   1.097  1.00  0.00     0.026 A 
HETATM   15  C   UNL     1      43.115 -17.461   1.038  1.00  0.00     0.002 A 
HETATM   16  C   UNL     1      43.964 -16.749   1.880  1.00  0.00     0.003 A 
HETATM   17  C   UNL     1      43.447 -15.812   2.782  1.00  0.00     0.038 A 
ENDBRANCH  10  11
ENDBRANCH   8  10
ENDBRANCH   7   8
ENDBRANCH   3   7
BRANCH   1  18
HETATM   18  C   UNL     1      43.598 -19.341   5.510  1.00  0.00     0.059 A 
HETATM   19  C   UNL     1      43.909 -20.488   6.256  1.00  0.00    -0.032 A 
HETATM   20  C   UNL     1      43.605 -20.672   7.716  1.00  0.00     0.050 C 
HETATM   21  C   UNL     1      44.563 -21.548   5.602  1.00  0.00     0.028 A 
HETATM   22  C   UNL     1      44.938 -21.410   4.275  1.00  0.00     0.117 A 
HETATM   23  N   UNL     1      44.710 -20.300   3.551  1.00  0.00    -0.271 NA
HETATM   24  C   UNL     1      44.047 -19.304   4.184  1.00  0.00     0.146 A 
ENDBRANCH   1  18
TORSDOF 5
ENDMDL
