MODEL 1
REMARK VINA RESULT:      -9.3      0.000      0.000
REMARK  5 active torsions:
REMARK  status: ('A' for Active; 'I' for Inactive)
REMARK    1  A    between atoms: C_7  and  C_8 
REMARK    2  A    between atoms: C_16  and  C_17 
REMARK    3  A    between atoms: C_20  and  O_21 
REMARK    4  A    between atoms: C_24  and  C_25 
REMARK       I    between atoms: C_25  and  N_26 
REMARK    5  A    between atoms: N_26  and  C_27 
ROOT
HETATM    1  C   UNL     1      39.821 -14.235  -1.514  1.00  0.00     0.070 C 
HETATM    2  C   UNL     1      40.600 -14.557  -0.263  1.00  0.00     0.037 C 
HETATM    3  N   UNL     1      40.613 -15.895   0.120  1.00  0.00    -0.192 N 
HETATM    4  C   UNL     1      41.428 -16.369   1.082  1.00  0.00     0.726 A 
HETATM    5  N   UNL     1      42.116 -15.491   1.871  1.00  0.00    -0.083 N 
HETATM    6  N   UNL     1      43.026 -16.126   2.636  1.00  0.00    -0.135 NA
HETATM    7  C   UNL     1      42.765 -17.414   2.342  1.00  0.00     0.199 A 
HETATM    8  N   UNL     1      41.775 -17.590   1.390  1.00  0.00    -0.041 NA
HETATM    9  C   UNL     1      42.036 -14.033   1.731  1.00  0.00     0.202 C 
HETATM   10  C   UNL     1      41.295 -13.646   0.461  1.00  0.00     0.062 C 
HETATM   11  H   UNL     1      40.157 -16.560  -0.499  1.00  0.00     0.184 HD
ENDROOT
BRANCH  10  12
HETATM   12  C   UNL     1      41.325 -12.214   0.060  1.00  0.00     0.256 C 
HETATM   13  N   UNL     1      42.428 -11.902  -0.708  1.00  0.00    -0.323 N 
HETATM   14  H   UNL     1      43.088 -12.638  -0.915  1.00  0.00     0.169 HD
HETATM   15  O   UNL     1      40.414 -11.471   0.399  1.00  0.00    -0.267 OA
BRANCH  13  16
HETATM   16  C   UNL     1      42.733 -10.654  -1.293  1.00  0.00     0.035 A 
HETATM   17  C   UNL     1      43.494  -9.664  -0.672  1.00  0.00     0.029 A 
HETATM   18  C   UNL     1      43.727  -8.443  -1.313  1.00  0.00     0.002 A 
HETATM   19  C   UNL     1      43.212  -8.207  -2.585  1.00  0.00     0.000 A 
HETATM   20  C   UNL     1      42.458  -9.191  -3.218  1.00  0.00     0.002 A 
HETATM   21  C   UNL     1      42.213 -10.406  -2.572  1.00  0.00     0.029 A 
ENDBRANCH  13  16
ENDBRANCH  10  12
BRANCH   9  22
HETATM   22  C   UNL     1      41.434 -13.410   2.986  1.00  0.00    -0.028 A 
HETATM   23  C   UNL     1      42.252 -12.692   3.876  1.00  0.00     0.012 A 
HETATM   24  C   UNL     1      41.716 -12.105   5.025  1.00  0.00     0.037 A 
HETATM   25  C   UNL     1      40.357 -12.234   5.290  1.00  0.00     0.065 A 
HETATM   26  C   UNL     1      39.528 -12.939   4.426  1.00  0.00     0.037 A 
HETATM   27  C   UNL     1      40.063 -13.526   3.277  1.00  0.00     0.012 A 
BRANCH  25  28
HETATM   28  O   UNL     1      39.792 -11.677   6.398  1.00  0.00    -0.361 OA
HETATM   29  H   UNL     1      40.190 -10.802   6.543  1.00  0.00     0.217 HD
ENDBRANCH  25  28
ENDBRANCH   9  22
BRANCH   7  30
HETATM   30  C   UNL     1      43.502 -18.542   2.907  1.00  0.00     0.016 A 
HETATM   31  C   UNL     1      43.710 -19.711   2.160  1.00  0.00     0.039 A 
HETATM   32  C   UNL     1      44.388 -20.791   2.726  1.00  0.00     0.035 A 
HETATM   33 CL   UNL     1      44.626 -22.226   1.804  1.00  0.00    -0.084 Cl
HETATM   34  C   UNL     1      44.870 -20.723   4.031  1.00  0.00     0.024 A 
HETATM   35  C   UNL     1      44.675 -19.564   4.780  1.00  0.00     0.003 A 
HETATM   36  C   UNL     1      43.993 -18.480   4.220  1.00  0.00     0.015 A 
ENDBRANCH   7  30
TORSDOF 5
ENDMDL
MODEL 2
REMARK VINA RESULT:      -8.9      2.823      4.846
REMARK  5 active torsions:
REMARK  status: ('A' for Active; 'I' for Inactive)
REMARK    1  A    between atoms: C_7  and  C_8 
REMARK    2  A    between atoms: C_16  and  C_17 
REMARK    3  A    between atoms: C_20  and  O_21 
REMARK    4  A    between atoms: C_24  and  C_25 
REMARK       I    between atoms: C_25  and  N_26 
REMARK    5  A    between atoms: N_26  and  C_27 
ROOT
HETATM    1  C   UNL     1      39.016 -12.662   3.824  1.00  0.00     0.070 C 
HETATM    2  C   UNL     1      39.746 -13.727   3.044  1.00  0.00     0.037 C 
HETATM    3  N   UNL     1      40.864 -14.278   3.663  1.00  0.00    -0.192 N 
HETATM    4  C   UNL     1      41.491 -15.374   3.192  1.00  0.00     0.726 A 
HETATM    5  N   UNL     1      41.170 -15.849   1.952  1.00  0.00    -0.083 N 
HETATM    6  N   UNL     1      41.736 -17.051   1.724  1.00  0.00    -0.135 NA
HETATM    7  C   UNL     1      42.484 -17.205   2.833  1.00  0.00     0.199 A 
HETATM    8  N   UNL     1      42.355 -16.177   3.752  1.00  0.00    -0.041 NA
HETATM    9  C   UNL     1      40.157 -15.241   1.081  1.00  0.00     0.202 C 
HETATM   10  C   UNL     1      39.358 -14.185   1.829  1.00  0.00     0.062 C 
HETATM   11  H   UNL     1      41.068 -13.973   4.611  1.00  0.00     0.184 HD
ENDROOT
BRANCH  10  12
HETATM   12  C   UNL     1      38.150 -13.636   1.155  1.00  0.00     0.256 C 
HETATM   13  N   UNL     1      38.301 -12.314   0.794  1.00  0.00    -0.323 N 
HETATM   14  H   UNL     1      39.176 -11.856   1.012  1.00  0.00     0.169 HD
HETATM   15  O   UNL     1      37.183 -14.360   0.963  1.00  0.00    -0.267 OA
BRANCH  13  16
HETATM   16  C   UNL     1      37.373 -11.511   0.095  1.00  0.00     0.035 A 
HETATM   17  C   UNL     1      36.184 -11.033   0.645  1.00  0.00     0.029 A 
HETATM   18  C   UNL     1      35.306 -10.264  -0.126  1.00  0.00     0.002 A 
HETATM   19  C   UNL     1      35.617  -9.956  -1.448  1.00  0.00     0.000 A 
HETATM   20  C   UNL     1      36.805 -10.421  -2.005  1.00  0.00     0.002 A 
HETATM   21  C   UNL     1      37.676 -11.201  -1.239  1.00  0.00     0.029 A 
ENDBRANCH  13  16
ENDBRANCH  10  12
BRANCH   9  22
HETATM   22  C   UNL     1      40.803 -14.709  -0.194  1.00  0.00    -0.028 A 
HETATM   23  C   UNL     1      40.623 -15.393  -1.409  1.00  0.00     0.012 A 
HETATM   24  C   UNL     1      41.196 -14.915  -2.590  1.00  0.00     0.037 A 
HETATM   25  C   UNL     1      41.955 -13.750  -2.560  1.00  0.00     0.065 A 
HETATM   26  C   UNL     1      42.148 -13.057  -1.372  1.00  0.00     0.037 A 
HETATM   27  C   UNL     1      41.574 -13.533  -0.191  1.00  0.00     0.012 A 
BRANCH  25  28
HETATM   28  O   UNL     1      42.532 -13.248  -3.689  1.00  0.00    -0.361 OA
HETATM   29  H   UNL     1      42.474 -13.916  -4.391  1.00  0.00     0.217 HD
ENDBRANCH  25  28
ENDBRANCH   9  22
BRANCH   7  30
HETATM   30  C   UNL     1      43.307 -18.381   3.103  1.00  0.00     0.016 A 
HETATM   31  C   UNL     1      43.339 -19.458   2.205  1.00  0.00     0.039 A 
HETATM   32  C   UNL     1      44.106 -20.587   2.492  1.00  0.00     0.035 A 
HETATM   33 CL   UNL     1      44.126 -21.908   1.389  1.00  0.00    -0.084 Cl
HETATM   34  C   UNL     1      44.851 -20.659   3.668  1.00  0.00     0.024 A 
HETATM   35  C   UNL     1      44.832 -19.592   4.565  1.00  0.00     0.003 A 
HETATM   36  C   UNL     1      44.063 -18.460   4.282  1.00  0.00     0.015 A 
ENDBRANCH   7  30
TORSDOF 5
ENDMDL
MODEL 3
REMARK VINA RESULT:      -8.8      2.951      5.219
REMARK  5 active torsions:
REMARK  status: ('A' for Active; 'I' for Inactive)
REMARK    1  A    between atoms: C_7  and  C_8 
REMARK    2  A    between atoms: C_16  and  C_17 
REMARK    3  A    between atoms: C_20  and  O_21 
REMARK    4  A    between atoms: C_24  and  C_25 
REMARK       I    between atoms: C_25  and  N_26 
REMARK    5  A    between atoms: N_26  and  C_27 
ROOT
HETATM    1  C   UNL     1      42.843 -13.129   6.228  1.00  0.00     0.070 C 
HETATM    2  C   UNL     1      42.515 -14.220   5.240  1.00  0.00     0.037 C 
HETATM    3  N   UNL     1      43.530 -15.138   4.984  1.00  0.00    -0.192 N 
HETATM    4  C   UNL     1      43.325 -16.278   4.296  1.00  0.00     0.726 A 
HETATM    5  N   UNL     1      42.145 -16.456   3.631  1.00  0.00    -0.083 N 
HETATM    6  N   UNL     1      42.026 -17.718   3.171  1.00  0.00    -0.135 NA
HETATM    7  C   UNL     1      43.227 -18.232   3.497  1.00  0.00     0.199 A 
HETATM    8  N   UNL     1      44.051 -17.358   4.186  1.00  0.00    -0.041 NA
HETATM    9  C   UNL     1      41.054 -15.475   3.625  1.00  0.00     0.202 C 
HETATM   10  C   UNL     1      41.310 -14.368   4.637  1.00  0.00     0.062 C 
HETATM   11  H   UNL     1      44.387 -15.046   5.525  1.00  0.00     0.184 HD
ENDROOT
BRANCH  10  12
HETATM   12  C   UNL     1      40.197 -13.421   4.912  1.00  0.00     0.256 C 
HETATM   13  N   UNL     1      40.300 -12.257   4.180  1.00  0.00    -0.323 N 
HETATM   14  H   UNL     1      41.089 -12.154   3.556  1.00  0.00     0.169 HD
HETATM   15  O   UNL     1      39.314 -13.735   5.698  1.00  0.00    -0.267 OA
BRANCH  13  16
HETATM   16  C   UNL     1      39.389 -11.177   4.163  1.00  0.00     0.035 A 
HETATM   17  C   UNL     1      38.391 -11.013   3.203  1.00  0.00     0.029 A 
HETATM   18  C   UNL     1      37.546  -9.898   3.245  1.00  0.00     0.002 A 
HETATM   19  C   UNL     1      37.684  -8.948   4.253  1.00  0.00     0.000 A 
HETATM   20  C   UNL     1      38.672  -9.107   5.221  1.00  0.00     0.002 A 
HETATM   21  C   UNL     1      39.525 -10.213   5.173  1.00  0.00     0.029 A 
ENDBRANCH  13  16
ENDBRANCH  10  12
BRANCH   9  22
HETATM   22  C   UNL     1      40.819 -14.950   2.213  1.00  0.00    -0.028 A 
HETATM   23  C   UNL     1      39.511 -14.864   1.705  1.00  0.00     0.012 A 
HETATM   24  C   UNL     1      39.275 -14.374   0.418  1.00  0.00     0.037 A 
HETATM   25  C   UNL     1      40.348 -13.969  -0.368  1.00  0.00     0.065 A 
HETATM   26  C   UNL     1      41.649 -14.046   0.111  1.00  0.00     0.037 A 
HETATM   27  C   UNL     1      41.887 -14.533   1.398  1.00  0.00     0.012 A 
BRANCH  25  28
HETATM   28  O   UNL     1      40.163 -13.485  -1.629  1.00  0.00    -0.361 OA
HETATM   29  H   UNL     1      39.415 -13.953  -2.035  1.00  0.00     0.217 HD
ENDBRANCH  25  28
ENDBRANCH   9  22
BRANCH   7  30
HETATM   30  C   UNL     1      43.621 -19.612   3.228  1.00  0.00     0.016 A 
HETATM   31  C   UNL     1      44.274 -20.378   4.206  1.00  0.00     0.039 A 
HETATM   32  C   UNL     1      44.672 -21.685   3.921  1.00  0.00     0.035 A 
HETATM   33 CL   UNL     1      45.485 -22.609   5.124  1.00  0.00    -0.084 Cl
HETATM   34  C   UNL     1      44.422 -22.247   2.671  1.00  0.00     0.024 A 
HETATM   35  C   UNL     1      43.768 -21.498   1.694  1.00  0.00     0.003 A 
HETATM   36  C   UNL     1      43.371 -20.188   1.973  1.00  0.00     0.015 A 
ENDBRANCH   7  30
TORSDOF 5
ENDMDL
MODEL 4
REMARK VINA RESULT:      -8.7      2.013      2.299
REMARK  5 active torsions:
REMARK  status: ('A' for Active; 'I' for Inactive)
REMARK    1  A    between atoms: C_7  and  C_8 
REMARK    2  A    between atoms: C_16  and  C_17 
REMARK    3  A    between atoms: C_20  and  O_21 
REMARK    4  A    between atoms: C_24  and  C_25 
REMARK       I    between atoms: C_25  and  N_26 
REMARK    5  A    between atoms: N_26  and  C_27 
ROOT
HETATM    1  C   UNL     1      40.003 -13.944  -0.869  1.00  0.00     0.070 C 
HETATM    2  C   UNL     1      40.750 -14.409   0.356  1.00  0.00     0.037 C 
HETATM    3  N   UNL     1      40.738 -15.780   0.594  1.00  0.00    -0.192 N 
HETATM    4  C   UNL     1      41.526 -16.366   1.517  1.00  0.00     0.726 A 
HETATM    5  N   UNL     1      42.208 -15.586   2.409  1.00  0.00    -0.083 N 
HETATM    6  N   UNL     1      43.093 -16.313   3.120  1.00  0.00    -0.135 NA
HETATM    7  C   UNL     1      42.822 -17.558   2.686  1.00  0.00     0.199 A 
HETATM    8  N   UNL     1      41.851 -17.617   1.700  1.00  0.00    -0.041 NA
HETATM    9  C   UNL     1      42.149 -14.121   2.424  1.00  0.00     0.202 C 
HETATM   10  C   UNL     1      41.441 -13.590   1.187  1.00  0.00     0.062 C 
HETATM   11  H   UNL     1      40.287 -16.369  -0.101  1.00  0.00     0.184 HD
ENDROOT
BRANCH  10  12
HETATM   12  C   UNL     1      41.497 -12.124   0.942  1.00  0.00     0.256 C 
HETATM   13  N   UNL     1      40.384 -11.465   1.419  1.00  0.00    -0.323 N 
HETATM   14  H   UNL     1      39.662 -12.011   1.868  1.00  0.00     0.169 HD
HETATM   15  O   UNL     1      42.476 -11.639   0.391  1.00  0.00    -0.267 OA
BRANCH  13  16
HETATM   16  C   UNL     1      40.143 -10.074   1.397  1.00  0.00     0.035 A 
HETATM   17  C   UNL     1      40.682  -9.173   2.316  1.00  0.00     0.029 A 
HETATM   18  C   UNL     1      40.370  -7.811   2.238  1.00  0.00     0.002 A 
HETATM   19  C   UNL     1      39.529  -7.338   1.234  1.00  0.00     0.000 A 
HETATM   20  C   UNL     1      38.993  -8.227   0.307  1.00  0.00     0.002 A 
HETATM   21  C   UNL     1      39.293  -9.590   0.392  1.00  0.00     0.029 A 
ENDBRANCH  13  16
ENDBRANCH  10  12
BRANCH   9  22
HETATM   22  C   UNL     1      41.527 -13.626   3.725  1.00  0.00    -0.028 A 
HETATM   23  C   UNL     1      40.292 -14.143   4.153  1.00  0.00     0.012 A 
HETATM   24  C   UNL     1      39.712 -13.711   5.349  1.00  0.00     0.037 A 
HETATM   25  C   UNL     1      40.365 -12.758   6.121  1.00  0.00     0.065 A 
HETATM   26  C   UNL     1      41.586 -12.231   5.719  1.00  0.00     0.037 A 
HETATM   27  C   UNL     1      42.167 -12.663   4.525  1.00  0.00     0.012 A 
BRANCH  25  28
HETATM   28  O   UNL     1      39.835 -12.308   7.295  1.00  0.00    -0.361 OA
HETATM   29  H   UNL     1      38.935 -12.661   7.384  1.00  0.00     0.217 HD
ENDBRANCH  25  28
ENDBRANCH   9  22
BRANCH   7  30
HETATM   30  C   UNL     1      43.532 -18.751   3.141  1.00  0.00     0.016 A 
HETATM   31  C   UNL     1      43.729 -19.843   2.283  1.00  0.00     0.039 A 
HETATM   32  C   UNL     1      44.381 -20.986   2.744  1.00  0.00     0.035 A 
HETATM   33 CL   UNL     1      44.605 -22.326   1.686  1.00  0.00    -0.084 Cl
HETATM   34  C   UNL     1      44.848 -21.058   4.055  1.00  0.00     0.024 A 
HETATM   35  C   UNL     1      44.663 -19.977   4.915  1.00  0.00     0.003 A 
HETATM   36  C   UNL     1      44.008 -18.830   4.459  1.00  0.00     0.015 A 
ENDBRANCH   7  30
TORSDOF 5
ENDMDL
MODEL 5
REMARK VINA RESULT:      -8.5      4.428      9.211
REMARK  5 active torsions:
REMARK  status: ('A' for Active; 'I' for Inactive)
REMARK    1  A    between atoms: C_7  and  C_8 
REMARK    2  A    between atoms: C_16  and  C_17 
REMARK    3  A    between atoms: C_20  and  O_21 
REMARK    4  A    between atoms: C_24  and  C_25 
REMARK       I    between atoms: C_25  and  N_26 
REMARK    5  A    between atoms: N_26  and  C_27 
ROOT
HETATM    1  C   UNL     1      40.949 -16.814   6.703  1.00  0.00     0.070 C 
HETATM    2  C   UNL     1      40.813 -15.522   5.937  1.00  0.00     0.037 C 
HETATM    3  N   UNL     1      39.840 -14.639   6.398  1.00  0.00    -0.192 N 
HETATM    4  C   UNL     1      39.741 -13.370   5.956  1.00  0.00     0.726 A 
HETATM    5  N   UNL     1      40.467 -12.980   4.866  1.00  0.00    -0.083 N 
HETATM    6  N   UNL     1      40.406 -11.645   4.686  1.00  0.00    -0.135 NA
HETATM    7  C   UNL     1      39.530 -11.290   5.645  1.00  0.00     0.199 A 
HETATM    8  N   UNL     1      39.099 -12.340   6.438  1.00  0.00    -0.041 NA
HETATM    9  C   UNL     1      41.379 -13.866   4.134  1.00  0.00     0.202 C 
HETATM   10  C   UNL     1      41.589 -15.173   4.882  1.00  0.00     0.062 C 
HETATM   11  H   UNL     1      39.342 -14.897   7.246  1.00  0.00     0.184 HD
ENDROOT
BRANCH  10  12
HETATM   12  C   UNL     1      42.656 -16.082   4.385  1.00  0.00     0.256 C 
HETATM   13  N   UNL     1      42.186 -17.349   4.111  1.00  0.00    -0.323 N 
HETATM   14  H   UNL     1      41.206 -17.539   4.270  1.00  0.00     0.169 HD
HETATM   15  O   UNL     1      43.795 -15.659   4.243  1.00  0.00    -0.267 OA
BRANCH  13  16
HETATM   16  C   UNL     1      42.919 -18.433   3.579  1.00  0.00     0.035 A 
HETATM   17  C   UNL     1      42.763 -18.919   2.282  1.00  0.00     0.029 A 
HETATM   18  C   UNL     1      43.512 -20.017   1.842  1.00  0.00     0.002 A 
HETATM   19  C   UNL     1      44.430 -20.627   2.692  1.00  0.00     0.000 A 
HETATM   20  C   UNL     1      44.599 -20.145   3.987  1.00  0.00     0.002 A 
HETATM   21  C   UNL     1      43.842 -19.057   4.431  1.00  0.00     0.029 A 
ENDBRANCH  13  16
ENDBRANCH  10  12
BRANCH   9  22
HETATM   22  C   UNL     1      40.888 -14.069   2.704  1.00  0.00    -0.028 A 
HETATM   23  C   UNL     1      39.554 -14.446   2.468  1.00  0.00     0.012 A 
HETATM   24  C   UNL     1      39.083 -14.626   1.164  1.00  0.00     0.037 A 
HETATM   25  C   UNL     1      39.945 -14.430   0.091  1.00  0.00     0.065 A 
HETATM   26  C   UNL     1      41.267 -14.058   0.300  1.00  0.00     0.037 A 
HETATM   27  C   UNL     1      41.739 -13.877   1.601  1.00  0.00     0.012 A 
BRANCH  25  28
HETATM   28  O   UNL     1      39.527 -14.594  -1.196  1.00  0.00    -0.361 OA
HETATM   29  H   UNL     1      38.573 -14.420  -1.237  1.00  0.00     0.217 HD
ENDBRANCH  25  28
ENDBRANCH   9  22
BRANCH   7  30
HETATM   30  C   UNL     1      39.116  -9.912   5.898  1.00  0.00     0.016 A 
HETATM   31  C   UNL     1      39.257  -9.340   7.171  1.00  0.00     0.039 A 
HETATM   32  C   UNL     1      38.828  -8.033   7.403  1.00  0.00     0.035 A 
HETATM   33 CL   UNL     1      38.993  -7.347   8.973  1.00  0.00    -0.084 Cl
HETATM   34  C   UNL     1      38.260  -7.280   6.378  1.00  0.00     0.024 A 
HETATM   35  C   UNL     1      38.121  -7.835   5.107  1.00  0.00     0.003 A 
HETATM   36  C   UNL     1      38.546  -9.145   4.870  1.00  0.00     0.015 A 
ENDBRANCH   7  30
TORSDOF 5
ENDMDL
MODEL 6
REMARK VINA RESULT:      -8.5      3.793      8.113
REMARK  5 active torsions:
REMARK  status: ('A' for Active; 'I' for Inactive)
REMARK    1  A    between atoms: C_7  and  C_8 
REMARK    2  A    between atoms: C_16  and  C_17 
REMARK    3  A    between atoms: C_20  and  O_21 
REMARK    4  A    between atoms: C_24  and  C_25 
REMARK       I    between atoms: C_25  and  N_26 
REMARK    5  A    between atoms: N_26  and  C_27 
ROOT
HETATM    1  C   UNL     1      43.848 -17.437   1.327  1.00  0.00     0.070 C 
HETATM    2  C   UNL     1      42.666 -16.501   1.370  1.00  0.00     0.037 C 
HETATM    3  N   UNL     1      42.447 -15.741   0.224  1.00  0.00    -0.192 N 
HETATM    4  C   UNL     1      41.323 -15.024   0.030  1.00  0.00     0.726 A 
HETATM    5  N   UNL     1      40.453 -14.847   1.069  1.00  0.00    -0.083 N 
HETATM    6  N   UNL     1      39.300 -14.285   0.654  1.00  0.00    -0.135 NA
HETATM    7  C   UNL     1      39.575 -14.044  -0.642  1.00  0.00     0.199 A 
HETATM    8  N   UNL     1      40.824 -14.484  -1.049  1.00  0.00    -0.041 NA
HETATM    9  C   UNL     1      40.656 -15.407   2.409  1.00  0.00     0.202 C 
HETATM   10  C   UNL     1      41.813 -16.394   2.419  1.00  0.00     0.062 C 
HETATM   11  H   UNL     1      43.053 -15.917  -0.573  1.00  0.00     0.184 HD
ENDROOT
BRANCH  10  12
HETATM   12  C   UNL     1      42.004 -17.214   3.645  1.00  0.00     0.256 C 
HETATM   13  N   UNL     1      43.030 -16.747   4.439  1.00  0.00    -0.323 N 
HETATM   14  H   UNL     1      43.539 -15.930   4.130  1.00  0.00     0.169 HD
HETATM   15  O   UNL     1      41.268 -18.168   3.856  1.00  0.00    -0.267 OA
BRANCH  13  16
HETATM   16  C   UNL     1      43.439 -17.258   5.691  1.00  0.00     0.035 A 
HETATM   17  C   UNL     1      44.409 -18.247   5.852  1.00  0.00     0.029 A 
HETATM   18  C   UNL     1      44.736 -18.716   7.129  1.00  0.00     0.002 A 
HETATM   19  C   UNL     1      44.106 -18.191   8.254  1.00  0.00     0.000 A 
HETATM   20  C   UNL     1      43.143 -17.197   8.105  1.00  0.00     0.002 A 
HETATM   21  C   UNL     1      42.805 -16.737   6.829  1.00  0.00     0.029 A 
ENDBRANCH  13  16
ENDBRANCH  10  12
BRANCH   9  22
HETATM   22  C   UNL     1      40.817 -14.290   3.434  1.00  0.00    -0.028 A 
HETATM   23  C   UNL     1      39.880 -14.150   4.473  1.00  0.00     0.012 A 
HETATM   24  C   UNL     1      40.018 -13.139   5.428  1.00  0.00     0.037 A 
HETATM   25  C   UNL     1      41.094 -12.262   5.347  1.00  0.00     0.065 A 
HETATM   26  C   UNL     1      42.032 -12.380   4.330  1.00  0.00     0.037 A 
HETATM   27  C   UNL     1      41.897 -13.390   3.375  1.00  0.00     0.012 A 
BRANCH  25  28
HETATM   28  O   UNL     1      41.267 -11.262   6.258  1.00  0.00    -0.361 OA
HETATM   29  H   UNL     1      41.396 -11.660   7.135  1.00  0.00     0.217 HD
ENDBRANCH  25  28
ENDBRANCH   9  22
BRANCH   7  30
HETATM   30  C   UNL     1      38.628 -13.442  -1.577  1.00  0.00     0.016 A 
HETATM   31  C   UNL     1      38.042 -14.204  -2.598  1.00  0.00     0.039 A 
HETATM   32  C   UNL     1      37.163 -13.607  -3.501  1.00  0.00     0.035 A 
HETATM   33 CL   UNL     1      36.461 -14.549  -4.759  1.00  0.00    -0.084 Cl
HETATM   34  C   UNL     1      36.852 -12.252  -3.399  1.00  0.00     0.024 A 
HETATM   35  C   UNL     1      37.423 -11.486  -2.385  1.00  0.00     0.003 A 
HETATM   36  C   UNL     1      38.306 -12.079  -1.479  1.00  0.00     0.015 A 
ENDBRANCH   7  30
TORSDOF 5
ENDMDL
MODEL 7
REMARK VINA RESULT:      -8.0      3.512      8.788
REMARK  5 active torsions:
REMARK  status: ('A' for Active; 'I' for Inactive)
REMARK    1  A    between atoms: C_7  and  C_8 
REMARK    2  A    between atoms: C_16  and  C_17 
REMARK    3  A    between atoms: C_20  and  O_21 
REMARK    4  A    between atoms: C_24  and  C_25 
REMARK       I    between atoms: C_25  and  N_26 
REMARK    5  A    between atoms: N_26  and  C_27 
ROOT
HETATM    1  C   UNL     1      41.518 -12.064   6.022  1.00  0.00     0.070 C 
HETATM    2  C   UNL     1      41.755 -12.331   4.557  1.00  0.00     0.037 C 
HETATM    3  N   UNL     1      41.138 -11.454   3.669  1.00  0.00    -0.192 N 
HETATM    4  C   UNL     1      41.421 -11.432   2.352  1.00  0.00     0.726 A 
HETATM    5  N   UNL     1      42.173 -12.437   1.811  1.00  0.00    -0.083 N 
HETATM    6  N   UNL     1      42.527 -12.156   0.541  1.00  0.00    -0.135 NA
HETATM    7  C   UNL     1      41.862 -11.004   0.330  1.00  0.00     0.199 A 
HETATM    8  N   UNL     1      41.164 -10.541   1.433  1.00  0.00    -0.041 NA
HETATM    9  C   UNL     1      42.716 -13.558   2.585  1.00  0.00     0.202 C 
HETATM   10  C   UNL     1      42.543 -13.325   4.078  1.00  0.00     0.062 C 
HETATM   11  H   UNL     1      40.631 -10.668   4.069  1.00  0.00     0.184 HD
ENDROOT
BRANCH  10  12
HETATM   12  C   UNL     1      43.239 -14.259   5.003  1.00  0.00     0.256 C 
HETATM   13  N   UNL     1      42.522 -15.416   5.225  1.00  0.00    -0.323 N 
HETATM   14  H   UNL     1      41.627 -15.518   4.765  1.00  0.00     0.169 HD
HETATM   15  O   UNL     1      44.338 -13.962   5.450  1.00  0.00    -0.267 OA
BRANCH  13  16
HETATM   16  C   UNL     1      42.916 -16.526   6.003  1.00  0.00     0.035 A 
HETATM   17  C   UNL     1      43.095 -16.487   7.386  1.00  0.00     0.029 A 
HETATM   18  C   UNL     1      43.513 -17.629   8.078  1.00  0.00     0.002 A 
HETATM   19  C   UNL     1      43.743 -18.821   7.395  1.00  0.00     0.000 A 
HETATM   20  C   UNL     1      43.559 -18.873   6.017  1.00  0.00     0.002 A 
HETATM   21  C   UNL     1      43.154 -17.729   5.323  1.00  0.00     0.029 A 
ENDBRANCH  13  16
ENDBRANCH  10  12
BRANCH   9  22
HETATM   22  C   UNL     1      42.109 -14.874   2.113  1.00  0.00    -0.028 A 
HETATM   23  C   UNL     1      40.718 -15.068   2.177  1.00  0.00     0.012 A 
HETATM   24  C   UNL     1      40.142 -16.264   1.737  1.00  0.00     0.037 A 
HETATM   25  C   UNL     1      40.957 -17.271   1.234  1.00  0.00     0.065 A 
HETATM   26  C   UNL     1      42.333 -17.104   1.162  1.00  0.00     0.037 A 
HETATM   27  C   UNL     1      42.910 -15.910   1.599  1.00  0.00     0.012 A 
BRANCH  25  28
HETATM   28  O   UNL     1      40.437 -18.453   0.793  1.00  0.00    -0.361 OA
HETATM   29  H   UNL     1      39.828 -18.269   0.060  1.00  0.00     0.217 HD
ENDBRANCH  25  28
ENDBRANCH   9  22
BRANCH   7  30
HETATM   30  C   UNL     1      41.919 -10.249  -0.919  1.00  0.00     0.016 A 
HETATM   31  C   UNL     1      42.149 -10.898  -2.142  1.00  0.00     0.039 A 
HETATM   32  C   UNL     1      42.232 -10.158  -3.322  1.00  0.00     0.035 A 
HETATM   33 CL   UNL     1      42.529 -10.963  -4.814  1.00  0.00    -0.084 Cl
HETATM   34  C   UNL     1      42.082  -8.772  -3.303  1.00  0.00     0.024 A 
HETATM   35  C   UNL     1      41.846  -8.118  -2.095  1.00  0.00     0.003 A 
HETATM   36  C   UNL     1      41.765  -8.854  -0.911  1.00  0.00     0.015 A 
ENDBRANCH   7  30
TORSDOF 5
ENDMDL
MODEL 8
REMARK VINA RESULT:      -8.0      3.259      5.556
REMARK  5 active torsions:
REMARK  status: ('A' for Active; 'I' for Inactive)
REMARK    1  A    between atoms: C_7  and  C_8 
REMARK    2  A    between atoms: C_16  and  C_17 
REMARK    3  A    between atoms: C_20  and  O_21 
REMARK    4  A    between atoms: C_24  and  C_25 
REMARK       I    between atoms: C_25  and  N_26 
REMARK    5  A    between atoms: N_26  and  C_27 
ROOT
HETATM    1  C   UNL     1      40.741 -10.316   3.530  1.00  0.00     0.070 C 
HETATM    2  C   UNL     1      41.012 -11.563   2.726  1.00  0.00     0.037 C 
HETATM    3  N   UNL     1      42.040 -12.378   3.191  1.00  0.00    -0.192 N 
HETATM    4  C   UNL     1      42.262 -13.617   2.711  1.00  0.00     0.726 A 
HETATM    5  N   UNL     1      41.607 -14.025   1.583  1.00  0.00    -0.083 N 
HETATM    6  N   UNL     1      41.787 -15.343   1.360  1.00  0.00    -0.135 NA
HETATM    7  C   UNL     1      42.658 -15.659   2.337  1.00  0.00     0.199 A 
HETATM    8  N   UNL     1      42.972 -14.606   3.180  1.00  0.00    -0.041 NA
HETATM    9  C   UNL     1      40.648 -13.193   0.848  1.00  0.00     0.202 C 
HETATM   10  C   UNL     1      40.303 -11.936   1.632  1.00  0.00     0.062 C 
HETATM   11  H   UNL     1      42.486 -12.110   4.065  1.00  0.00     0.184 HD
ENDROOT
BRANCH  10  12
HETATM   12  C   UNL     1      39.180 -11.102   1.129  1.00  0.00     0.256 C 
HETATM   13  N   UNL     1      37.957 -11.507   1.622  1.00  0.00    -0.323 N 
HETATM   14  H   UNL     1      37.935 -12.300   2.249  1.00  0.00     0.169 HD
HETATM   15  O   UNL     1      39.411 -10.162   0.381  1.00  0.00    -0.267 OA
BRANCH  13  16
HETATM   16  C   UNL     1      36.702 -10.904   1.388  1.00  0.00     0.035 A 
HETATM   17  C   UNL     1      35.766 -11.379   0.469  1.00  0.00     0.029 A 
HETATM   18  C   UNL     1      34.555 -10.706   0.280  1.00  0.00     0.002 A 
HETATM   19  C   UNL     1      34.264  -9.561   1.017  1.00  0.00     0.000 A 
HETATM   20  C   UNL     1      35.187  -9.083   1.943  1.00  0.00     0.002 A 
HETATM   21  C   UNL     1      36.404  -9.748   2.123  1.00  0.00     0.029 A 
ENDBRANCH  13  16
ENDBRANCH  10  12
BRANCH   9  22
HETATM   22  C   UNL     1      41.167 -12.896  -0.555  1.00  0.00    -0.028 A 
HETATM   23  C   UNL     1      42.325 -12.117  -0.725  1.00  0.00     0.012 A 
HETATM   24  C   UNL     1      42.822 -11.845  -2.002  1.00  0.00     0.037 A 
HETATM   25  C   UNL     1      42.162 -12.350  -3.116  1.00  0.00     0.065 A 
HETATM   26  C   UNL     1      41.015 -13.121  -2.974  1.00  0.00     0.037 A 
HETATM   27  C   UNL     1      40.518 -13.395  -1.698  1.00  0.00     0.012 A 
BRANCH  25  28
HETATM   28  O   UNL     1      42.612 -12.110  -4.380  1.00  0.00    -0.361 OA
HETATM   29  H   UNL     1      43.539 -11.823  -4.330  1.00  0.00     0.217 HD
ENDBRANCH  25  28
ENDBRANCH   9  22
BRANCH   7  30
HETATM   30  C   UNL     1      43.179 -17.006   2.558  1.00  0.00     0.016 A 
HETATM   31  C   UNL     1      43.565 -17.427   3.839  1.00  0.00     0.039 A 
HETATM   32  C   UNL     1      44.089 -18.706   4.026  1.00  0.00     0.035 A 
HETATM   33 CL   UNL     1      44.572 -19.207   5.601  1.00  0.00    -0.084 Cl
HETATM   34  C   UNL     1      44.233 -19.580   2.950  1.00  0.00     0.024 A 
HETATM   35  C   UNL     1      43.847 -19.174   1.674  1.00  0.00     0.003 A 
HETATM   36  C   UNL     1      43.324 -17.893   1.480  1.00  0.00     0.015 A 
ENDBRANCH   7  30
TORSDOF 5
ENDMDL
MODEL 9
REMARK VINA RESULT:      -7.9      3.721      8.615
REMARK  5 active torsions:
REMARK  status: ('A' for Active; 'I' for Inactive)
REMARK    1  A    between atoms: C_7  and  C_8 
REMARK    2  A    between atoms: C_16  and  C_17 
REMARK    3  A    between atoms: C_20  and  O_21 
REMARK    4  A    between atoms: C_24  and  C_25 
REMARK       I    between atoms: C_25  and  N_26 
REMARK    5  A    between atoms: N_26  and  C_27 
ROOT
HETATM    1  C   UNL     1      39.699 -13.822   5.243  1.00  0.00     0.070 C 
HETATM    2  C   UNL     1      40.420 -14.019   3.933  1.00  0.00     0.037 C 
HETATM    3  N   UNL     1      39.715 -13.658   2.788  1.00  0.00    -0.192 N 
HETATM    4  C   UNL     1      40.291 -13.576   1.573  1.00  0.00     0.726 A 
HETATM    5  N   UNL     1      41.554 -14.069   1.396  1.00  0.00    -0.083 N 
HETATM    6  N   UNL     1      42.049 -13.728   0.189  1.00  0.00    -0.135 NA
HETATM    7  C   UNL     1      40.989 -13.114  -0.368  1.00  0.00     0.199 A 
HETATM    8  N   UNL     1      39.887 -13.015   0.466  1.00  0.00    -0.041 NA
HETATM    9  C   UNL     1      42.348 -14.684   2.465  1.00  0.00     0.202 C 
HETATM   10  C   UNL     1      41.690 -14.480   3.821  1.00  0.00     0.062 C 
HETATM   11  H   UNL     1      38.801 -13.231   2.920  1.00  0.00     0.184 HD
ENDROOT
BRANCH  10  12
HETATM   12  C   UNL     1      42.479 -14.846   5.027  1.00  0.00     0.256 C 
HETATM   13  N   UNL     1      42.481 -16.204   5.265  1.00  0.00    -0.323 N 
HETATM   14  H   UNL     1      41.967 -16.801   4.631  1.00  0.00     0.169 HD
HETATM   15  O   UNL     1      43.051 -13.973   5.665  1.00  0.00    -0.267 OA
BRANCH  13  16
HETATM   16  C   UNL     1      43.171 -16.888   6.290  1.00  0.00     0.035 A 
HETATM   17  C   UNL     1      42.760 -16.918   7.623  1.00  0.00     0.029 A 
HETATM   18  C   UNL     1      43.518 -17.600   8.582  1.00  0.00     0.002 A 
HETATM   19  C   UNL     1      44.683 -18.267   8.213  1.00  0.00     0.000 A 
HETATM   20  C   UNL     1      45.098 -18.250   6.885  1.00  0.00     0.002 A 
HETATM   21  C   UNL     1      44.348 -17.558   5.929  1.00  0.00     0.029 A 
ENDBRANCH  13  16
ENDBRANCH  10  12
BRANCH   9  22
HETATM   22  C   UNL     1      42.620 -16.150   2.149  1.00  0.00    -0.028 A 
HETATM   23  C   UNL     1      43.944 -16.609   2.034  1.00  0.00     0.012 A 
HETATM   24  C   UNL     1      44.213 -17.953   1.756  1.00  0.00     0.037 A 
HETATM   25  C   UNL     1      43.158 -18.843   1.591  1.00  0.00     0.065 A 
HETATM   26  C   UNL     1      41.842 -18.413   1.700  1.00  0.00     0.037 A 
HETATM   27  C   UNL     1      41.571 -17.072   1.978  1.00  0.00     0.012 A 
BRANCH  25  28
HETATM   28  O   UNL     1      43.375 -20.161   1.321  1.00  0.00    -0.361 OA
HETATM   29  H   UNL     1      43.523 -20.630   2.158  1.00  0.00     0.217 HD
ENDBRANCH  25  28
ENDBRANCH   9  22
BRANCH   7  30
HETATM   30  C   UNL     1      40.999 -12.525  -1.705  1.00  0.00     0.016 A 
HETATM   31  C   UNL     1      39.807 -12.113  -2.319  1.00  0.00     0.039 A 
HETATM   32  C   UNL     1      39.832 -11.582  -3.609  1.00  0.00     0.035 A 
HETATM   33 CL   UNL     1      38.361 -11.092  -4.357  1.00  0.00    -0.084 Cl
HETATM   34  C   UNL     1      41.035 -11.449  -4.299  1.00  0.00     0.024 A 
HETATM   35  C   UNL     1      42.226 -11.849  -3.697  1.00  0.00     0.003 A 
HETATM   36  C   UNL     1      42.207 -12.385  -2.407  1.00  0.00     0.015 A 
ENDBRANCH   7  30
TORSDOF 5
ENDMDL
MODEL 10
REMARK VINA RESULT:      -7.8      4.154      8.431
REMARK  5 active torsions:
REMARK  status: ('A' for Active; 'I' for Inactive)
REMARK    1  A    between atoms: C_7  and  C_8 
REMARK    2  A    between atoms: C_16  and  C_17 
REMARK    3  A    between atoms: C_20  and  O_21 
REMARK    4  A    between atoms: C_24  and  C_25 
REMARK       I    between atoms: C_25  and  N_26 
REMARK    5  A    between atoms: N_26  and  C_27 
ROOT
HETATM    1  C   UNL     1      42.670 -16.813   0.272  1.00  0.00     0.070 C 
HETATM    2  C   UNL     1      41.609 -15.896   0.829  1.00  0.00     0.037 C 
HETATM    3  N   UNL     1      41.163 -14.890  -0.024  1.00  0.00    -0.192 N 
HETATM    4  C   UNL     1      40.083 -14.132   0.247  1.00  0.00     0.726 A 
HETATM    5  N   UNL     1      39.520 -14.186   1.491  1.00  0.00    -0.083 N 
HETATM    6  N   UNL     1      38.344 -13.528   1.528  1.00  0.00    -0.135 NA
HETATM    7  C   UNL     1      38.299 -12.999   0.290  1.00  0.00     0.199 A 
HETATM    8  N   UNL     1      39.367 -13.352  -0.517  1.00  0.00    -0.041 NA
HETATM    9  C   UNL     1      40.016 -15.042   2.575  1.00  0.00     0.202 C 
HETATM   10  C   UNL     1      41.061 -16.021   2.063  1.00  0.00     0.062 C 
HETATM   11  H   UNL     1      41.532 -14.887  -0.971  1.00  0.00     0.184 HD
ENDROOT
BRANCH  10  12
HETATM   12  C   UNL     1      41.496 -17.103   2.986  1.00  0.00     0.256 C 
HETATM   13  N   UNL     1      42.831 -17.418   2.840  1.00  0.00    -0.323 N 
HETATM   14  H   UNL     1      43.368 -16.912   2.148  1.00  0.00     0.169 HD
HETATM   15  O   UNL     1      40.695 -17.587   3.773  1.00  0.00    -0.267 OA
BRANCH  13  16
HETATM   16  C   UNL     1      43.572 -18.357   3.591  1.00  0.00     0.035 A 
HETATM   17  C   UNL     1      43.966 -18.162   4.914  1.00  0.00     0.029 A 
HETATM   18  C   UNL     1      44.723 -19.134   5.578  1.00  0.00     0.002 A 
HETATM   19  C   UNL     1      45.079 -20.312   4.928  1.00  0.00     0.000 A 
HETATM   20  C   UNL     1      44.684 -20.521   3.610  1.00  0.00     0.002 A 
HETATM   21  C   UNL     1      43.939 -19.544   2.942  1.00  0.00     0.029 A 
ENDBRANCH  13  16
ENDBRANCH  10  12
BRANCH   9  22
HETATM   22  C   UNL     1      40.514 -14.192   3.738  1.00  0.00    -0.028 A 
HETATM   23  C   UNL     1      41.643 -13.370   3.574  1.00  0.00     0.012 A 
HETATM   24  C   UNL     1      42.107 -12.575   4.626  1.00  0.00     0.037 A 
HETATM   25  C   UNL     1      41.445 -12.600   5.847  1.00  0.00     0.065 A 
HETATM   26  C   UNL     1      40.328 -13.404   6.034  1.00  0.00     0.037 A 
HETATM   27  C   UNL     1      39.862 -14.198   4.984  1.00  0.00     0.012 A 
BRANCH  25  28
HETATM   28  O   UNL     1      41.863 -11.840   6.899  1.00  0.00    -0.361 OA
HETATM   29  H   UNL     1      41.084 -11.461   7.337  1.00  0.00     0.217 HD
ENDBRANCH  25  28
ENDBRANCH   9  22
BRANCH   7  30
HETATM   30  C   UNL     1      37.192 -12.186  -0.206  1.00  0.00     0.016 A 
HETATM   31  C   UNL     1      36.161 -11.774   0.650  1.00  0.00     0.039 A 
HETATM   32  C   UNL     1      35.095 -11.024   0.153  1.00  0.00     0.035 A 
HETATM   33 CL   UNL     1      33.828 -10.536   1.211  1.00  0.00    -0.084 Cl
HETATM   34  C   UNL     1      35.043 -10.671  -1.194  1.00  0.00     0.024 A 
HETATM   35  C   UNL     1      36.065 -11.069  -2.054  1.00  0.00     0.003 A 
HETATM   36  C   UNL     1      37.133 -11.823  -1.561  1.00  0.00     0.015 A 
ENDBRANCH   7  30
TORSDOF 5
ENDMDL
