MODEL 1
REMARK VINA RESULT:      -8.6      0.000      0.000
REMARK  4 active torsions:
REMARK  status: ('A' for Active; 'I' for Inactive)
REMARK    1  A    between atoms: O_2  and  C_3 
REMARK    2  A    between atoms: C_3  and  C_4 
REMARK    3  A    between atoms: C_12  and  N_13 
REMARK       I    between atoms: N_13  and  C_14 
REMARK    4  A    between atoms: C_14  and  C_15 
ROOT
HETATM    1  N   UNL     1      41.828 -16.670   2.469  1.00  0.00    -0.323 N 
HETATM    2  C   UNL     1      43.059 -16.528   3.075  1.00  0.00     0.258 C 
HETATM    3  O   UNL     1      43.697 -15.480   3.125  1.00  0.00    -0.267 OA
HETATM    4  H   UNL     1      41.395 -17.583   2.530  1.00  0.00     0.169 HD
ENDROOT
BRANCH   1   5
HETATM    5  C   UNL     1      41.082 -15.698   1.769  1.00  0.00     0.036 A 
HETATM    6  C   UNL     1      40.333 -14.693   2.385  1.00  0.00     0.032 A 
HETATM    7  C   UNL     1      39.617 -13.744   1.641  1.00  0.00     0.034 A 
HETATM    8  C   UNL     1      39.681 -13.842   0.250  1.00  0.00     0.063 A 
HETATM    9  N   UNL     1      39.113 -13.090  -0.738  1.00  0.00    -0.277 N 
HETATM   10  C   UNL     1      40.408 -14.824  -0.408  1.00  0.00     0.031 A 
HETATM   11  N   UNL     1      39.406 -13.499  -1.982  1.00  0.00    -0.167 NA
HETATM   12  H   UNL     1      38.513 -12.280  -0.628  1.00  0.00     0.189 HD
HETATM   13  C   UNL     1      40.204 -14.572  -1.801  1.00  0.00     0.164 A 
HETATM   14  C   UNL     1      41.122 -15.765   0.365  1.00  0.00     0.046 A 
BRANCH  13  15
HETATM   15  C   UNL     1      40.760 -15.348  -2.922  1.00  0.00     0.314 C 
HETATM   16  O   UNL     1      41.779 -15.025  -3.526  1.00  0.00    -0.257 OA
BRANCH  15  17
HETATM   17  O   UNL     1      40.026 -16.465  -3.219  1.00  0.00    -0.321 OA
HETATM   18  C   UNL     1      39.009 -16.259  -4.196  1.00  0.00     0.213 C 
ENDBRANCH  15  17
ENDBRANCH  13  15
ENDBRANCH   1   5
BRANCH   2  19
HETATM   19  C   UNL     1      43.600 -17.745   3.709  1.00  0.00     0.063 A 
HETATM   20  C   UNL     1      43.818 -19.087   3.228  1.00  0.00     0.046 A 
HETATM   21  C   UNL     1      44.376 -19.827   4.278  1.00  0.00     0.046 A 
HETATM   22  C   UNL     1      43.612 -19.775   2.011  1.00  0.00     0.130 A 
HETATM   23  C   UNL     1      44.726 -21.180   4.164  1.00  0.00     0.030 A 
HETATM   24  N   UNL     1      44.495 -18.983   5.355  1.00  0.00    -0.364 N 
HETATM   25  C   UNL     1      44.505 -21.816   2.940  1.00  0.00     0.005 A 
HETATM   26  C   UNL     1      43.953 -21.122   1.870  1.00  0.00     0.043 A 
HETATM   27  H   UNL     1      44.870 -19.247   6.256  1.00  0.00     0.165 HD
HETATM   28  C   UNL     1      44.039 -17.742   5.026  1.00  0.00     0.106 A 
HETATM   29  F   UNL     1      43.077 -19.145   0.953  1.00  0.00    -0.205 F 
ENDBRANCH   2  19
TORSDOF 4
ENDMDL
MODEL 2
REMARK VINA RESULT:      -8.4      1.137      1.549
REMARK  4 active torsions:
REMARK  status: ('A' for Active; 'I' for Inactive)
REMARK    1  A    between atoms: O_2  and  C_3 
REMARK    2  A    between atoms: C_3  and  C_4 
REMARK    3  A    between atoms: C_12  and  N_13 
REMARK       I    between atoms: N_13  and  C_14 
REMARK    4  A    between atoms: C_14  and  C_15 
ROOT
HETATM    1  N   UNL     1      41.341 -16.423   2.425  1.00  0.00    -0.323 N 
HETATM    2  C   UNL     1      42.484 -16.045   3.098  1.00  0.00     0.258 C 
HETATM    3  O   UNL     1      42.933 -14.903   3.127  1.00  0.00    -0.267 OA
HETATM    4  H   UNL     1      41.063 -17.393   2.511  1.00  0.00     0.169 HD
ENDROOT
BRANCH   1   5
HETATM    5  C   UNL     1      40.495 -15.625   1.625  1.00  0.00     0.036 A 
HETATM    6  C   UNL     1      39.245 -15.155   2.034  1.00  0.00     0.032 A 
HETATM    7  C   UNL     1      38.449 -14.356   1.201  1.00  0.00     0.034 A 
HETATM    8  C   UNL     1      38.955 -14.045  -0.062  1.00  0.00     0.063 A 
HETATM    9  N   UNL     1      38.440 -13.304  -1.087  1.00  0.00    -0.277 N 
HETATM   10  C   UNL     1      40.189 -14.492  -0.515  1.00  0.00     0.031 A 
HETATM   11  N   UNL     1      39.231 -13.232  -2.169  1.00  0.00    -0.167 NA
HETATM   12  H   UNL     1      37.550 -12.820  -1.111  1.00  0.00     0.189 HD
HETATM   13  C   UNL     1      40.317 -13.962  -1.838  1.00  0.00     0.164 A 
HETATM   14  C   UNL     1      40.972 -15.292   0.344  1.00  0.00     0.046 A 
BRANCH  13  15
HETATM   15  C   UNL     1      41.453 -14.158  -2.752  1.00  0.00     0.314 C 
HETATM   16  O   UNL     1      41.487 -15.038  -3.608  1.00  0.00    -0.257 OA
BRANCH  15  17
HETATM   17  O   UNL     1      42.466 -13.260  -2.552  1.00  0.00    -0.321 OA
HETATM   18  C   UNL     1      42.426 -12.124  -3.412  1.00  0.00     0.213 C 
ENDBRANCH  15  17
ENDBRANCH  13  15
ENDBRANCH   1   5
BRANCH   2  19
HETATM   19  C   UNL     1      43.173 -17.121   3.833  1.00  0.00     0.063 A 
HETATM   20  C   UNL     1      43.599 -18.449   3.460  1.00  0.00     0.046 A 
HETATM   21  C   UNL     1      44.223 -19.022   4.575  1.00  0.00     0.046 A 
HETATM   22  C   UNL     1      43.535 -19.244   2.294  1.00  0.00     0.130 A 
HETATM   23  C   UNL     1      44.769 -20.314   4.571  1.00  0.00     0.030 A 
HETATM   24  N   UNL     1      44.183 -18.095   5.588  1.00  0.00    -0.364 N 
HETATM   25  C   UNL     1      44.682 -21.060   3.394  1.00  0.00     0.005 A 
HETATM   26  C   UNL     1      44.071 -20.533   2.263  1.00  0.00     0.043 A 
HETATM   27  H   UNL     1      44.562 -18.236   6.515  1.00  0.00     0.165 HD
HETATM   28  C   UNL     1      43.564 -16.960   5.157  1.00  0.00     0.106 A 
HETATM   29  F   UNL     1      42.950 -18.776   1.180  1.00  0.00    -0.205 F 
ENDBRANCH   2  19
TORSDOF 4
ENDMDL
MODEL 3
REMARK VINA RESULT:      -8.2      1.711      2.436
REMARK  4 active torsions:
REMARK  status: ('A' for Active; 'I' for Inactive)
REMARK    1  A    between atoms: O_2  and  C_3 
REMARK    2  A    between atoms: C_3  and  C_4 
REMARK    3  A    between atoms: C_12  and  N_13 
REMARK       I    between atoms: N_13  and  C_14 
REMARK    4  A    between atoms: C_14  and  C_15 
ROOT
HETATM    1  N   UNL     1      41.725 -17.183   1.733  1.00  0.00    -0.323 N 
HETATM    2  C   UNL     1      42.673 -17.086   2.731  1.00  0.00     0.258 C 
HETATM    3  O   UNL     1      42.917 -16.064   3.366  1.00  0.00    -0.267 OA
HETATM    4  H   UNL     1      41.601 -18.095   1.312  1.00  0.00     0.169 HD
ENDROOT
BRANCH   1   5
HETATM    5  C   UNL     1      40.893 -16.165   1.217  1.00  0.00     0.036 A 
HETATM    6  C   UNL     1      39.821 -15.603   1.914  1.00  0.00     0.032 A 
HETATM    7  C   UNL     1      39.032 -14.586   1.358  1.00  0.00     0.034 A 
HETATM    8  C   UNL     1      39.358 -14.153   0.072  1.00  0.00     0.063 A 
HETATM    9  N   UNL     1      38.801 -13.201  -0.733  1.00  0.00    -0.277 N 
HETATM   10  C   UNL     1      40.411 -14.685  -0.661  1.00  0.00     0.031 A 
HETATM   11  N   UNL     1      39.398 -13.068  -1.927  1.00  0.00    -0.167 NA
HETATM   12  H   UNL     1      38.008 -12.605  -0.524  1.00  0.00     0.189 HD
HETATM   13  C   UNL     1      40.394 -13.978  -1.906  1.00  0.00     0.164 A 
HETATM   14  C   UNL     1      41.192 -15.705  -0.078  1.00  0.00     0.046 A 
BRANCH  13  15
HETATM   15  C   UNL     1      41.313 -14.180  -3.038  1.00  0.00     0.314 C 
HETATM   16  O   UNL     1      41.430 -15.249  -3.630  1.00  0.00    -0.257 OA
BRANCH  15  17
HETATM   17  O   UNL     1      42.020 -13.054  -3.364  1.00  0.00    -0.321 OA
HETATM   18  C   UNL     1      42.873 -12.573  -2.327  1.00  0.00     0.213 C 
ENDBRANCH  15  17
ENDBRANCH  13  15
ENDBRANCH   1   5
BRANCH   2  19
HETATM   19  C   UNL     1      43.408 -18.328   3.030  1.00  0.00     0.063 A 
HETATM   20  C   UNL     1      43.612 -19.079   4.245  1.00  0.00     0.046 A 
HETATM   21  C   UNL     1      44.393 -20.197   3.925  1.00  0.00     0.046 A 
HETATM   22  C   UNL     1      43.218 -18.950   5.596  1.00  0.00     0.130 A 
HETATM   23  C   UNL     1      44.783 -21.158   4.869  1.00  0.00     0.030 A 
HETATM   24  N   UNL     1      44.661 -20.137   2.580  1.00  0.00    -0.364 N 
HETATM   25  C   UNL     1      44.368 -20.987   6.192  1.00  0.00     0.005 A 
HETATM   26  C   UNL     1      43.592 -19.892   6.555  1.00  0.00     0.043 A 
HETATM   27  H   UNL     1      45.208 -20.818   2.069  1.00  0.00     0.165 HD
HETATM   28  C   UNL     1      44.077 -19.032   2.037  1.00  0.00     0.106 A 
HETATM   29  F   UNL     1      42.473 -17.906   5.992  1.00  0.00    -0.205 F 
ENDBRANCH   2  19
TORSDOF 4
ENDMDL
MODEL 4
REMARK VINA RESULT:      -8.1      2.725      4.579
REMARK  4 active torsions:
REMARK  status: ('A' for Active; 'I' for Inactive)
REMARK    1  A    between atoms: O_2  and  C_3 
REMARK    2  A    between atoms: C_3  and  C_4 
REMARK    3  A    between atoms: C_12  and  N_13 
REMARK       I    between atoms: N_13  and  C_14 
REMARK    4  A    between atoms: C_14  and  C_15 
ROOT
HETATM    1  N   UNL     1      41.887 -17.009   3.552  1.00  0.00    -0.323 N 
HETATM    2  C   UNL     1      43.208 -17.304   3.286  1.00  0.00     0.258 C 
HETATM    3  O   UNL     1      43.926 -16.668   2.520  1.00  0.00    -0.267 OA
HETATM    4  H   UNL     1      41.419 -17.596   4.231  1.00  0.00     0.169 HD
ENDROOT
BRANCH   1   5
HETATM    5  C   UNL     1      41.093 -15.982   2.997  1.00  0.00     0.036 A 
HETATM    6  C   UNL     1      40.610 -15.987   1.687  1.00  0.00     0.032 A 
HETATM    7  C   UNL     1      39.815 -14.943   1.191  1.00  0.00     0.034 A 
HETATM    8  C   UNL     1      39.523 -13.891   2.059  1.00  0.00     0.063 A 
HETATM    9  N   UNL     1      38.791 -12.751   1.889  1.00  0.00    -0.277 N 
HETATM   10  C   UNL     1      39.984 -13.840   3.368  1.00  0.00     0.031 A 
HETATM   11  N   UNL     1      38.738 -11.961   2.972  1.00  0.00    -0.167 NA
HETATM   12  H   UNL     1      38.301 -12.453   1.053  1.00  0.00     0.189 HD
HETATM   13  C   UNL     1      39.471 -12.614   3.898  1.00  0.00     0.164 A 
HETATM   14  C   UNL     1      40.779 -14.904   3.845  1.00  0.00     0.046 A 
BRANCH  13  15
HETATM   15  C   UNL     1      39.686 -12.090   5.256  1.00  0.00     0.314 C 
HETATM   16  O   UNL     1      38.784 -11.949   6.077  1.00  0.00    -0.257 OA
BRANCH  15  17
HETATM   17  O   UNL     1      40.995 -11.778   5.511  1.00  0.00    -0.321 OA
HETATM   18  C   UNL     1      41.250 -10.383   5.656  1.00  0.00     0.213 C 
ENDBRANCH  15  17
ENDBRANCH  13  15
ENDBRANCH   1   5
BRANCH   2  19
HETATM   19  C   UNL     1      43.758 -18.466   4.008  1.00  0.00     0.063 A 
HETATM   20  C   UNL     1      44.028 -19.828   3.615  1.00  0.00     0.046 A 
HETATM   21  C   UNL     1      44.568 -20.489   4.727  1.00  0.00     0.046 A 
HETATM   22  C   UNL     1      43.885 -20.590   2.435  1.00  0.00     0.130 A 
HETATM   23  C   UNL     1      44.958 -21.835   4.705  1.00  0.00     0.030 A 
HETATM   24  N   UNL     1      44.625 -19.580   5.755  1.00  0.00    -0.364 N 
HETATM   25  C   UNL     1      44.798 -22.547   3.514  1.00  0.00     0.005 A 
HETATM   26  C   UNL     1      44.266 -21.933   2.386  1.00  0.00     0.043 A 
HETATM   27  H   UNL     1      44.974 -19.780   6.683  1.00  0.00     0.165 HD
HETATM   28  C   UNL     1      44.149 -18.374   5.338  1.00  0.00     0.106 A 
HETATM   29  F   UNL     1      43.372 -20.039   1.324  1.00  0.00    -0.205 F 
ENDBRANCH   2  19
TORSDOF 4
ENDMDL
MODEL 5
REMARK VINA RESULT:      -8.1      3.140      8.580
REMARK  4 active torsions:
REMARK  status: ('A' for Active; 'I' for Inactive)
REMARK    1  A    between atoms: O_2  and  C_3 
REMARK    2  A    between atoms: C_3  and  C_4 
REMARK    3  A    between atoms: C_12  and  N_13 
REMARK       I    between atoms: N_13  and  C_14 
REMARK    4  A    between atoms: C_14  and  C_15 
ROOT
HETATM    1  N   UNL     1      41.871 -16.251   2.941  1.00  0.00    -0.323 N 
HETATM    2  C   UNL     1      40.573 -16.115   2.495  1.00  0.00     0.258 C 
HETATM    3  O   UNL     1      39.879 -17.036   2.071  1.00  0.00    -0.267 OA
HETATM    4  H   UNL     1      42.318 -15.416   3.297  1.00  0.00     0.169 HD
ENDROOT
BRANCH   1   5
HETATM    5  C   UNL     1      42.667 -17.417   2.969  1.00  0.00     0.036 A 
HETATM    6  C   UNL     1      43.165 -18.053   1.830  1.00  0.00     0.032 A 
HETATM    7  C   UNL     1      43.961 -19.204   1.916  1.00  0.00     0.034 A 
HETATM    8  C   UNL     1      44.239 -19.696   3.192  1.00  0.00     0.063 A 
HETATM    9  N   UNL     1      44.968 -20.772   3.609  1.00  0.00    -0.277 N 
HETATM   10  C   UNL     1      43.764 -19.101   4.353  1.00  0.00     0.031 A 
HETATM   11  N   UNL     1      45.007 -20.931   4.941  1.00  0.00    -0.167 NA
HETATM   12  H   UNL     1      45.466 -21.440   3.032  1.00  0.00     0.189 HD
HETATM   13  C   UNL     1      44.267 -19.910   5.421  1.00  0.00     0.164 A 
HETATM   14  C   UNL     1      42.968 -17.941   4.239  1.00  0.00     0.046 A 
BRANCH  13  15
HETATM   15  C   UNL     1      44.035 -19.702   6.859  1.00  0.00     0.314 C 
HETATM   16  O   UNL     1      43.496 -20.535   7.584  1.00  0.00    -0.257 OA
BRANCH  15  17
HETATM   17  O   UNL     1      44.481 -18.488   7.306  1.00  0.00    -0.321 OA
HETATM   18  C   UNL     1      43.476 -17.675   7.908  1.00  0.00     0.213 C 
ENDBRANCH  15  17
ENDBRANCH  13  15
ENDBRANCH   1   5
BRANCH   2  19
HETATM   19  C   UNL     1      40.016 -14.752   2.567  1.00  0.00     0.063 A 
HETATM   20  C   UNL     1      39.752 -13.857   3.667  1.00  0.00     0.046 A 
HETATM   21  C   UNL     1      39.227 -12.673   3.131  1.00  0.00     0.046 A 
HETATM   22  C   UNL     1      39.902 -13.902   5.070  1.00  0.00     0.130 A 
HETATM   23  C   UNL     1      38.859 -11.572   3.917  1.00  0.00     0.030 A 
HETATM   24  N   UNL     1      39.167 -12.832   1.769  1.00  0.00    -0.364 N 
HETATM   25  C   UNL     1      39.028 -11.665   5.300  1.00  0.00     0.005 A 
HETATM   26  C   UNL     1      39.545 -12.819   5.875  1.00  0.00     0.043 A 
HETATM   27  H   UNL     1      38.827 -12.134   1.121  1.00  0.00     0.165 HD
HETATM   28  C   UNL     1      39.636 -14.063   1.422  1.00  0.00     0.106 A 
HETATM   29  F   UNL     1      40.393 -14.999   5.669  1.00  0.00    -0.205 F 
ENDBRANCH   2  19
TORSDOF 4
ENDMDL
MODEL 6
REMARK VINA RESULT:      -7.9      2.519      3.123
REMARK  4 active torsions:
REMARK  status: ('A' for Active; 'I' for Inactive)
REMARK    1  A    between atoms: O_2  and  C_3 
REMARK    2  A    between atoms: C_3  and  C_4 
REMARK    3  A    between atoms: C_12  and  N_13 
REMARK       I    between atoms: N_13  and  C_14 
REMARK    4  A    between atoms: C_14  and  C_15 
ROOT
HETATM    1  N   UNL     1      43.238 -15.902   4.171  1.00  0.00    -0.323 N 
HETATM    2  C   UNL     1      42.573 -17.110   4.132  1.00  0.00     0.258 C 
HETATM    3  O   UNL     1      41.364 -17.237   3.958  1.00  0.00    -0.267 OA
HETATM    4  H   UNL     1      44.243 -15.942   4.288  1.00  0.00     0.169 HD
ENDROOT
BRANCH   1   5
HETATM    5  C   UNL     1      42.696 -14.603   4.064  1.00  0.00     0.036 A 
HETATM    6  C   UNL     1      42.323 -13.818   5.157  1.00  0.00     0.032 A 
HETATM    7  C   UNL     1      41.799 -12.528   4.994  1.00  0.00     0.034 A 
HETATM    8  C   UNL     1      41.662 -12.053   3.689  1.00  0.00     0.063 A 
HETATM    9  N   UNL     1      41.197 -10.865   3.201  1.00  0.00    -0.277 N 
HETATM   10  C   UNL     1      42.015 -12.796   2.572  1.00  0.00     0.031 A 
HETATM   11  N   UNL     1      41.214 -10.773   1.863  1.00  0.00    -0.167 NA
HETATM   12  H   UNL     1      40.851 -10.074   3.732  1.00  0.00     0.189 HD
HETATM   13  C   UNL     1      41.714 -11.957   1.452  1.00  0.00     0.164 A 
HETATM   14  C   UNL     1      42.544 -14.091   2.763  1.00  0.00     0.046 A 
BRANCH  13  15
HETATM   15  C   UNL     1      41.902 -12.293   0.032  1.00  0.00     0.314 C 
HETATM   16  O   UNL     1      42.845 -11.882  -0.640  1.00  0.00    -0.257 OA
BRANCH  15  17
HETATM   17  O   UNL     1      40.921 -13.109  -0.462  1.00  0.00    -0.321 OA
HETATM   18  C   UNL     1      41.382 -14.382  -0.909  1.00  0.00     0.213 C 
ENDBRANCH  15  17
ENDBRANCH  13  15
ENDBRANCH   1   5
BRANCH   2  19
HETATM   19  C   UNL     1      43.417 -18.306   4.301  1.00  0.00     0.063 A 
HETATM   20  C   UNL     1      43.642 -19.473   3.482  1.00  0.00     0.046 A 
HETATM   21  C   UNL     1      44.570 -20.284   4.148  1.00  0.00     0.046 A 
HETATM   22  C   UNL     1      43.170 -19.944   2.237  1.00  0.00     0.130 A 
HETATM   23  C   UNL     1      45.029 -21.506   3.635  1.00  0.00     0.030 A 
HETATM   24  N   UNL     1      44.900 -19.651   5.321  1.00  0.00    -0.364 N 
HETATM   25  C   UNL     1      44.534 -21.929   2.400  1.00  0.00     0.005 A 
HETATM   26  C   UNL     1      43.611 -21.157   1.704  1.00  0.00     0.043 A 
HETATM   27  H   UNL     1      45.553 -20.008   6.005  1.00  0.00     0.165 HD
HETATM   28  C   UNL     1      44.223 -18.473   5.420  1.00  0.00     0.106 A 
HETATM   29  F   UNL     1      42.274 -19.234   1.533  1.00  0.00    -0.205 F 
ENDBRANCH   2  19
TORSDOF 4
ENDMDL
MODEL 7
REMARK VINA RESULT:      -7.9      2.295      3.139
REMARK  4 active torsions:
REMARK  status: ('A' for Active; 'I' for Inactive)
REMARK    1  A    between atoms: O_2  and  C_3 
REMARK    2  A    between atoms: C_3  and  C_4 
REMARK    3  A    between atoms: C_12  and  N_13 
REMARK       I    between atoms: N_13  and  C_14 
REMARK    4  A    between atoms: C_14  and  C_15 
ROOT
HETATM    1  N   UNL     1      42.071 -16.267   4.761  1.00  0.00    -0.323 N 
HETATM    2  C   UNL     1      43.121 -16.637   3.946  1.00  0.00     0.258 C 
HETATM    3  O   UNL     1      43.569 -15.954   3.029  1.00  0.00    -0.267 OA
HETATM    4  H   UNL     1      41.824 -16.911   5.502  1.00  0.00     0.169 HD
ENDROOT
BRANCH   1   5
HETATM    5  C   UNL     1      41.289 -15.093   4.699  1.00  0.00     0.036 A 
HETATM    6  C   UNL     1      41.154 -14.186   5.752  1.00  0.00     0.032 A 
HETATM    7  C   UNL     1      40.371 -13.029   5.632  1.00  0.00     0.034 A 
HETATM    8  C   UNL     1      39.726 -12.815   4.413  1.00  0.00     0.063 A 
HETATM    9  N   UNL     1      38.911 -11.808   3.984  1.00  0.00    -0.277 N 
HETATM   10  C   UNL     1      39.827 -13.690   3.340  1.00  0.00     0.031 A 
HETATM   11  N   UNL     1      38.470 -11.952   2.725  1.00  0.00    -0.167 NA
HETATM   12  H   UNL     1      38.616 -10.990   4.505  1.00  0.00     0.189 HD
HETATM   13  C   UNL     1      39.022 -13.111   2.308  1.00  0.00     0.164 A 
HETATM   14  C   UNL     1      40.623 -14.846   3.485  1.00  0.00     0.046 A 
BRANCH  13  15
HETATM   15  C   UNL     1      38.793 -13.664   0.964  1.00  0.00     0.314 C 
HETATM   16  O   UNL     1      37.808 -14.335   0.668  1.00  0.00    -0.257 OA
BRANCH  15  17
HETATM   17  O   UNL     1      39.788 -13.351   0.077  1.00  0.00    -0.321 OA
HETATM   18  C   UNL     1      40.367 -14.477  -0.579  1.00  0.00     0.213 C 
ENDBRANCH  15  17
ENDBRANCH  13  15
ENDBRANCH   1   5
BRANCH   2  19
HETATM   19  C   UNL     1      43.727 -17.947   4.246  1.00  0.00     0.063 A 
HETATM   20  C   UNL     1      43.813 -19.181   3.503  1.00  0.00     0.046 A 
HETATM   21  C   UNL     1      44.526 -20.097   4.288  1.00  0.00     0.046 A 
HETATM   22  C   UNL     1      43.373 -19.639   2.241  1.00  0.00     0.130 A 
HETATM   23  C   UNL     1      44.807 -21.407   3.875  1.00  0.00     0.030 A 
HETATM   24  N   UNL     1      44.860 -19.461   5.457  1.00  0.00    -0.364 N 
HETATM   25  C   UNL     1      44.352 -21.813   2.618  1.00  0.00     0.005 A 
HETATM   26  C   UNL     1      43.640 -20.938   1.806  1.00  0.00     0.043 A 
HETATM   27  H   UNL     1      45.381 -19.882   6.215  1.00  0.00     0.165 HD
HETATM   28  C   UNL     1      44.393 -18.181   5.442  1.00  0.00     0.106 A 
HETATM   29  F   UNL     1      42.678 -18.830   1.426  1.00  0.00    -0.205 F 
ENDBRANCH   2  19
TORSDOF 4
ENDMDL
MODEL 8
REMARK VINA RESULT:      -7.8      3.033      8.377
REMARK  4 active torsions:
REMARK  status: ('A' for Active; 'I' for Inactive)
REMARK    1  A    between atoms: O_2  and  C_3 
REMARK    2  A    between atoms: C_3  and  C_4 
REMARK    3  A    between atoms: C_12  and  N_13 
REMARK       I    between atoms: N_13  and  C_14 
REMARK    4  A    between atoms: C_14  and  C_15 
ROOT
HETATM    1  N   UNL     1      41.437 -16.312   2.760  1.00  0.00    -0.323 N 
HETATM    2  C   UNL     1      41.768 -14.973   2.788  1.00  0.00     0.258 C 
HETATM    3  O   UNL     1      42.913 -14.537   2.868  1.00  0.00    -0.267 OA
HETATM    4  H   UNL     1      40.455 -16.535   2.657  1.00  0.00     0.169 HD
ENDROOT
BRANCH   1   5
HETATM    5  C   UNL     1      42.299 -17.426   2.852  1.00  0.00     0.036 A 
HETATM    6  C   UNL     1      42.774 -18.142   1.752  1.00  0.00     0.032 A 
HETATM    7  C   UNL     1      43.638 -19.237   1.901  1.00  0.00     0.034 A 
HETATM    8  C   UNL     1      44.008 -19.588   3.199  1.00  0.00     0.063 A 
HETATM    9  N   UNL     1      44.818 -20.580   3.674  1.00  0.00    -0.277 N 
HETATM   10  C   UNL     1      43.559 -18.910   4.324  1.00  0.00     0.031 A 
HETATM   11  N   UNL     1      44.933 -20.607   5.011  1.00  0.00    -0.167 NA
HETATM   12  H   UNL     1      45.324 -21.273   3.135  1.00  0.00     0.189 HD
HETATM   13  C   UNL     1      44.161 -19.585   5.434  1.00  0.00     0.164 A 
HETATM   14  C   UNL     1      42.693 -17.810   4.147  1.00  0.00     0.046 A 
BRANCH  13  15
HETATM   15  C   UNL     1      43.990 -19.252   6.857  1.00  0.00     0.314 C 
HETATM   16  O   UNL     1      43.642 -20.069   7.705  1.00  0.00    -0.257 OA
BRANCH  15  17
HETATM   17  O   UNL     1      44.260 -17.940   7.138  1.00  0.00    -0.321 OA
HETATM   18  C   UNL     1      43.384 -17.350   8.096  1.00  0.00     0.213 C 
ENDBRANCH  15  17
ENDBRANCH  13  15
ENDBRANCH   1   5
BRANCH   2  19
HETATM   19  C   UNL     1      40.633 -14.037   2.698  1.00  0.00     0.063 A 
HETATM   20  C   UNL     1      39.686 -13.741   1.650  1.00  0.00     0.046 A 
HETATM   21  C   UNL     1      38.810 -12.761   2.137  1.00  0.00     0.046 A 
HETATM   22  C   UNL     1      39.456 -14.194   0.333  1.00  0.00     0.130 A 
HETATM   23  C   UNL     1      37.750 -12.236   1.384  1.00  0.00     0.030 A 
HETATM   24  N   UNL     1      39.199 -12.466   3.420  1.00  0.00    -0.364 N 
HETATM   25  C   UNL     1      37.563 -12.717   0.086  1.00  0.00     0.005 A 
HETATM   26  C   UNL     1      38.408 -13.688  -0.438  1.00  0.00     0.043 A 
HETATM   27  H   UNL     1      38.745 -11.789   4.020  1.00  0.00     0.165 HD
HETATM   28  C   UNL     1      40.280 -13.220   3.765  1.00  0.00     0.106 A 
HETATM   29  F   UNL     1      40.250 -15.127  -0.216  1.00  0.00    -0.205 F 
ENDBRANCH   2  19
TORSDOF 4
ENDMDL
MODEL 9
REMARK VINA RESULT:      -7.7      2.537      8.454
REMARK  4 active torsions:
REMARK  status: ('A' for Active; 'I' for Inactive)
REMARK    1  A    between atoms: O_2  and  C_3 
REMARK    2  A    between atoms: C_3  and  C_4 
REMARK    3  A    between atoms: C_12  and  N_13 
REMARK       I    between atoms: N_13  and  C_14 
REMARK    4  A    between atoms: C_14  and  C_15 
ROOT
HETATM    1  N   UNL     1      41.177 -16.593   2.304  1.00  0.00    -0.323 N 
HETATM    2  C   UNL     1      41.298 -15.373   1.671  1.00  0.00     0.258 C 
HETATM    3  O   UNL     1      42.341 -14.730   1.585  1.00  0.00    -0.267 OA
HETATM    4  H   UNL     1      40.266 -17.032   2.272  1.00  0.00     0.169 HD
ENDROOT
BRANCH   1   5
HETATM    5  C   UNL     1      42.171 -17.320   2.995  1.00  0.00     0.036 A 
HETATM    6  C   UNL     1      42.811 -18.451   2.484  1.00  0.00     0.032 A 
HETATM    7  C   UNL     1      43.799 -19.131   3.211  1.00  0.00     0.034 A 
HETATM    8  C   UNL     1      44.123 -18.632   4.473  1.00  0.00     0.063 A 
HETATM    9  N   UNL     1      45.022 -19.052   5.410  1.00  0.00    -0.277 N 
HETATM   10  C   UNL     1      43.512 -17.514   5.025  1.00  0.00     0.031 A 
HETATM   11  N   UNL     1      45.048 -18.306   6.526  1.00  0.00    -0.167 NA
HETATM   12  H   UNL     1      45.651 -19.845   5.349  1.00  0.00     0.189 HD
HETATM   13  C   UNL     1      44.119 -17.351   6.310  1.00  0.00     0.164 A 
HETATM   14  C   UNL     1      42.522 -16.846   4.272  1.00  0.00     0.046 A 
BRANCH  13  15
HETATM   15  C   UNL     1      43.809 -16.306   7.298  1.00  0.00     0.314 C 
HETATM   16  O   UNL     1      43.590 -16.540   8.484  1.00  0.00    -0.257 OA
BRANCH  15  17
HETATM   17  O   UNL     1      43.790 -15.047   6.761  1.00  0.00    -0.321 OA
HETATM   18  C   UNL     1      44.694 -14.131   7.375  1.00  0.00     0.213 C 
ENDBRANCH  15  17
ENDBRANCH  13  15
ENDBRANCH   1   5
BRANCH   2  19
HETATM   19  C   UNL     1      40.064 -14.851   1.056  1.00  0.00     0.063 A 
HETATM   20  C   UNL     1      39.796 -14.193  -0.199  1.00  0.00     0.046 A 
HETATM   21  C   UNL     1      38.420 -13.934  -0.255  1.00  0.00     0.046 A 
HETATM   22  C   UNL     1      40.560 -13.784  -1.314  1.00  0.00     0.130 A 
HETATM   23  C   UNL     1      37.800 -13.305  -1.343  1.00  0.00     0.030 A 
HETATM   24  N   UNL     1      37.867 -14.408   0.910  1.00  0.00    -0.364 N 
HETATM   25  C   UNL     1      38.598 -12.920  -2.423  1.00  0.00     0.005 A 
HETATM   26  C   UNL     1      39.968 -13.156  -2.411  1.00  0.00     0.043 A 
HETATM   27  H   UNL     1      36.885 -14.357   1.145  1.00  0.00     0.165 HD
HETATM   28  C   UNL     1      38.835 -14.958   1.695  1.00  0.00     0.106 A 
HETATM   29  F   UNL     1      41.887 -13.986  -1.343  1.00  0.00    -0.205 F 
ENDBRANCH   2  19
TORSDOF 4
ENDMDL
MODEL 10
REMARK VINA RESULT:      -7.7      2.465      8.353
REMARK  4 active torsions:
REMARK  status: ('A' for Active; 'I' for Inactive)
REMARK    1  A    between atoms: O_2  and  C_3 
REMARK    2  A    between atoms: C_3  and  C_4 
REMARK    3  A    between atoms: C_12  and  N_13 
REMARK       I    between atoms: N_13  and  C_14 
REMARK    4  A    between atoms: C_14  and  C_15 
ROOT
HETATM    1  N   UNL     1      41.851 -17.177   1.396  1.00  0.00    -0.323 N 
HETATM    2  C   UNL     1      41.915 -15.808   1.232  1.00  0.00     0.258 C 
HETATM    3  O   UNL     1      42.720 -15.073   1.796  1.00  0.00    -0.267 OA
HETATM    4  H   UNL     1      41.159 -17.668   0.844  1.00  0.00     0.169 HD
ENDROOT
BRANCH   1   5
HETATM    5  C   UNL     1      42.634 -17.992   2.241  1.00  0.00     0.036 A 
HETATM    6  C   UNL     1      43.311 -19.137   1.816  1.00  0.00     0.032 A 
HETATM    7  C   UNL     1      44.085 -19.906   2.697  1.00  0.00     0.034 A 
HETATM    8  C   UNL     1      44.155 -19.483   4.025  1.00  0.00     0.063 A 
HETATM    9  N   UNL     1      44.810 -19.997   5.107  1.00  0.00    -0.277 N 
HETATM   10  C   UNL     1      43.497 -18.354   4.495  1.00  0.00     0.031 A 
HETATM   11  N   UNL     1      44.633 -19.302   6.242  1.00  0.00    -0.167 NA
HETATM   12  H   UNL     1      45.396 -20.823   5.137  1.00  0.00     0.189 HD
HETATM   13  C   UNL     1      43.822 -18.284   5.887  1.00  0.00     0.164 A 
HETATM   14  C   UNL     1      42.727 -17.596   3.588  1.00  0.00     0.046 A 
BRANCH  13  15
HETATM   15  C   UNL     1      43.360 -17.264   6.843  1.00  0.00     0.314 C 
HETATM   16  O   UNL     1      42.363 -17.401   7.547  1.00  0.00    -0.257 OA
BRANCH  15  17
HETATM   17  O   UNL     1      44.155 -16.150   6.866  1.00  0.00    -0.321 OA
HETATM   18  C   UNL     1      43.554 -14.986   6.304  1.00  0.00     0.213 C 
ENDBRANCH  15  17
ENDBRANCH  13  15
ENDBRANCH   1   5
BRANCH   2  19
HETATM   19  C   UNL     1      40.937 -15.236   0.289  1.00  0.00     0.063 A 
HETATM   20  C   UNL     1      39.776 -14.397   0.469  1.00  0.00     0.046 A 
HETATM   21  C   UNL     1      39.233 -14.152  -0.799  1.00  0.00     0.046 A 
HETATM   22  C   UNL     1      39.113 -13.803   1.565  1.00  0.00     0.130 A 
HETATM   23  C   UNL     1      38.092 -13.362  -1.007  1.00  0.00     0.030 A 
HETATM   24  N   UNL     1      40.017 -14.808  -1.715  1.00  0.00    -0.364 N 
HETATM   25  C   UNL     1      37.473 -12.795   0.110  1.00  0.00     0.005 A 
HETATM   26  C   UNL     1      37.977 -13.012   1.387  1.00  0.00     0.043 A 
HETATM   27  H   UNL     1      39.862 -14.806  -2.715  1.00  0.00     0.165 HD
HETATM   28  C   UNL     1      41.035 -15.453  -1.079  1.00  0.00     0.106 A 
HETATM   29  F   UNL     1      39.562 -13.991   2.817  1.00  0.00    -0.205 F 
ENDBRANCH   2  19
TORSDOF 4
ENDMDL
