MODEL 1
REMARK VINA RESULT:      -8.6      0.000      0.000
REMARK  5 active torsions:
REMARK  status: ('A' for Active; 'I' for Inactive)
REMARK    1  A    between atoms: C_6  and  O_7 
REMARK    2  A    between atoms: O_7  and  C_8 
REMARK    3  A    between atoms: C_8  and  C_9 
REMARK       I    between atoms: C_9  and  N_10 
REMARK    4  A    between atoms: N_10  and  N_11 
REMARK    5  A    between atoms: C_12  and  C_13 
ROOT
HETATM    1  C   UNL     1      44.785 -13.661   7.243  1.00  0.00     0.261 C 
HETATM    2  N   UNL     1      43.592 -14.302   6.939  1.00  0.00    -0.246 N 
HETATM    3  O   UNL     1      45.787 -13.645   6.530  1.00  0.00    -0.269 OA
HETATM    4  H   UNL     1      42.834 -14.290   7.615  1.00  0.00     0.192 HD
ENDROOT
BRANCH   2   5
HETATM    5  N   UNL     1      43.473 -14.986   5.766  1.00  0.00    -0.184 NA
HETATM    6  C   UNL     1      43.416 -16.274   5.853  1.00  0.00     0.152 C 
BRANCH   6   7
HETATM    7  C   UNL     1      43.279 -17.056   4.642  1.00  0.00     0.011 A 
HETATM    8  C   UNL     1      43.856 -18.335   4.350  1.00  0.00     0.004 A 
HETATM    9  C   UNL     1      43.435 -18.700   3.069  1.00  0.00     0.043 A 
HETATM   10  C   UNL     1      44.687 -19.229   5.059  1.00  0.00     0.014 A 
HETATM   11  C   UNL     1      43.803 -19.907   2.462  1.00  0.00     0.030 A 
HETATM   12  N   UNL     1      42.640 -17.683   2.596  1.00  0.00    -0.364 N 
HETATM   13  C   UNL     1      44.625 -20.773   3.187  1.00  0.00     0.002 A 
HETATM   14  C   UNL     1      45.062 -20.442   4.467  1.00  0.00     0.001 A 
HETATM   15  H   UNL     1      42.192 -17.675   1.690  1.00  0.00     0.165 HD
HETATM   16  C   UNL     1      42.534 -16.694   3.533  1.00  0.00     0.102 A 
ENDBRANCH   6   7
ENDBRANCH   2   5
BRANCH   1  17
HETATM   17  C   UNL     1      44.719 -12.854   8.535  1.00  0.00     0.280 C 
BRANCH  17  18
HETATM   18  O   UNL     1      43.776 -11.786   8.434  1.00  0.00    -0.342 OA
BRANCH  18  19
HETATM   19  C   UNL     1      43.578 -11.117   9.614  1.00  0.00     0.069 A 
HETATM   20  C   UNL     1      42.543 -10.205   9.833  1.00  0.00     0.044 A 
HETATM   21  C   UNL     1      42.394  -9.569  11.078  1.00  0.00    -0.053 A 
HETATM   22  C   UNL     1      43.312  -9.846  12.110  1.00  0.00    -0.056 A 
HETATM   23  C   UNL     1      41.273  -8.584  11.267  1.00  0.00     0.049 C 
HETATM   24  C   UNL     1      43.206  -9.186  13.458  1.00  0.00     0.049 C 
HETATM   25  C   UNL     1      44.328 -10.789  11.887  1.00  0.00     0.010 A 
HETATM   26  C   UNL     1      44.454 -11.425  10.650  1.00  0.00     0.037 A 
ENDBRANCH  18  19
ENDBRANCH  17  18
ENDBRANCH   1  17
TORSDOF 5
ENDMDL
MODEL 2
REMARK VINA RESULT:      -8.6      1.225      2.235
REMARK  5 active torsions:
REMARK  status: ('A' for Active; 'I' for Inactive)
REMARK    1  A    between atoms: C_6  and  O_7 
REMARK    2  A    between atoms: O_7  and  C_8 
REMARK    3  A    between atoms: C_8  and  C_9 
REMARK       I    between atoms: C_9  and  N_10 
REMARK    4  A    between atoms: N_10  and  N_11 
REMARK    5  A    between atoms: C_12  and  C_13 
ROOT
HETATM    1  C   UNL     1      44.789 -13.364   7.749  1.00  0.00     0.261 C 
HETATM    2  N   UNL     1      43.960 -14.463   7.574  1.00  0.00    -0.246 N 
HETATM    3  O   UNL     1      45.951 -13.277   7.353  1.00  0.00    -0.269 OA
HETATM    4  H   UNL     1      43.027 -14.452   7.974  1.00  0.00     0.192 HD
ENDROOT
BRANCH   2   5
HETATM    5  N   UNL     1      44.427 -15.563   6.918  1.00  0.00    -0.184 NA
HETATM    6  C   UNL     1      43.537 -16.367   6.434  1.00  0.00     0.152 C 
BRANCH   6   7
HETATM    7  C   UNL     1      43.971 -17.548   5.718  1.00  0.00     0.011 A 
HETATM    8  C   UNL     1      43.550 -17.997   4.423  1.00  0.00     0.004 A 
HETATM    9  C   UNL     1      44.249 -19.173   4.141  1.00  0.00     0.043 A 
HETATM   10  C   UNL     1      42.649 -17.507   3.453  1.00  0.00     0.014 A 
HETATM   11  C   UNL     1      44.092 -19.883   2.946  1.00  0.00     0.030 A 
HETATM   12  N   UNL     1      45.057 -19.435   5.222  1.00  0.00    -0.364 N 
HETATM   13  C   UNL     1      43.195 -19.375   2.003  1.00  0.00     0.002 A 
HETATM   14  C   UNL     1      42.483 -18.204   2.249  1.00  0.00     0.001 A 
HETATM   15  H   UNL     1      45.681 -20.226   5.296  1.00  0.00     0.165 HD
HETATM   16  C   UNL     1      44.903 -18.464   6.171  1.00  0.00     0.102 A 
ENDBRANCH   6   7
ENDBRANCH   2   5
BRANCH   1  17
HETATM   17  C   UNL     1      44.084 -12.180   8.402  1.00  0.00     0.280 C 
BRANCH  17  18
HETATM   18  O   UNL     1      44.322 -12.144   9.810  1.00  0.00    -0.342 OA
BRANCH  18  19
HETATM   19  C   UNL     1      43.638 -11.148  10.456  1.00  0.00     0.069 A 
HETATM   20  C   UNL     1      43.876 -10.765  11.777  1.00  0.00     0.044 A 
HETATM   21  C   UNL     1      43.143  -9.720  12.368  1.00  0.00    -0.053 A 
HETATM   22  C   UNL     1      42.146  -9.065  11.619  1.00  0.00    -0.056 A 
HETATM   23  C   UNL     1      43.424  -9.347  13.799  1.00  0.00     0.049 C 
HETATM   24  C   UNL     1      41.326  -7.948  12.204  1.00  0.00     0.049 C 
HETATM   25  C   UNL     1      41.940  -9.438  10.281  1.00  0.00     0.010 A 
HETATM   26  C   UNL     1      42.687 -10.467   9.703  1.00  0.00     0.037 A 
ENDBRANCH  18  19
ENDBRANCH  17  18
ENDBRANCH   1  17
TORSDOF 5
ENDMDL
MODEL 3
REMARK VINA RESULT:      -8.3      2.064     10.499
REMARK  5 active torsions:
REMARK  status: ('A' for Active; 'I' for Inactive)
REMARK    1  A    between atoms: C_6  and  O_7 
REMARK    2  A    between atoms: O_7  and  C_8 
REMARK    3  A    between atoms: C_8  and  C_9 
REMARK       I    between atoms: C_9  and  N_10 
REMARK    4  A    between atoms: N_10  and  N_11 
REMARK    5  A    between atoms: C_12  and  C_13 
ROOT
HETATM    1  C   UNL     1      43.964 -16.194   7.333  1.00  0.00     0.261 C 
HETATM    2  N   UNL     1      44.401 -14.881   7.238  1.00  0.00    -0.246 N 
HETATM    3  O   UNL     1      43.531 -16.729   8.354  1.00  0.00    -0.269 OA
HETATM    4  H   UNL     1      44.779 -14.544   6.357  1.00  0.00     0.192 HD
ENDROOT
BRANCH   2   5
HETATM    5  N   UNL     1      44.371 -14.077   8.339  1.00  0.00    -0.184 NA
HETATM    6  C   UNL     1      44.521 -12.810   8.132  1.00  0.00     0.152 C 
BRANCH   6   7
HETATM    7  C   UNL     1      44.488 -11.904   9.261  1.00  0.00     0.011 A 
HETATM    8  C   UNL     1      43.461 -10.967   9.608  1.00  0.00     0.004 A 
HETATM    9  C   UNL     1      43.860 -10.325  10.783  1.00  0.00     0.043 A 
HETATM   10  C   UNL     1      42.218 -10.609   9.043  1.00  0.00     0.014 A 
HETATM   11  C   UNL     1      43.085  -9.347  11.417  1.00  0.00     0.030 A 
HETATM   12  N   UNL     1      45.084 -10.845  11.135  1.00  0.00    -0.364 N 
HETATM   13  C   UNL     1      41.859  -9.015  10.837  1.00  0.00     0.002 A 
HETATM   14  C   UNL     1      41.428  -9.635   9.667  1.00  0.00     0.001 A 
HETATM   15  H   UNL     1      45.615 -10.568  11.949  1.00  0.00     0.165 HD
HETATM   16  C   UNL     1      45.467 -11.797  10.232  1.00  0.00     0.102 A 
ENDBRANCH   6   7
ENDBRANCH   2   5
BRANCH   1  17
HETATM   17  C   UNL     1      43.960 -16.923   5.994  1.00  0.00     0.280 C 
BRANCH  17  18
HETATM   18  O   UNL     1      44.857 -18.033   6.002  1.00  0.00    -0.342 OA
BRANCH  18  19
HETATM   19  C   UNL     1      44.626 -18.932   4.993  1.00  0.00     0.069 A 
HETATM   20  C   UNL     1      44.811 -20.311   5.115  1.00  0.00     0.044 A 
HETATM   21  C   UNL     1      44.537 -21.173   4.038  1.00  0.00    -0.053 A 
HETATM   22  C   UNL     1      44.085 -20.633   2.818  1.00  0.00    -0.056 A 
HETATM   23  C   UNL     1      44.762 -22.651   4.209  1.00  0.00     0.049 C 
HETATM   24  C   UNL     1      43.786 -21.508   1.631  1.00  0.00     0.049 C 
HETATM   25  C   UNL     1      43.872 -19.248   2.720  1.00  0.00     0.010 A 
HETATM   26  C   UNL     1      44.134 -18.407   3.803  1.00  0.00     0.037 A 
ENDBRANCH  18  19
ENDBRANCH  17  18
ENDBRANCH   1  17
TORSDOF 5
ENDMDL
MODEL 4
REMARK VINA RESULT:      -8.3      5.709      8.438
REMARK  5 active torsions:
REMARK  status: ('A' for Active; 'I' for Inactive)
REMARK    1  A    between atoms: C_6  and  O_7 
REMARK    2  A    between atoms: O_7  and  C_8 
REMARK    3  A    between atoms: C_8  and  C_9 
REMARK       I    between atoms: C_9  and  N_10 
REMARK    4  A    between atoms: N_10  and  N_11 
REMARK    5  A    between atoms: C_12  and  C_13 
ROOT
HETATM    1  C   UNL     1      42.895 -13.729   3.155  1.00  0.00     0.261 C 
HETATM    2  N   UNL     1      42.163 -14.880   3.411  1.00  0.00    -0.246 N 
HETATM    3  O   UNL     1      44.086 -13.568   3.420  1.00  0.00    -0.269 OA
HETATM    4  H   UNL     1      41.172 -14.900   3.190  1.00  0.00     0.192 HD
ENDROOT
BRANCH   2   5
HETATM    5  N   UNL     1      42.769 -15.947   4.006  1.00  0.00    -0.184 NA
HETATM    6  C   UNL     1      43.028 -16.960   3.246  1.00  0.00     0.152 C 
BRANCH   6   7
HETATM    7  C   UNL     1      43.680 -18.120   3.818  1.00  0.00     0.011 A 
HETATM    8  C   UNL     1      43.807 -19.429   3.247  1.00  0.00     0.004 A 
HETATM    9  C   UNL     1      44.524 -20.212   4.155  1.00  0.00     0.043 A 
HETATM   10  C   UNL     1      43.393 -20.023   2.035  1.00  0.00     0.014 A 
HETATM   11  C   UNL     1      44.845 -21.553   3.915  1.00  0.00     0.030 A 
HETATM   12  N   UNL     1      44.816 -19.416   5.238  1.00  0.00    -0.364 N 
HETATM   13  C   UNL     1      44.424 -22.115   2.707  1.00  0.00     0.002 A 
HETATM   14  C   UNL     1      43.709 -21.363   1.779  1.00  0.00     0.001 A 
HETATM   15  H   UNL     1      45.333 -19.718   6.052  1.00  0.00     0.165 HD
HETATM   16  C   UNL     1      44.320 -18.157   5.043  1.00  0.00     0.102 A 
ENDBRANCH   6   7
ENDBRANCH   2   5
BRANCH   1  17
HETATM   17  C   UNL     1      42.104 -12.674   2.390  1.00  0.00     0.280 C 
BRANCH  17  18
HETATM   18  O   UNL     1      42.492 -12.627   1.017  1.00  0.00    -0.342 OA
BRANCH  18  19
HETATM   19  C   UNL     1      41.520 -13.070   0.158  1.00  0.00     0.069 A 
HETATM   20  C   UNL     1      41.709 -14.087  -0.780  1.00  0.00     0.044 A 
HETATM   21  C   UNL     1      40.658 -14.500  -1.618  1.00  0.00    -0.053 A 
HETATM   22  C   UNL     1      39.404 -13.866  -1.517  1.00  0.00    -0.056 A 
HETATM   23  C   UNL     1      40.909 -15.591  -2.623  1.00  0.00     0.049 C 
HETATM   24  C   UNL     1      38.248 -14.261  -2.395  1.00  0.00     0.049 C 
HETATM   25  C   UNL     1      39.218 -12.868  -0.547  1.00  0.00     0.010 A 
HETATM   26  C   UNL     1      40.268 -12.480   0.288  1.00  0.00     0.037 A 
ENDBRANCH  18  19
ENDBRANCH  17  18
ENDBRANCH   1  17
TORSDOF 5
ENDMDL
MODEL 5
REMARK VINA RESULT:      -8.3      6.294      8.804
REMARK  5 active torsions:
REMARK  status: ('A' for Active; 'I' for Inactive)
REMARK    1  A    between atoms: C_6  and  O_7 
REMARK    2  A    between atoms: O_7  and  C_8 
REMARK    3  A    between atoms: C_8  and  C_9 
REMARK       I    between atoms: C_9  and  N_10 
REMARK    4  A    between atoms: N_10  and  N_11 
REMARK    5  A    between atoms: C_12  and  C_13 
ROOT
HETATM    1  C   UNL     1      42.639 -13.920   2.211  1.00  0.00     0.261 C 
HETATM    2  N   UNL     1      42.397 -15.221   1.794  1.00  0.00    -0.246 N 
HETATM    3  O   UNL     1      43.511 -13.577   3.009  1.00  0.00    -0.269 OA
HETATM    4  H   UNL     1      41.625 -15.406   1.161  1.00  0.00     0.192 HD
ENDROOT
BRANCH   2   5
HETATM    5  N   UNL     1      43.160 -16.240   2.284  1.00  0.00    -0.184 NA
HETATM    6  C   UNL     1      42.650 -16.926   3.254  1.00  0.00     0.152 C 
BRANCH   6   7
HETATM    7  C   UNL     1      43.408 -18.028   3.809  1.00  0.00     0.011 A 
HETATM    8  C   UNL     1      43.630 -19.322   3.234  1.00  0.00     0.004 A 
HETATM    9  C   UNL     1      44.430 -20.043   4.125  1.00  0.00     0.043 A 
HETATM   10  C   UNL     1      43.239 -19.949   2.032  1.00  0.00     0.014 A 
HETATM   11  C   UNL     1      44.854 -21.353   3.876  1.00  0.00     0.030 A 
HETATM   12  N   UNL     1      44.679 -19.225   5.201  1.00  0.00    -0.364 N 
HETATM   13  C   UNL     1      44.454 -21.948   2.677  1.00  0.00     0.002 A 
HETATM   14  C   UNL     1      43.658 -21.259   1.767  1.00  0.00     0.001 A 
HETATM   15  H   UNL     1      45.237 -19.483   6.003  1.00  0.00     0.165 HD
HETATM   16  C   UNL     1      44.077 -18.012   5.020  1.00  0.00     0.102 A 
ENDBRANCH   6   7
ENDBRANCH   2   5
BRANCH   1  17
HETATM   17  C   UNL     1      41.776 -12.889   1.490  1.00  0.00     0.280 C 
BRANCH  17  18
HETATM   18  O   UNL     1      42.570 -11.839   0.940  1.00  0.00    -0.342 OA
BRANCH  18  19
HETATM   19  C   UNL     1      42.500 -11.758  -0.427  1.00  0.00     0.069 A 
HETATM   20  C   UNL     1      41.965 -12.756  -1.244  1.00  0.00     0.044 A 
HETATM   21  C   UNL     1      41.912 -12.594  -2.640  1.00  0.00    -0.053 A 
HETATM   22  C   UNL     1      42.420 -11.414  -3.218  1.00  0.00    -0.056 A 
HETATM   23  C   UNL     1      41.338 -13.700  -3.483  1.00  0.00     0.049 C 
HETATM   24  C   UNL     1      42.397 -11.193  -4.706  1.00  0.00     0.049 C 
HETATM   25  C   UNL     1      42.924 -10.405  -2.383  1.00  0.00     0.010 A 
HETATM   26  C   UNL     1      42.956 -10.574  -0.997  1.00  0.00     0.037 A 
ENDBRANCH  18  19
ENDBRANCH  17  18
ENDBRANCH   1  17
TORSDOF 5
ENDMDL
MODEL 6
REMARK VINA RESULT:      -8.2      7.004      9.445
REMARK  5 active torsions:
REMARK  status: ('A' for Active; 'I' for Inactive)
REMARK    1  A    between atoms: C_6  and  O_7 
REMARK    2  A    between atoms: O_7  and  C_8 
REMARK    3  A    between atoms: C_8  and  C_9 
REMARK       I    between atoms: C_9  and  N_10 
REMARK    4  A    between atoms: N_10  and  N_11 
REMARK    5  A    between atoms: C_12  and  C_13 
ROOT
HETATM    1  C   UNL     1      40.705 -15.468   0.755  1.00  0.00     0.261 C 
HETATM    2  N   UNL     1      41.322 -16.664   0.418  1.00  0.00    -0.246 N 
HETATM    3  O   UNL     1      40.519 -15.059   1.901  1.00  0.00    -0.269 OA
HETATM    4  H   UNL     1      41.392 -16.931  -0.559  1.00  0.00     0.192 HD
ENDROOT
BRANCH   2   5
HETATM    5  N   UNL     1      41.774 -17.492   1.404  1.00  0.00    -0.184 NA
HETATM    6  C   UNL     1      43.027 -17.397   1.706  1.00  0.00     0.152 C 
BRANCH   6   7
HETATM    7  C   UNL     1      43.565 -18.243   2.751  1.00  0.00     0.011 A 
HETATM    8  C   UNL     1      43.834 -19.650   2.694  1.00  0.00     0.004 A 
HETATM    9  C   UNL     1      44.357 -20.025   3.933  1.00  0.00     0.043 A 
HETATM   10  C   UNL     1      43.695 -20.642   1.699  1.00  0.00     0.014 A 
HETATM   11  C   UNL     1      44.745 -21.337   4.229  1.00  0.00     0.030 A 
HETATM   12  N   UNL     1      44.399 -18.896   4.716  1.00  0.00    -0.364 N 
HETATM   13  C   UNL     1      44.599 -22.299   3.226  1.00  0.00     0.002 A 
HETATM   14  C   UNL     1      44.082 -21.959   1.978  1.00  0.00     0.001 A 
HETATM   15  H   UNL     1      44.738 -18.868   5.668  1.00  0.00     0.165 HD
HETATM   16  C   UNL     1      43.932 -17.820   4.016  1.00  0.00     0.102 A 
ENDBRANCH   6   7
ENDBRANCH   2   5
BRANCH   1  17
HETATM   17  C   UNL     1      40.358 -14.611  -0.458  1.00  0.00     0.280 C 
BRANCH  17  18
HETATM   18  O   UNL     1      41.352 -14.723  -1.476  1.00  0.00    -0.342 OA
BRANCH  18  19
HETATM   19  C   UNL     1      41.671 -13.526  -2.064  1.00  0.00     0.069 A 
HETATM   20  C   UNL     1      42.396 -12.513  -1.433  1.00  0.00     0.044 A 
HETATM   21  C   UNL     1      42.699 -11.317  -2.108  1.00  0.00    -0.053 A 
HETATM   22  C   UNL     1      42.251 -11.137  -3.431  1.00  0.00    -0.056 A 
HETATM   23  C   UNL     1      43.472 -10.246  -1.387  1.00  0.00     0.049 C 
HETATM   24  C   UNL     1      42.539  -9.873  -4.196  1.00  0.00     0.049 C 
HETATM   25  C   UNL     1      41.552 -12.177  -4.064  1.00  0.00     0.010 A 
HETATM   26  C   UNL     1      41.272 -13.365  -3.386  1.00  0.00     0.037 A 
ENDBRANCH  18  19
ENDBRANCH  17  18
ENDBRANCH   1  17
TORSDOF 5
ENDMDL
MODEL 7
REMARK VINA RESULT:      -8.0      2.299     10.164
REMARK  5 active torsions:
REMARK  status: ('A' for Active; 'I' for Inactive)
REMARK    1  A    between atoms: C_6  and  O_7 
REMARK    2  A    between atoms: O_7  and  C_8 
REMARK    3  A    between atoms: C_8  and  C_9 
REMARK       I    between atoms: C_9  and  N_10 
REMARK    4  A    between atoms: N_10  and  N_11 
REMARK    5  A    between atoms: C_12  and  C_13 
ROOT
HETATM    1  C   UNL     1      44.748 -12.810   8.396  1.00  0.00     0.261 C 
HETATM    2  N   UNL     1      43.774 -11.867   8.104  1.00  0.00    -0.246 N 
HETATM    3  O   UNL     1      45.388 -12.874   9.445  1.00  0.00    -0.269 OA
HETATM    4  H   UNL     1      43.329 -11.875   7.191  1.00  0.00     0.192 HD
ENDROOT
BRANCH   2   5
HETATM    5  N   UNL     1      43.466 -10.907   9.024  1.00  0.00    -0.184 NA
HETATM    6  C   UNL     1      42.224 -10.556   9.096  1.00  0.00     0.152 C 
BRANCH   6   7
HETATM    7  C   UNL     1      41.833  -9.549  10.061  1.00  0.00     0.011 A 
HETATM    8  C   UNL     1      42.291  -9.398  11.411  1.00  0.00     0.004 A 
HETATM    9  C   UNL     1      41.648  -8.280  11.947  1.00  0.00     0.043 A 
HETATM   10  C   UNL     1      43.204 -10.099  12.228  1.00  0.00     0.014 A 
HETATM   11  C   UNL     1      41.868  -7.830  13.254  1.00  0.00     0.030 A 
HETATM   12  N   UNL     1      40.827  -7.773  10.967  1.00  0.00    -0.364 N 
HETATM   13  C   UNL     1      42.778  -8.541  14.040  1.00  0.00     0.002 A 
HETATM   14  C   UNL     1      43.438  -9.659  13.538  1.00  0.00     0.001 A 
HETATM   15  H   UNL     1      40.240  -6.958  11.073  1.00  0.00     0.165 HD
HETATM   16  C   UNL     1      40.935  -8.522   9.829  1.00  0.00     0.102 A 
ENDBRANCH   6   7
ENDBRANCH   2   5
BRANCH   1  17
HETATM   17  C   UNL     1      44.894 -13.874   7.312  1.00  0.00     0.280 C 
BRANCH  17  18
HETATM   18  O   UNL     1      44.302 -15.109   7.713  1.00  0.00    -0.342 OA
BRANCH  18  19
HETATM   19  C   UNL     1      44.097 -15.980   6.675  1.00  0.00     0.069 A 
HETATM   20  C   UNL     1      44.464 -17.328   6.699  1.00  0.00     0.044 A 
HETATM   21  C   UNL     1      44.206 -18.165   5.599  1.00  0.00    -0.053 A 
HETATM   22  C   UNL     1      43.582 -17.630   4.454  1.00  0.00    -0.056 A 
HETATM   23  C   UNL     1      44.629 -19.608   5.662  1.00  0.00     0.049 C 
HETATM   24  C   UNL     1      43.291 -18.478   3.246  1.00  0.00     0.049 C 
HETATM   25  C   UNL     1      43.189 -16.283   4.456  1.00  0.00     0.010 A 
HETATM   26  C   UNL     1      43.438 -15.467   5.562  1.00  0.00     0.037 A 
ENDBRANCH  18  19
ENDBRANCH  17  18
ENDBRANCH   1  17
TORSDOF 5
ENDMDL
MODEL 8
REMARK VINA RESULT:      -7.9      5.105      9.249
REMARK  5 active torsions:
REMARK  status: ('A' for Active; 'I' for Inactive)
REMARK    1  A    between atoms: C_6  and  O_7 
REMARK    2  A    between atoms: O_7  and  C_8 
REMARK    3  A    between atoms: C_8  and  C_9 
REMARK       I    between atoms: C_9  and  N_10 
REMARK    4  A    between atoms: N_10  and  N_11 
REMARK    5  A    between atoms: C_12  and  C_13 
ROOT
HETATM    1  C   UNL     1      41.788 -16.669   6.585  1.00  0.00     0.261 C 
HETATM    2  N   UNL     1      42.316 -15.460   6.157  1.00  0.00    -0.246 N 
HETATM    3  O   UNL     1      40.592 -16.960   6.596  1.00  0.00    -0.269 OA
HETATM    4  H   UNL     1      43.317 -15.301   6.225  1.00  0.00     0.192 HD
ENDROOT
BRANCH   2   5
HETATM    5  N   UNL     1      41.482 -14.480   5.705  1.00  0.00    -0.184 NA
HETATM    6  C   UNL     1      41.390 -14.348   4.423  1.00  0.00     0.152 C 
BRANCH   6   7
HETATM    7  C   UNL     1      40.512 -13.331   3.882  1.00  0.00     0.011 A 
HETATM    8  C   UNL     1      39.550 -13.468   2.827  1.00  0.00     0.004 A 
HETATM    9  C   UNL     1      38.932 -12.227   2.662  1.00  0.00     0.043 A 
HETATM   10  C   UNL     1      39.133 -14.536   2.004  1.00  0.00     0.014 A 
HETATM   11  C   UNL     1      37.925 -11.998   1.717  1.00  0.00     0.030 A 
HETATM   12  N   UNL     1      39.498 -11.365   3.572  1.00  0.00    -0.364 N 
HETATM   13  C   UNL     1      37.531 -13.073   0.916  1.00  0.00     0.002 A 
HETATM   14  C   UNL     1      38.124 -14.325   1.055  1.00  0.00     0.001 A 
HETATM   15  H   UNL     1      39.242 -10.394   3.682  1.00  0.00     0.165 HD
HETATM   16  C   UNL     1      40.442 -12.019   4.314  1.00  0.00     0.102 A 
ENDBRANCH   6   7
ENDBRANCH   2   5
BRANCH   1  17
HETATM   17  C   UNL     1      42.856 -17.693   6.954  1.00  0.00     0.280 C 
BRANCH  17  18
HETATM   18  O   UNL     1      44.009 -17.565   6.122  1.00  0.00    -0.342 OA
BRANCH  18  19
HETATM   19  C   UNL     1      44.159 -18.597   5.233  1.00  0.00     0.069 A 
HETATM   20  C   UNL     1      44.547 -19.890   5.592  1.00  0.00     0.044 A 
HETATM   21  C   UNL     1      44.664 -20.902   4.624  1.00  0.00    -0.053 A 
HETATM   22  C   UNL     1      44.401 -20.601   3.273  1.00  0.00    -0.056 A 
HETATM   23  C   UNL     1      45.096 -22.279   5.053  1.00  0.00     0.049 C 
HETATM   24  C   UNL     1      44.521 -21.644   2.194  1.00  0.00     0.049 C 
HETATM   25  C   UNL     1      43.981 -19.306   2.930  1.00  0.00     0.010 A 
HETATM   26  C   UNL     1      43.854 -18.315   3.905  1.00  0.00     0.037 A 
ENDBRANCH  18  19
ENDBRANCH  17  18
ENDBRANCH   1  17
TORSDOF 5
ENDMDL
MODEL 9
REMARK VINA RESULT:      -7.8      6.640     10.273
REMARK  5 active torsions:
REMARK  status: ('A' for Active; 'I' for Inactive)
REMARK    1  A    between atoms: C_6  and  O_7 
REMARK    2  A    between atoms: O_7  and  C_8 
REMARK    3  A    between atoms: C_8  and  C_9 
REMARK       I    between atoms: C_9  and  N_10 
REMARK    4  A    between atoms: N_10  and  N_11 
REMARK    5  A    between atoms: C_12  and  C_13 
ROOT
HETATM    1  C   UNL     1      41.452 -16.374   2.532  1.00  0.00     0.261 C 
HETATM    2  N   UNL     1      41.708 -15.427   1.552  1.00  0.00    -0.246 N 
HETATM    3  O   UNL     1      40.472 -17.118   2.567  1.00  0.00    -0.269 OA
HETATM    4  H   UNL     1      42.527 -14.833   1.634  1.00  0.00     0.192 HD
ENDROOT
BRANCH   2   5
HETATM    5  N   UNL     1      40.828 -15.265   0.523  1.00  0.00    -0.184 NA
HETATM    6  C   UNL     1      41.340 -15.096  -0.652  1.00  0.00     0.152 C 
BRANCH   6   7
HETATM    7  C   UNL     1      40.456 -14.929  -1.787  1.00  0.00     0.011 A 
HETATM    8  C   UNL     1      39.374 -14.001  -1.931  1.00  0.00     0.004 A 
HETATM    9  C   UNL     1      38.820 -14.198  -3.198  1.00  0.00     0.043 A 
HETATM   10  C   UNL     1      38.817 -12.997  -1.109  1.00  0.00     0.014 A 
HETATM   11  C   UNL     1      37.742 -13.448  -3.682  1.00  0.00     0.030 A 
HETATM   12  N   UNL     1      39.531 -15.209  -3.800  1.00  0.00    -0.364 N 
HETATM   13  C   UNL     1      37.212 -12.461  -2.848  1.00  0.00     0.002 A 
HETATM   14  C   UNL     1      37.740 -12.236  -1.580  1.00  0.00     0.001 A 
HETATM   15  H   UNL     1      39.353 -15.564  -4.730  1.00  0.00     0.165 HD
HETATM   16  C   UNL     1      40.519 -15.651  -2.966  1.00  0.00     0.102 A 
ENDBRANCH   6   7
ENDBRANCH   2   5
BRANCH   1  17
HETATM   17  C   UNL     1      42.582 -16.505   3.548  1.00  0.00     0.280 C 
BRANCH  17  18
HETATM   18  O   UNL     1      43.762 -17.042   2.948  1.00  0.00    -0.342 OA
BRANCH  18  19
HETATM   19  C   UNL     1      44.016 -18.340   3.307  1.00  0.00     0.069 A 
HETATM   20  C   UNL     1      44.015 -19.413   2.413  1.00  0.00     0.044 A 
HETATM   21  C   UNL     1      44.302 -20.718   2.853  1.00  0.00    -0.053 A 
HETATM   22  C   UNL     1      44.578 -20.943   4.216  1.00  0.00    -0.056 A 
HETATM   23  C   UNL     1      44.279 -21.847   1.859  1.00  0.00     0.049 C 
HETATM   24  C   UNL     1      44.881 -22.319   4.743  1.00  0.00     0.049 C 
HETATM   25  C   UNL     1      44.607 -19.850   5.097  1.00  0.00     0.010 A 
HETATM   26  C   UNL     1      44.336 -18.558   4.643  1.00  0.00     0.037 A 
ENDBRANCH  18  19
ENDBRANCH  17  18
ENDBRANCH   1  17
TORSDOF 5
ENDMDL
MODEL 10
REMARK VINA RESULT:      -7.8      6.253      9.497
REMARK  5 active torsions:
REMARK  status: ('A' for Active; 'I' for Inactive)
REMARK    1  A    between atoms: C_6  and  O_7 
REMARK    2  A    between atoms: O_7  and  C_8 
REMARK    3  A    between atoms: C_8  and  C_9 
REMARK       I    between atoms: C_9  and  N_10 
REMARK    4  A    between atoms: N_10  and  N_11 
REMARK    5  A    between atoms: C_12  and  C_13 
ROOT
HETATM    1  C   UNL     1      41.704 -15.068   0.352  1.00  0.00     0.261 C 
HETATM    2  N   UNL     1      42.080 -16.364   0.032  1.00  0.00    -0.246 N 
HETATM    3  O   UNL     1      42.038 -14.458   1.368  1.00  0.00    -0.269 OA
HETATM    4  H   UNL     1      41.718 -16.794  -0.814  1.00  0.00     0.192 HD
ENDROOT
BRANCH   2   5
HETATM    5  N   UNL     1      42.883 -17.064   0.883  1.00  0.00    -0.184 NA
HETATM    6  C   UNL     1      42.374 -18.128   1.412  1.00  0.00     0.152 C 
BRANCH   6   7
HETATM    7  C   UNL     1      43.181 -18.919   2.317  1.00  0.00     0.011 A 
HETATM    8  C   UNL     1      43.639 -18.564   3.628  1.00  0.00     0.004 A 
HETATM    9  C   UNL     1      44.371 -19.646   4.123  1.00  0.00     0.043 A 
HETATM   10  C   UNL     1      43.490 -17.427   4.452  1.00  0.00     0.014 A 
HETATM   11  C   UNL     1      44.961 -19.649   5.392  1.00  0.00     0.030 A 
HETATM   12  N   UNL     1      44.366 -20.619   3.151  1.00  0.00    -0.364 N 
HETATM   13  C   UNL     1      44.796 -18.511   6.186  1.00  0.00     0.002 A 
HETATM   14  C   UNL     1      44.072 -17.415   5.726  1.00  0.00     0.001 A 
HETATM   15  H   UNL     1      44.817 -21.519   3.235  1.00  0.00     0.165 HD
HETATM   16  C   UNL     1      43.649 -20.196   2.066  1.00  0.00     0.102 A 
ENDBRANCH   6   7
ENDBRANCH   2   5
BRANCH   1  17
HETATM   17  C   UNL     1      40.899 -14.388  -0.751  1.00  0.00     0.280 C 
BRANCH  17  18
HETATM   18  O   UNL     1      41.640 -14.320  -1.970  1.00  0.00    -0.342 OA
BRANCH  18  19
HETATM   19  C   UNL     1      41.901 -13.039  -2.381  1.00  0.00     0.069 A 
HETATM   20  C   UNL     1      42.675 -12.127  -1.661  1.00  0.00     0.044 A 
HETATM   21  C   UNL     1      42.912 -10.833  -2.157  1.00  0.00    -0.053 A 
HETATM   22  C   UNL     1      42.347 -10.450  -3.389  1.00  0.00    -0.056 A 
HETATM   23  C   UNL     1      43.742  -9.878  -1.342  1.00  0.00     0.049 C 
HETATM   24  C   UNL     1      42.561  -9.075  -3.962  1.00  0.00     0.049 C 
HETATM   25  C   UNL     1      41.599 -11.388  -4.119  1.00  0.00     0.010 A 
HETATM   26  C   UNL     1      41.385 -12.674  -3.620  1.00  0.00     0.037 A 
ENDBRANCH  18  19
ENDBRANCH  17  18
ENDBRANCH   1  17
TORSDOF 5
ENDMDL
