MODEL 1
REMARK VINA RESULT:      -8.3      0.000      0.000
REMARK  6 active torsions:
REMARK  status: ('A' for Active; 'I' for Inactive)
REMARK    1  A    between atoms: C_2  and  C_3 
REMARK    2  A    between atoms: C_3  and  N_4 
REMARK       I    between atoms: N_4  and  C_5 
REMARK    3  A    between atoms: C_5  and  C_6 
REMARK    4  A    between atoms: C_11  and  C_12 
REMARK    5  A    between atoms: C_15  and  O_16 
REMARK    6  A    between atoms: C_21  and  C_22 
ROOT
HETATM    1  C   UNL     1      40.626 -15.199   0.257  1.00  0.00     0.170 A 
HETATM    2  N   UNL     1      41.467 -16.246   0.457  1.00  0.00    -0.163 NA
HETATM    3  N   UNL     1      41.454 -16.414   1.790  1.00  0.00    -0.238 N 
HETATM    4  C   UNL     1      40.590 -15.586   2.449  1.00  0.00     0.145 A 
HETATM    5  N   UNL     1      40.406 -15.680   3.789  1.00  0.00    -0.365 N 
HETATM    6  C   UNL     1      41.219 -16.548   4.632  1.00  0.00     0.118 C 
HETATM    7  C   UNL     1      41.695 -17.771   3.826  1.00  0.00     0.066 C 
HETATM    8  C   UNL     1      42.260 -17.434   2.434  1.00  0.00     0.221 C 
HETATM    9  C   UNL     1      40.053 -14.765   1.485  1.00  0.00     0.115 A 
HETATM   10 CL   UNL     1      38.936 -13.512   1.732  1.00  0.00    -0.077 Cl
HETATM   11  H   UNL     1      39.854 -14.977   4.282  1.00  0.00     0.162 HD
ENDROOT
BRANCH   6  12
HETATM   12  C   UNL     1      42.308 -15.802   5.384  1.00  0.00    -0.035 A 
HETATM   13  C   UNL     1      42.502 -14.417   5.275  1.00  0.00     0.012 A 
HETATM   14  C   UNL     1      43.498 -13.770   6.013  1.00  0.00     0.037 A 
HETATM   15  C   UNL     1      44.318 -14.484   6.887  1.00  0.00     0.068 A 
HETATM   16  C   UNL     1      44.139 -15.859   7.008  1.00  0.00     0.037 A 
HETATM   17  C   UNL     1      43.143 -16.509   6.267  1.00  0.00     0.012 A 
BRANCH  15  18
HETATM   18  O   UNL     1      45.241 -13.727   7.553  1.00  0.00    -0.356 OA
HETATM   19  C   UNL     1      44.741 -12.775   8.482  1.00  0.00     0.210 C 
ENDBRANCH  15  18
ENDBRANCH   6  12
BRANCH   8  20
HETATM   20  C   UNL     1      43.715 -17.020   2.442  1.00  0.00     0.409 C 
HETATM   21  F   UNL     1      43.904 -15.695   2.574  1.00  0.00    -0.169 F 
HETATM   22  F   UNL     1      44.366 -17.625   3.470  1.00  0.00    -0.169 F 
HETATM   23  F   UNL     1      44.352 -17.410   1.313  1.00  0.00    -0.169 F 
ENDBRANCH   8  20
BRANCH   1  24
HETATM   24  C   UNL     1      40.408 -14.656  -1.093  1.00  0.00     0.273 C 
HETATM   25  N   UNL     1      40.281 -15.642  -2.052  1.00  0.00    -0.356 N 
HETATM   26  H   UNL     1      40.419 -16.592  -1.720  1.00  0.00     0.162 HD
HETATM   27  O   UNL     1      40.361 -13.458  -1.350  1.00  0.00    -0.266 OA
BRANCH  25  28
HETATM   28  C   UNL     1      40.210 -15.360  -3.466  1.00  0.00     0.122 C 
BRANCH  28  29
HETATM   29  C   UNL     1      38.970 -15.967  -4.119  1.00  0.00     0.015 C 
HETATM   30  C   UNL     1      37.681 -15.296  -3.666  1.00  0.00     0.006 C 
ENDBRANCH  28  29
ENDBRANCH  25  28
ENDBRANCH   1  24
TORSDOF 6
ENDMDL
MODEL 2
REMARK VINA RESULT:      -8.0      1.227      1.950
REMARK  6 active torsions:
REMARK  status: ('A' for Active; 'I' for Inactive)
REMARK    1  A    between atoms: C_2  and  C_3 
REMARK    2  A    between atoms: C_3  and  N_4 
REMARK       I    between atoms: N_4  and  C_5 
REMARK    3  A    between atoms: C_5  and  C_6 
REMARK    4  A    between atoms: C_11  and  C_12 
REMARK    5  A    between atoms: C_15  and  O_16 
REMARK    6  A    between atoms: C_21  and  C_22 
ROOT
HETATM    1  C   UNL     1      40.678 -15.147   0.412  1.00  0.00     0.170 A 
HETATM    2  N   UNL     1      41.520 -16.194   0.613  1.00  0.00    -0.163 NA
HETATM    3  N   UNL     1      41.469 -16.392   1.941  1.00  0.00    -0.238 N 
HETATM    4  C   UNL     1      40.582 -15.583   2.593  1.00  0.00     0.145 A 
HETATM    5  N   UNL     1      40.360 -15.708   3.925  1.00  0.00    -0.365 N 
HETATM    6  C   UNL     1      41.153 -16.591   4.772  1.00  0.00     0.118 C 
HETATM    7  C   UNL     1      41.660 -17.793   3.952  1.00  0.00     0.066 C 
HETATM    8  C   UNL     1      42.262 -17.421   2.584  1.00  0.00     0.221 C 
HETATM    9  C   UNL     1      40.067 -14.744   1.632  1.00  0.00     0.115 A 
HETATM   10 CL   UNL     1      38.936 -13.502   1.875  1.00  0.00    -0.077 Cl
HETATM   11  H   UNL     1      39.790 -15.019   4.417  1.00  0.00     0.162 HD
ENDROOT
BRANCH   6  12
HETATM   12  C   UNL     1      42.216 -15.856   5.570  1.00  0.00    -0.035 A 
HETATM   13  C   UNL     1      43.089 -16.501   6.459  1.00  0.00     0.012 A 
HETATM   14  C   UNL     1      44.073 -15.785   7.147  1.00  0.00     0.037 A 
HETATM   15  C   UNL     1      44.222 -14.411   6.958  1.00  0.00     0.068 A 
HETATM   16  C   UNL     1      43.364 -13.755   6.079  1.00  0.00     0.037 A 
HETATM   17  C   UNL     1      42.376 -14.470   5.391  1.00  0.00     0.012 A 
BRANCH  15  18
HETATM   18  O   UNL     1      45.229 -13.839   7.683  1.00  0.00    -0.356 OA
HETATM   19  C   UNL     1      44.886 -12.715   8.483  1.00  0.00     0.210 C 
ENDBRANCH  15  18
ENDBRANCH   6  12
BRANCH   8  20
HETATM   20  C   UNL     1      43.713 -17.001   2.644  1.00  0.00     0.409 C 
HETATM   21  F   UNL     1      43.892 -15.673   2.770  1.00  0.00    -0.169 F 
HETATM   22  F   UNL     1      44.328 -17.592   3.702  1.00  0.00    -0.169 F 
HETATM   23  F   UNL     1      44.395 -17.398   1.544  1.00  0.00    -0.169 F 
ENDBRANCH   8  20
BRANCH   1  24
HETATM   24  C   UNL     1      40.495 -14.575  -0.931  1.00  0.00     0.273 C 
HETATM   25  N   UNL     1      41.690 -14.366  -1.591  1.00  0.00    -0.356 N 
HETATM   26  H   UNL     1      42.527 -14.567  -1.050  1.00  0.00     0.162 HD
HETATM   27  O   UNL     1      39.404 -14.294  -1.413  1.00  0.00    -0.266 OA
BRANCH  25  28
HETATM   28  C   UNL     1      41.781 -13.680  -2.857  1.00  0.00     0.122 C 
BRANCH  28  29
HETATM   29  C   UNL     1      42.835 -12.576  -2.848  1.00  0.00     0.015 C 
HETATM   30  C   UNL     1      42.852 -11.793  -1.543  1.00  0.00     0.006 C 
ENDBRANCH  28  29
ENDBRANCH  25  28
ENDBRANCH   1  24
TORSDOF 6
ENDMDL
MODEL 3
REMARK VINA RESULT:      -7.3      3.326      4.872
REMARK  6 active torsions:
REMARK  status: ('A' for Active; 'I' for Inactive)
REMARK    1  A    between atoms: C_2  and  C_3 
REMARK    2  A    between atoms: C_3  and  N_4 
REMARK       I    between atoms: N_4  and  C_5 
REMARK    3  A    between atoms: C_5  and  C_6 
REMARK    4  A    between atoms: C_11  and  C_12 
REMARK    5  A    between atoms: C_15  and  O_16 
REMARK    6  A    between atoms: C_21  and  C_22 
ROOT
HETATM    1  C   UNL     1      40.177 -14.112   3.110  1.00  0.00     0.170 A 
HETATM    2  N   UNL     1      40.125 -14.574   4.386  1.00  0.00    -0.163 NA
HETATM    3  N   UNL     1      41.344 -15.108   4.580  1.00  0.00    -0.238 N 
HETATM    4  C   UNL     1      42.200 -14.942   3.529  1.00  0.00     0.145 A 
HETATM    5  N   UNL     1      43.488 -15.360   3.596  1.00  0.00    -0.365 N 
HETATM    6  C   UNL     1      44.001 -16.143   4.714  1.00  0.00     0.118 C 
HETATM    7  C   UNL     1      43.229 -15.794   6.000  1.00  0.00     0.066 C 
HETATM    8  C   UNL     1      41.699 -15.748   5.831  1.00  0.00     0.221 C 
HETATM    9  C   UNL     1      41.467 -14.320   2.546  1.00  0.00     0.115 A 
HETATM   10 CL   UNL     1      42.011 -13.892   0.996  1.00  0.00    -0.077 Cl
HETATM   11  H   UNL     1      44.078 -15.341   2.763  1.00  0.00     0.162 HD
ENDROOT
BRANCH   6  12
HETATM   12  C   UNL     1      44.108 -17.627   4.404  1.00  0.00    -0.035 A 
HETATM   13  C   UNL     1      43.775 -18.174   3.155  1.00  0.00     0.012 A 
HETATM   14  C   UNL     1      43.922 -19.542   2.908  1.00  0.00     0.037 A 
HETATM   15  C   UNL     1      44.417 -20.398   3.893  1.00  0.00     0.068 A 
HETATM   16  C   UNL     1      44.753 -19.871   5.137  1.00  0.00     0.037 A 
HETATM   17  C   UNL     1      44.603 -18.501   5.388  1.00  0.00     0.012 A 
BRANCH  15  18
HETATM   18  O   UNL     1      44.520 -21.706   3.514  1.00  0.00    -0.356 OA
HETATM   19  C   UNL     1      44.245 -22.006   2.153  1.00  0.00     0.210 C 
ENDBRANCH  15  18
ENDBRANCH   6  12
BRANCH   8  20
HETATM   20  C   UNL     1      41.027 -17.099   5.935  1.00  0.00     0.409 C 
HETATM   21  F   UNL     1      40.840 -17.708   4.751  1.00  0.00    -0.169 F 
HETATM   22  F   UNL     1      41.774 -17.934   6.705  1.00  0.00    -0.169 F 
HETATM   23  F   UNL     1      39.819 -17.012   6.540  1.00  0.00    -0.169 F 
ENDBRANCH   8  20
BRANCH   1  24
HETATM   24  C   UNL     1      38.997 -13.495   2.484  1.00  0.00     0.273 C 
HETATM   25  N   UNL     1      38.432 -14.291   1.508  1.00  0.00    -0.356 N 
HETATM   26  H   UNL     1      38.933 -15.152   1.304  1.00  0.00     0.162 HD
HETATM   27  O   UNL     1      38.566 -12.386   2.780  1.00  0.00    -0.266 OA
BRANCH  25  28
HETATM   28  C   UNL     1      37.359 -13.845   0.651  1.00  0.00     0.122 C 
BRANCH  28  29
HETATM   29  C   UNL     1      37.870 -13.154  -0.611  1.00  0.00     0.015 C 
HETATM   30  C   UNL     1      39.066 -13.867  -1.226  1.00  0.00     0.006 C 
ENDBRANCH  28  29
ENDBRANCH  25  28
ENDBRANCH   1  24
TORSDOF 6
ENDMDL
MODEL 4
REMARK VINA RESULT:      -7.2      3.977      6.073
REMARK  6 active torsions:
REMARK  status: ('A' for Active; 'I' for Inactive)
REMARK    1  A    between atoms: C_2  and  C_3 
REMARK    2  A    between atoms: C_3  and  N_4 
REMARK       I    between atoms: N_4  and  C_5 
REMARK    3  A    between atoms: C_5  and  C_6 
REMARK    4  A    between atoms: C_11  and  C_12 
REMARK    5  A    between atoms: C_15  and  O_16 
REMARK    6  A    between atoms: C_21  and  C_22 
ROOT
HETATM    1  C   UNL     1      42.865 -17.458   3.328  1.00  0.00     0.170 A 
HETATM    2  N   UNL     1      43.102 -16.839   4.514  1.00  0.00    -0.163 NA
HETATM    3  N   UNL     1      42.082 -15.970   4.627  1.00  0.00    -0.238 N 
HETATM    4  C   UNL     1      41.163 -16.053   3.620  1.00  0.00     0.145 A 
HETATM    5  N   UNL     1      40.039 -15.294   3.627  1.00  0.00    -0.365 N 
HETATM    6  C   UNL     1      39.812 -14.240   4.608  1.00  0.00     0.118 C 
HETATM    7  C   UNL     1      40.523 -14.588   5.930  1.00  0.00     0.066 C 
HETATM    8  C   UNL     1      41.974 -15.074   5.762  1.00  0.00     0.221 C 
HETATM    9  C   UNL     1      41.653 -16.994   2.745  1.00  0.00     0.115 A 
HETATM   10 CL   UNL     1      40.939 -17.487   1.286  1.00  0.00    -0.077 Cl
HETATM   11  H   UNL     1      39.426 -15.277   2.811  1.00  0.00     0.162 HD
ENDROOT
BRANCH   6  12
HETATM   12  C   UNL     1      40.092 -12.849   4.066  1.00  0.00    -0.035 A 
HETATM   13  C   UNL     1      40.599 -12.617   2.779  1.00  0.00     0.012 A 
HETATM   14  C   UNL     1      40.810 -11.315   2.313  1.00  0.00     0.037 A 
HETATM   15  C   UNL     1      40.509 -10.212   3.112  1.00  0.00     0.068 A 
HETATM   16  C   UNL     1      40.004 -10.425   4.392  1.00  0.00     0.037 A 
HETATM   17  C   UNL     1      39.795 -11.728   4.862  1.00  0.00     0.012 A 
BRANCH  15  18
HETATM   18  O   UNL     1      40.752  -9.001   2.530  1.00  0.00    -0.356 OA
HETATM   19  C   UNL     1      40.973  -8.994   1.126  1.00  0.00     0.210 C 
ENDBRANCH  15  18
ENDBRANCH   6  12
BRANCH   8  20
HETATM   20  C   UNL     1      42.988 -13.959   5.645  1.00  0.00     0.409 C 
HETATM   21  F   UNL     1      43.264 -13.603   4.378  1.00  0.00    -0.169 F 
HETATM   22  F   UNL     1      42.538 -12.849   6.287  1.00  0.00    -0.169 F 
HETATM   23  F   UNL     1      44.161 -14.285   6.238  1.00  0.00    -0.169 F 
ENDBRANCH   8  20
BRANCH   1  24
HETATM   24  C   UNL     1      43.804 -18.461   2.802  1.00  0.00     0.273 C 
HETATM   25  N   UNL     1      43.992 -19.523   3.665  1.00  0.00    -0.356 N 
HETATM   26  H   UNL     1      43.519 -19.444   4.561  1.00  0.00     0.162 HD
HETATM   27  O   UNL     1      44.377 -18.363   1.723  1.00  0.00    -0.266 OA
BRANCH  25  28
HETATM   28  C   UNL     1      44.975 -20.555   3.441  1.00  0.00     0.122 C 
BRANCH  28  29
HETATM   29  C   UNL     1      44.345 -21.874   2.998  1.00  0.00     0.015 C 
HETATM   30  C   UNL     1      44.049 -21.910   1.506  1.00  0.00     0.006 C 
ENDBRANCH  28  29
ENDBRANCH  25  28
ENDBRANCH   1  24
TORSDOF 6
ENDMDL
MODEL 5
REMARK VINA RESULT:      -7.0      4.242      8.111
REMARK  6 active torsions:
REMARK  status: ('A' for Active; 'I' for Inactive)
REMARK    1  A    between atoms: C_2  and  C_3 
REMARK    2  A    between atoms: C_3  and  N_4 
REMARK       I    between atoms: N_4  and  C_5 
REMARK    3  A    between atoms: C_5  and  C_6 
REMARK    4  A    between atoms: C_11  and  C_12 
REMARK    5  A    between atoms: C_15  and  O_16 
REMARK    6  A    between atoms: C_21  and  C_22 
ROOT
HETATM    1  C   UNL     1      43.997 -14.175   7.075  1.00  0.00     0.170 A 
HETATM    2  N   UNL     1      43.552 -13.712   5.878  1.00  0.00    -0.163 NA
HETATM    3  N   UNL     1      42.813 -14.728   5.399  1.00  0.00    -0.238 N 
HETATM    4  C   UNL     1      42.694 -15.785   6.256  1.00  0.00     0.145 A 
HETATM    5  N   UNL     1      41.923 -16.857   5.951  1.00  0.00    -0.365 N 
HETATM    6  C   UNL     1      41.302 -17.029   4.643  1.00  0.00     0.118 C 
HETATM    7  C   UNL     1      41.005 -15.654   4.016  1.00  0.00     0.066 C 
HETATM    8  C   UNL     1      42.170 -14.650   4.102  1.00  0.00     0.221 C 
HETATM    9  C   UNL     1      43.471 -15.470   7.346  1.00  0.00     0.115 A 
HETATM   10 CL   UNL     1      43.727 -16.435   8.719  1.00  0.00    -0.077 Cl
HETATM   11  H   UNL     1      41.941 -17.688   6.543  1.00  0.00     0.162 HD
ENDROOT
BRANCH   6  12
HETATM   12  C   UNL     1      42.053 -18.002   3.749  1.00  0.00    -0.035 A 
HETATM   13  C   UNL     1      41.798 -18.134   2.376  1.00  0.00     0.012 A 
HETATM   14  C   UNL     1      42.539 -19.020   1.589  1.00  0.00     0.037 A 
HETATM   15  C   UNL     1      43.561 -19.788   2.146  1.00  0.00     0.068 A 
HETATM   16  C   UNL     1      43.830 -19.668   3.507  1.00  0.00     0.037 A 
HETATM   17  C   UNL     1      43.086 -18.783   4.298  1.00  0.00     0.012 A 
BRANCH  15  18
HETATM   18  O   UNL     1      44.212 -20.602   1.263  1.00  0.00    -0.356 OA
HETATM   19  C   UNL     1      44.203 -21.995   1.547  1.00  0.00     0.210 C 
ENDBRANCH  15  18
ENDBRANCH   6  12
BRANCH   8  20
HETATM   20  C   UNL     1      43.195 -14.800   3.001  1.00  0.00     0.409 C 
HETATM   21  F   UNL     1      44.040 -15.831   3.179  1.00  0.00    -0.169 F 
HETATM   22  F   UNL     1      42.575 -14.990   1.807  1.00  0.00    -0.169 F 
HETATM   23  F   UNL     1      43.945 -13.682   2.860  1.00  0.00    -0.169 F 
ENDBRANCH   8  20
BRANCH   1  24
HETATM   24  C   UNL     1      44.904 -13.367   7.905  1.00  0.00     0.273 C 
HETATM   25  N   UNL     1      44.331 -12.977   9.099  1.00  0.00    -0.356 N 
HETATM   26  H   UNL     1      43.356 -13.236   9.219  1.00  0.00     0.162 HD
HETATM   27  O   UNL     1      46.041 -13.053   7.570  1.00  0.00    -0.266 OA
BRANCH  25  28
HETATM   28  C   UNL     1      44.966 -12.057  10.013  1.00  0.00     0.122 C 
BRANCH  28  29
HETATM   29  C   UNL     1      44.199 -10.744  10.145  1.00  0.00     0.015 C 
HETATM   30  C   UNL     1      44.007 -10.321  11.594  1.00  0.00     0.006 C 
ENDBRANCH  28  29
ENDBRANCH  25  28
ENDBRANCH   1  24
TORSDOF 6
ENDMDL
MODEL 6
REMARK VINA RESULT:      -6.8      2.578      3.214
REMARK  6 active torsions:
REMARK  status: ('A' for Active; 'I' for Inactive)
REMARK    1  A    between atoms: C_2  and  C_3 
REMARK    2  A    between atoms: C_3  and  N_4 
REMARK       I    between atoms: N_4  and  C_5 
REMARK    3  A    between atoms: C_5  and  C_6 
REMARK    4  A    between atoms: C_11  and  C_12 
REMARK    5  A    between atoms: C_15  and  O_16 
REMARK    6  A    between atoms: C_21  and  C_22 
ROOT
HETATM    1  C   UNL     1      41.924 -13.425   0.097  1.00  0.00     0.170 A 
HETATM    2  N   UNL     1      41.982 -14.750  -0.197  1.00  0.00    -0.163 NA
HETATM    3  N   UNL     1      41.537 -15.343   0.924  1.00  0.00    -0.238 N 
HETATM    4  C   UNL     1      41.121 -14.472   1.890  1.00  0.00     0.145 A 
HETATM    5  N   UNL     1      40.578 -14.914   3.051  1.00  0.00    -0.365 N 
HETATM    6  C   UNL     1      40.543 -16.326   3.413  1.00  0.00     0.118 C 
HETATM    7  C   UNL     1      40.474 -17.194   2.143  1.00  0.00     0.066 C 
HETATM    8  C   UNL     1      41.467 -16.787   1.039  1.00  0.00     0.221 C 
HETATM    9  C   UNL     1      41.382 -13.216   1.396  1.00  0.00     0.115 A 
HETATM   10 CL   UNL     1      41.099 -11.740   2.185  1.00  0.00    -0.077 Cl
HETATM   11  H   UNL     1      40.387 -14.259   3.811  1.00  0.00     0.162 HD
ENDROOT
BRANCH   6  12
HETATM   12  C   UNL     1      41.625 -16.714   4.406  1.00  0.00    -0.035 A 
HETATM   13  C   UNL     1      41.817 -18.030   4.855  1.00  0.00     0.012 A 
HETATM   14  C   UNL     1      42.848 -18.342   5.745  1.00  0.00     0.037 A 
HETATM   15  C   UNL     1      43.724 -17.357   6.201  1.00  0.00     0.068 A 
HETATM   16  C   UNL     1      43.549 -16.046   5.764  1.00  0.00     0.037 A 
HETATM   17  C   UNL     1      42.514 -15.730   4.875  1.00  0.00     0.012 A 
BRANCH  15  18
HETATM   18  O   UNL     1      44.692 -17.801   7.056  1.00  0.00    -0.356 OA
HETATM   19  C   UNL     1      44.256 -18.524   8.200  1.00  0.00     0.210 C 
ENDBRANCH  15  18
ENDBRANCH   6  12
BRANCH   8  20
HETATM   20  C   UNL     1      42.854 -17.364   1.215  1.00  0.00     0.409 C 
HETATM   21  F   UNL     1      43.690 -16.573   1.911  1.00  0.00    -0.169 F 
HETATM   22  F   UNL     1      42.786 -18.553   1.870  1.00  0.00    -0.169 F 
HETATM   23  F   UNL     1      43.442 -17.625   0.024  1.00  0.00    -0.169 F 
ENDBRANCH   8  20
BRANCH   1  24
HETATM   24  C   UNL     1      42.390 -12.418  -0.870  1.00  0.00     0.273 C 
HETATM   25  N   UNL     1      42.005 -12.701  -2.164  1.00  0.00    -0.356 N 
HETATM   26  H   UNL     1      41.516 -13.584  -2.290  1.00  0.00     0.162 HD
HETATM   27  O   UNL     1      43.065 -11.440  -0.568  1.00  0.00    -0.266 OA
BRANCH  25  28
HETATM   28  C   UNL     1      42.464 -11.946  -3.306  1.00  0.00     0.122 C 
BRANCH  28  29
HETATM   29  C   UNL     1      41.595 -10.721  -3.582  1.00  0.00     0.015 C 
HETATM   30  C   UNL     1      42.393  -9.426  -3.586  1.00  0.00     0.006 C 
ENDBRANCH  28  29
ENDBRANCH  25  28
ENDBRANCH   1  24
TORSDOF 6
ENDMDL
MODEL 7
REMARK VINA RESULT:      -6.8      3.628      6.746
REMARK  6 active torsions:
REMARK  status: ('A' for Active; 'I' for Inactive)
REMARK    1  A    between atoms: C_2  and  C_3 
REMARK    2  A    between atoms: C_3  and  N_4 
REMARK       I    between atoms: N_4  and  C_5 
REMARK    3  A    between atoms: C_5  and  C_6 
REMARK    4  A    between atoms: C_11  and  C_12 
REMARK    5  A    between atoms: C_15  and  O_16 
REMARK    6  A    between atoms: C_21  and  C_22 
ROOT
HETATM    1  C   UNL     1      42.542 -17.538   3.182  1.00  0.00     0.170 A 
HETATM    2  N   UNL     1      41.492 -16.952   3.812  1.00  0.00    -0.163 NA
HETATM    3  N   UNL     1      40.918 -16.209   2.850  1.00  0.00    -0.238 N 
HETATM    4  C   UNL     1      41.494 -16.349   1.618  1.00  0.00     0.145 A 
HETATM    5  N   UNL     1      40.987 -15.723   0.528  1.00  0.00    -0.365 N 
HETATM    6  C   UNL     1      39.907 -14.748   0.615  1.00  0.00     0.118 C 
HETATM    7  C   UNL     1      38.999 -15.073   1.817  1.00  0.00     0.066 C 
HETATM    8  C   UNL     1      39.757 -15.385   3.120  1.00  0.00     0.221 C 
HETATM    9  C   UNL     1      42.568 -17.188   1.803  1.00  0.00     0.115 A 
HETATM   10 CL   UNL     1      43.673 -17.691   0.617  1.00  0.00    -0.077 Cl
HETATM   11  H   UNL     1      41.497 -15.738  -0.356  1.00  0.00     0.162 HD
ENDROOT
BRANCH   6  12
HETATM   12  C   UNL     1      40.393 -13.310   0.539  1.00  0.00    -0.035 A 
HETATM   13  C   UNL     1      41.751 -12.964   0.475  1.00  0.00     0.012 A 
HETATM   14  C   UNL     1      42.147 -11.627   0.373  1.00  0.00     0.037 A 
HETATM   15  C   UNL     1      41.202 -10.603   0.318  1.00  0.00     0.068 A 
HETATM   16  C   UNL     1      39.849 -10.929   0.379  1.00  0.00     0.037 A 
HETATM   17  C   UNL     1      39.450 -12.268   0.485  1.00  0.00     0.012 A 
BRANCH  15  18
HETATM   18  O   UNL     1      41.725  -9.346   0.207  1.00  0.00    -0.356 OA
HETATM   19  C   UNL     1      42.917  -9.211  -0.555  1.00  0.00     0.210 C 
ENDBRANCH  15  18
ENDBRANCH   6  12
BRANCH   8  20
HETATM   20  C   UNL     1      40.160 -14.158   3.907  1.00  0.00     0.409 C 
HETATM   21  F   UNL     1      41.406 -13.726   3.643  1.00  0.00    -0.169 F 
HETATM   22  F   UNL     1      39.312 -13.130   3.638  1.00  0.00    -0.169 F 
HETATM   23  F   UNL     1      40.080 -14.370   5.242  1.00  0.00    -0.169 F 
ENDBRANCH   8  20
BRANCH   1  24
HETATM   24  C   UNL     1      43.475 -18.404   3.920  1.00  0.00     0.273 C 
HETATM   25  N   UNL     1      43.758 -19.579   3.253  1.00  0.00    -0.356 N 
HETATM   26  H   UNL     1      43.244 -19.722   2.387  1.00  0.00     0.162 HD
HETATM   27  O   UNL     1      43.942 -18.127   5.020  1.00  0.00    -0.266 OA
BRANCH  25  28
HETATM   28  C   UNL     1      44.526 -20.651   3.838  1.00  0.00     0.122 C 
BRANCH  28  29
HETATM   29  C   UNL     1      44.469 -21.931   3.006  1.00  0.00     0.015 C 
HETATM   30  C   UNL     1      43.849 -21.710   1.633  1.00  0.00     0.006 C 
ENDBRANCH  28  29
ENDBRANCH  25  28
ENDBRANCH   1  24
TORSDOF 6
ENDMDL
MODEL 8
REMARK VINA RESULT:      -6.6      3.089      8.480
REMARK  6 active torsions:
REMARK  status: ('A' for Active; 'I' for Inactive)
REMARK    1  A    between atoms: C_2  and  C_3 
REMARK    2  A    between atoms: C_3  and  N_4 
REMARK       I    between atoms: N_4  and  C_5 
REMARK    3  A    between atoms: C_5  and  C_6 
REMARK    4  A    between atoms: C_11  and  C_12 
REMARK    5  A    between atoms: C_15  and  O_16 
REMARK    6  A    between atoms: C_21  and  C_22 
ROOT
HETATM    1  C   UNL     1      43.488 -13.766   6.411  1.00  0.00     0.170 A 
HETATM    2  N   UNL     1      42.575 -12.800   6.131  1.00  0.00    -0.163 NA
HETATM    3  N   UNL     1      41.702 -13.415   5.314  1.00  0.00    -0.238 N 
HETATM    4  C   UNL     1      41.959 -14.742   5.119  1.00  0.00     0.145 A 
HETATM    5  N   UNL     1      41.131 -15.519   4.379  1.00  0.00    -0.365 N 
HETATM    6  C   UNL     1      40.012 -14.973   3.622  1.00  0.00     0.118 C 
HETATM    7  C   UNL     1      39.476 -13.705   4.314  1.00  0.00     0.066 C 
HETATM    8  C   UNL     1      40.567 -12.710   4.751  1.00  0.00     0.221 C 
HETATM    9  C   UNL     1      43.128 -14.998   5.798  1.00  0.00     0.115 A 
HETATM   10 CL   UNL     1      43.945 -16.484   5.879  1.00  0.00    -0.077 Cl
HETATM   11  H   UNL     1      41.400 -16.475   4.141  1.00  0.00     0.162 HD
ENDROOT
BRANCH   6  12
HETATM   12  C   UNL     1      40.309 -14.826   2.139  1.00  0.00    -0.035 A 
HETATM   13  C   UNL     1      41.503 -15.268   1.550  1.00  0.00     0.012 A 
HETATM   14  C   UNL     1      41.716 -15.140   0.174  1.00  0.00     0.037 A 
HETATM   15  C   UNL     1      40.741 -14.583  -0.652  1.00  0.00     0.068 A 
HETATM   16  C   UNL     1      39.549 -14.140  -0.084  1.00  0.00     0.037 A 
HETATM   17  C   UNL     1      39.335 -14.264   1.294  1.00  0.00     0.012 A 
BRANCH  15  18
HETATM   18  O   UNL     1      41.075 -14.529  -1.976  1.00  0.00    -0.356 OA
HETATM   19  C   UNL     1      40.874 -15.712  -2.737  1.00  0.00     0.210 C 
ENDBRANCH  15  18
ENDBRANCH   6  12
BRANCH   8  20
HETATM   20  C   UNL     1      41.024 -11.775   3.654  1.00  0.00     0.409 C 
HETATM   21  F   UNL     1      40.072 -11.493   2.747  1.00  0.00    -0.169 F 
HETATM   22  F   UNL     1      41.436 -10.595   4.187  1.00  0.00    -0.169 F 
HETATM   23  F   UNL     1      42.088 -12.275   2.982  1.00  0.00    -0.169 F 
ENDBRANCH   8  20
BRANCH   1  24
HETATM   24  C   UNL     1      44.662 -13.472   7.247  1.00  0.00     0.273 C 
HETATM   25  N   UNL     1      44.328 -12.901   8.458  1.00  0.00    -0.356 N 
HETATM   26  H   UNL     1      43.340 -12.700   8.586  1.00  0.00     0.162 HD
HETATM   27  O   UNL     1      45.819 -13.690   6.903  1.00  0.00    -0.266 OA
BRANCH  25  28
HETATM   28  C   UNL     1      45.309 -12.388   9.384  1.00  0.00     0.122 C 
BRANCH  28  29
HETATM   29  C   UNL     1      44.728 -12.150  10.777  1.00  0.00     0.015 C 
HETATM   30  C   UNL     1      44.414 -10.684  11.037  1.00  0.00     0.006 C 
ENDBRANCH  28  29
ENDBRANCH  25  28
ENDBRANCH   1  24
TORSDOF 6
ENDMDL
MODEL 9
REMARK VINA RESULT:      -6.6      4.216      5.731
REMARK  6 active torsions:
REMARK  status: ('A' for Active; 'I' for Inactive)
REMARK    1  A    between atoms: C_2  and  C_3 
REMARK    2  A    between atoms: C_3  and  N_4 
REMARK       I    between atoms: N_4  and  C_5 
REMARK    3  A    between atoms: C_5  and  C_6 
REMARK    4  A    between atoms: C_11  and  C_12 
REMARK    5  A    between atoms: C_15  and  O_16 
REMARK    6  A    between atoms: C_21  and  C_22 
ROOT
HETATM    1  C   UNL     1      40.238 -13.127   4.432  1.00  0.00     0.170 A 
HETATM    2  N   UNL     1      40.299 -13.979   5.488  1.00  0.00    -0.163 NA
HETATM    3  N   UNL     1      41.438 -14.662   5.279  1.00  0.00    -0.238 N 
HETATM    4  C   UNL     1      42.152 -14.240   4.193  1.00  0.00     0.145 A 
HETATM    5  N   UNL     1      43.358 -14.778   3.890  1.00  0.00    -0.365 N 
HETATM    6  C   UNL     1      43.901 -15.934   4.595  1.00  0.00     0.118 C 
HETATM    7  C   UNL     1      43.381 -15.958   6.045  1.00  0.00     0.066 C 
HETATM    8  C   UNL     1      41.867 -15.712   6.182  1.00  0.00     0.221 C 
HETATM    9  C   UNL     1      41.388 -13.259   3.605  1.00  0.00     0.115 A 
HETATM   10 CL   UNL     1      41.765 -12.396   2.192  1.00  0.00    -0.077 Cl
HETATM   11  H   UNL     1      43.820 -14.541   3.011  1.00  0.00     0.162 HD
ENDROOT
BRANCH   6  12
HETATM   12  C   UNL     1      43.738 -17.233   3.825  1.00  0.00    -0.035 A 
HETATM   13  C   UNL     1      43.287 -17.285   2.497  1.00  0.00     0.012 A 
HETATM   14  C   UNL     1      43.185 -18.504   1.820  1.00  0.00     0.037 A 
HETATM   15  C   UNL     1      43.542 -19.700   2.442  1.00  0.00     0.068 A 
HETATM   16  C   UNL     1      43.993 -19.667   3.759  1.00  0.00     0.037 A 
HETATM   17  C   UNL     1      44.093 -18.447   4.441  1.00  0.00     0.012 A 
BRANCH  15  18
HETATM   18  O   UNL     1      43.405 -20.814   1.663  1.00  0.00    -0.356 OA
HETATM   19  C   UNL     1      44.325 -21.874   1.889  1.00  0.00     0.210 C 
ENDBRANCH  15  18
ENDBRANCH   6  12
BRANCH   8  20
HETATM   20  C   UNL     1      41.021 -16.950   5.982  1.00  0.00     0.409 C 
HETATM   21  F   UNL     1      40.638 -17.149   4.708  1.00  0.00    -0.169 F 
HETATM   22  F   UNL     1      41.709 -18.055   6.373  1.00  0.00    -0.169 F 
HETATM   23  F   UNL     1      39.901 -16.918   6.741  1.00  0.00    -0.169 F 
ENDBRANCH   8  20
BRANCH   1  24
HETATM   24  C   UNL     1      39.087 -12.227   4.257  1.00  0.00     0.273 C 
HETATM   25  N   UNL     1      38.787 -11.995   2.929  1.00  0.00    -0.356 N 
HETATM   26  H   UNL     1      39.426 -12.413   2.259  1.00  0.00     0.162 HD
HETATM   27  O   UNL     1      38.468 -11.719   5.185  1.00  0.00    -0.266 OA
BRANCH  25  28
HETATM   28  C   UNL     1      37.798 -11.034   2.502  1.00  0.00     0.122 C 
BRANCH  28  29
HETATM   29  C   UNL     1      38.273 -10.197   1.317  1.00  0.00     0.015 C 
HETATM   30  C   UNL     1      39.256  -9.109   1.725  1.00  0.00     0.006 C 
ENDBRANCH  28  29
ENDBRANCH  25  28
ENDBRANCH   1  24
TORSDOF 6
ENDMDL
MODEL 10
REMARK VINA RESULT:      -6.6      3.304      7.468
REMARK  6 active torsions:
REMARK  status: ('A' for Active; 'I' for Inactive)
REMARK    1  A    between atoms: C_2  and  C_3 
REMARK    2  A    between atoms: C_3  and  N_4 
REMARK       I    between atoms: N_4  and  C_5 
REMARK    3  A    between atoms: C_5  and  C_6 
REMARK    4  A    between atoms: C_11  and  C_12 
REMARK    5  A    between atoms: C_15  and  O_16 
REMARK    6  A    between atoms: C_21  and  C_22 
ROOT
HETATM    1  C   UNL     1      42.541 -16.685   6.360  1.00  0.00     0.170 A 
HETATM    2  N   UNL     1      43.184 -15.578   5.907  1.00  0.00    -0.163 NA
HETATM    3  N   UNL     1      42.187 -14.785   5.478  1.00  0.00    -0.238 N 
HETATM    4  C   UNL     1      40.937 -15.286   5.705  1.00  0.00     0.145 A 
HETATM    5  N   UNL     1      39.825 -14.575   5.397  1.00  0.00    -0.365 N 
HETATM    6  C   UNL     1      39.879 -13.313   4.669  1.00  0.00     0.118 C 
HETATM    7  C   UNL     1      41.207 -12.590   4.965  1.00  0.00     0.066 C 
HETATM    8  C   UNL     1      42.453 -13.490   4.881  1.00  0.00     0.221 C 
HETATM    9  C   UNL     1      41.130 -16.532   6.255  1.00  0.00     0.115 A 
HETATM   10 CL   UNL     1      39.923 -17.634   6.712  1.00  0.00    -0.077 Cl
HETATM   11  H   UNL     1      38.904 -15.011   5.457  1.00  0.00     0.162 HD
ENDROOT
BRANCH   6  12
HETATM   12  C   UNL     1      39.532 -13.457   3.197  1.00  0.00    -0.035 A 
HETATM   13  C   UNL     1      39.383 -14.700   2.564  1.00  0.00     0.012 A 
HETATM   14  C   UNL     1      39.031 -14.781   1.213  1.00  0.00     0.037 A 
HETATM   15  C   UNL     1      38.805 -13.628   0.462  1.00  0.00     0.068 A 
HETATM   16  C   UNL     1      38.948 -12.385   1.075  1.00  0.00     0.037 A 
HETATM   17  C   UNL     1      39.304 -12.302   2.427  1.00  0.00     0.012 A 
BRANCH  15  18
HETATM   18  O   UNL     1      38.457 -13.851  -0.840  1.00  0.00    -0.356 OA
HETATM   19  C   UNL     1      39.512 -14.136  -1.748  1.00  0.00     0.210 C 
ENDBRANCH  15  18
ENDBRANCH   6  12
BRANCH   8  20
HETATM   20  C   UNL     1      42.995 -13.663   3.480  1.00  0.00     0.409 C 
HETATM   21  F   UNL     1      42.568 -14.780   2.864  1.00  0.00    -0.169 F 
HETATM   22  F   UNL     1      42.629 -12.610   2.704  1.00  0.00    -0.169 F 
HETATM   23  F   UNL     1      44.349 -13.687   3.467  1.00  0.00    -0.169 F 
ENDBRANCH   8  20
BRANCH   1  24
HETATM   24  C   UNL     1      43.298 -17.839   6.871  1.00  0.00     0.273 C 
HETATM   25  N   UNL     1      43.415 -18.854   5.943  1.00  0.00    -0.356 N 
HETATM   26  H   UNL     1      42.918 -18.705   5.069  1.00  0.00     0.162 HD
HETATM   27  O   UNL     1      43.761 -17.907   8.004  1.00  0.00    -0.266 OA
BRANCH  25  28
HETATM   28  C   UNL     1      43.983 -20.144   6.255  1.00  0.00     0.122 C 
BRANCH  28  29
HETATM   29  C   UNL     1      44.774 -20.731   5.088  1.00  0.00     0.015 C 
HETATM   30  C   UNL     1      44.873 -22.248   5.152  1.00  0.00     0.006 C 
ENDBRANCH  28  29
ENDBRANCH  25  28
ENDBRANCH   1  24
TORSDOF 6
ENDMDL
