MODEL 1
REMARK VINA RESULT:      -8.9      0.000      0.000
REMARK  9 active torsions:
REMARK  status: ('A' for Active; 'I' for Inactive)
REMARK    1  A    between atoms: O_2  and  C_3 
REMARK    2  A    between atoms: C_4  and  O_5 
REMARK    3  A    between atoms: C_8  and  C_9 
REMARK    4  A    between atoms: C_9  and  C_10 
REMARK    5  A    between atoms: C_10  and  N_11 
REMARK       I    between atoms: N_11  and  C_12 
REMARK    6  A    between atoms: C_12  and  C_13 
REMARK    7  A    between atoms: C_13  and  C_14 
REMARK    8  A    between atoms: N_21  and  C_22 
REMARK    9  A    between atoms: C_22  and  C_23 
REMARK       I    between atoms: C_23  and  N_24 
ROOT
HETATM    1  C   UNL     1      41.802 -12.442   6.185  1.00  0.00     0.048 C 
HETATM    2  C   UNL     1      43.081 -12.782   6.738  1.00  0.00     0.006 A 
HETATM    3  C   UNL     1      43.291 -11.951   7.848  1.00  0.00     0.045 A 
HETATM    4  C   UNL     1      44.450 -12.035   8.639  1.00  0.00     0.030 A 
HETATM    5  C   UNL     1      45.428 -12.966   8.287  1.00  0.00     0.002 A 
HETATM    6  C   UNL     1      45.254 -13.797   7.188  1.00  0.00     0.001 A 
HETATM    7  C   UNL     1      44.089 -13.720   6.414  1.00  0.00     0.015 A 
HETATM    8  N   UNL     1      42.184 -11.139   7.965  1.00  0.00    -0.346 N 
HETATM    9  C   UNL     1      41.334 -11.364   6.918  1.00  0.00     0.108 C 
ENDROOT
BRANCH   1  10
HETATM   10  C   UNL     1      41.047 -13.020   5.076  1.00  0.00     0.251 C 
HETATM   11  O   UNL     1      41.380 -12.838   3.904  1.00  0.00    -0.281 OA
BRANCH  10  12
HETATM   12  C   UNL     1      39.789 -13.860   5.311  1.00  0.00     0.292 C 
HETATM   13  N   UNL     1      39.919 -15.232   5.389  1.00  0.00    -0.354 N 
HETATM   14  H   UNL     1      39.026 -15.711   5.373  1.00  0.00     0.162 HD
HETATM   15  O   UNL     1      38.692 -13.322   5.403  1.00  0.00    -0.264 OA
BRANCH  13  16
HETATM   16  C   UNL     1      41.127 -15.971   5.065  1.00  0.00     0.127 C 
BRANCH  16  17
HETATM   17  C   UNL     1      41.110 -16.490   3.627  1.00  0.00     0.058 C 
BRANCH  17  18
HETATM   18  C   UNL     1      42.103 -17.607   3.425  1.00  0.00    -0.054 A 
HETATM   19  C   UNL     1      42.823 -18.124   4.514  1.00  0.00     0.046 A 
HETATM   20  C   UNL     1      43.775 -19.145   4.350  1.00  0.00     0.102 A 
HETATM   21  C   UNL     1      44.005 -19.654   3.059  1.00  0.00     0.101 A 
HETATM   22  C   UNL     1      43.291 -19.125   1.974  1.00  0.00     0.040 A 
HETATM   23  C   UNL     1      42.348 -18.115   2.150  1.00  0.00     0.010 A 
BRANCH  20  24
HETATM   24  O   UNL     1      44.506 -19.653   5.390  1.00  0.00    -0.353 OA
HETATM   25  C   UNL     1      43.864 -19.835   6.644  1.00  0.00     0.210 C 
ENDBRANCH  20  24
BRANCH  21  26
HETATM   26  O   UNL     1      44.882 -20.633   2.667  1.00  0.00    -0.353 OA
HETATM   27  C   UNL     1      44.364 -21.882   2.236  1.00  0.00     0.210 C 
ENDBRANCH  21  26
ENDBRANCH  17  18
ENDBRANCH  16  17
ENDBRANCH  13  16
ENDBRANCH  10  12
ENDBRANCH   1  10
BRANCH   8  28
HETATM   28  C   UNL     1      41.959 -10.146   9.005  1.00  0.00     0.231 C 
BRANCH  28  29
HETATM   29  C   UNL     1      41.237 -10.727  10.211  1.00  0.00     0.238 C 
HETATM   30  N   UNL     1      41.893 -10.830  11.441  1.00  0.00    -0.351 N 
HETATM   31  C   UNL     1      41.145 -11.369  12.580  1.00  0.00     0.126 C 
HETATM   32  C   UNL     1      43.282 -10.439  11.702  1.00  0.00     0.126 C 
HETATM   33  C   UNL     1      41.023 -10.406  13.764  1.00  0.00     0.020 C 
HETATM   34  C   UNL     1      42.328 -10.256  14.544  1.00  0.00     0.002 C 
HETATM   35  C   UNL     1      43.316  -9.240  13.972  1.00  0.00     0.002 C 
HETATM   36  C   UNL     1      43.371  -9.113  12.451  1.00  0.00     0.020 C 
HETATM   37  O   UNL     1      40.073 -11.120  10.066  1.00  0.00    -0.272 OA
ENDBRANCH  28  29
ENDBRANCH   8  28
TORSDOF 9
ENDMDL
MODEL 2
REMARK VINA RESULT:      -8.8      0.973      1.778
REMARK  9 active torsions:
REMARK  status: ('A' for Active; 'I' for Inactive)
REMARK    1  A    between atoms: O_2  and  C_3 
REMARK    2  A    between atoms: C_4  and  O_5 
REMARK    3  A    between atoms: C_8  and  C_9 
REMARK    4  A    between atoms: C_9  and  C_10 
REMARK    5  A    between atoms: C_10  and  N_11 
REMARK       I    between atoms: N_11  and  C_12 
REMARK    6  A    between atoms: C_12  and  C_13 
REMARK    7  A    between atoms: C_13  and  C_14 
REMARK    8  A    between atoms: N_21  and  C_22 
REMARK    9  A    between atoms: C_22  and  C_23 
REMARK       I    between atoms: C_23  and  N_24 
ROOT
HETATM    1  C   UNL     1      41.691 -12.073   6.285  1.00  0.00     0.048 C 
HETATM    2  C   UNL     1      42.938 -12.621   6.735  1.00  0.00     0.006 A 
HETATM    3  C   UNL     1      43.295 -11.940   7.907  1.00  0.00     0.045 A 
HETATM    4  C   UNL     1      44.465 -12.244   8.624  1.00  0.00     0.030 A 
HETATM    5  C   UNL     1      45.303 -13.246   8.133  1.00  0.00     0.002 A 
HETATM    6  C   UNL     1      44.981 -13.934   6.970  1.00  0.00     0.001 A 
HETATM    7  C   UNL     1      43.805 -13.636   6.270  1.00  0.00     0.015 A 
HETATM    8  N   UNL     1      42.305 -11.014   8.159  1.00  0.00    -0.346 N 
HETATM    9  C   UNL     1      41.393 -11.027   7.142  1.00  0.00     0.108 C 
ENDROOT
BRANCH   1  10
HETATM   10  C   UNL     1      40.825 -12.438   5.167  1.00  0.00     0.251 C 
HETATM   11  O   UNL     1      41.134 -12.186   4.001  1.00  0.00    -0.281 OA
BRANCH  10  12
HETATM   12  C   UNL     1      39.477 -13.130   5.386  1.00  0.00     0.292 C 
HETATM   13  N   UNL     1      39.440 -14.510   5.398  1.00  0.00    -0.354 N 
HETATM   14  H   UNL     1      38.495 -14.876   5.376  1.00  0.00     0.162 HD
HETATM   15  O   UNL     1      38.455 -12.469   5.524  1.00  0.00    -0.264 OA
BRANCH  13  16
HETATM   16  C   UNL     1      40.544 -15.373   5.017  1.00  0.00     0.127 C 
BRANCH  16  17
HETATM   17  C   UNL     1      41.106 -16.142   6.213  1.00  0.00     0.058 C 
BRANCH  17  18
HETATM   18  C   UNL     1      42.184 -17.111   5.797  1.00  0.00    -0.054 A 
HETATM   19  C   UNL     1      42.200 -17.643   4.498  1.00  0.00     0.046 A 
HETATM   20  C   UNL     1      43.176 -18.570   4.093  1.00  0.00     0.102 A 
HETATM   21  C   UNL     1      44.156 -18.968   5.019  1.00  0.00     0.101 A 
HETATM   22  C   UNL     1      44.128 -18.443   6.319  1.00  0.00     0.040 A 
HETATM   23  C   UNL     1      43.157 -17.523   6.708  1.00  0.00     0.010 A 
BRANCH  20  24
HETATM   24  O   UNL     1      43.202 -19.120   2.839  1.00  0.00    -0.353 OA
HETATM   25  C   UNL     1      43.857 -18.406   1.800  1.00  0.00     0.210 C 
ENDBRANCH  20  24
BRANCH  21  26
HETATM   26  O   UNL     1      45.187 -19.857   4.847  1.00  0.00    -0.353 OA
HETATM   27  C   UNL     1      44.927 -21.243   5.001  1.00  0.00     0.210 C 
ENDBRANCH  21  26
ENDBRANCH  17  18
ENDBRANCH  16  17
ENDBRANCH  13  16
ENDBRANCH  10  12
ENDBRANCH   1  10
BRANCH   8  28
HETATM   28  C   UNL     1      42.250 -10.113   9.301  1.00  0.00     0.231 C 
BRANCH  28  29
HETATM   29  C   UNL     1      41.444 -10.691  10.453  1.00  0.00     0.238 C 
HETATM   30  N   UNL     1      42.005 -10.776  11.731  1.00  0.00    -0.351 N 
HETATM   31  C   UNL     1      41.177 -11.313  12.814  1.00  0.00     0.126 C 
HETATM   32  C   UNL     1      43.367 -10.368  12.093  1.00  0.00     0.126 C 
HETATM   33  C   UNL     1      40.957 -10.341  13.977  1.00  0.00     0.020 C 
HETATM   34  C   UNL     1      42.197 -10.170  14.852  1.00  0.00     0.002 C 
HETATM   35  C   UNL     1      43.215  -9.149  14.347  1.00  0.00     0.002 C 
HETATM   36  C   UNL     1      43.385  -9.035  12.834  1.00  0.00     0.020 C 
HETATM   37  O   UNL     1      40.297 -11.097  10.225  1.00  0.00    -0.272 OA
ENDBRANCH  28  29
ENDBRANCH   8  28
TORSDOF 9
ENDMDL
MODEL 3
REMARK VINA RESULT:      -8.7      1.838      3.056
REMARK  9 active torsions:
REMARK  status: ('A' for Active; 'I' for Inactive)
REMARK    1  A    between atoms: O_2  and  C_3 
REMARK    2  A    between atoms: C_4  and  O_5 
REMARK    3  A    between atoms: C_8  and  C_9 
REMARK    4  A    between atoms: C_9  and  C_10 
REMARK    5  A    between atoms: C_10  and  N_11 
REMARK       I    between atoms: N_11  and  C_12 
REMARK    6  A    between atoms: C_12  and  C_13 
REMARK    7  A    between atoms: C_13  and  C_14 
REMARK    8  A    between atoms: N_21  and  C_22 
REMARK    9  A    between atoms: C_22  and  C_23 
REMARK       I    between atoms: C_23  and  N_24 
ROOT
HETATM    1  C   UNL     1      41.912 -12.938   5.674  1.00  0.00     0.048 C 
HETATM    2  C   UNL     1      40.761 -12.313   5.088  1.00  0.00     0.006 A 
HETATM    3  C   UNL     1      40.459 -11.184   5.863  1.00  0.00     0.045 A 
HETATM    4  C   UNL     1      39.390 -10.326   5.554  1.00  0.00     0.030 A 
HETATM    5  C   UNL     1      38.595 -10.628   4.446  1.00  0.00     0.002 A 
HETATM    6  C   UNL     1      38.864 -11.744   3.664  1.00  0.00     0.001 A 
HETATM    7  C   UNL     1      39.941 -12.585   3.969  1.00  0.00     0.015 A 
HETATM    8  N   UNL     1      41.389 -11.126   6.879  1.00  0.00    -0.346 N 
HETATM    9  C   UNL     1      42.201 -12.224   6.824  1.00  0.00     0.108 C 
ENDROOT
BRANCH   1  10
HETATM   10  C   UNL     1      42.697 -14.096   5.254  1.00  0.00     0.251 C 
HETATM   11  O   UNL     1      42.941 -15.026   6.025  1.00  0.00    -0.281 OA
BRANCH  10  12
HETATM   12  C   UNL     1      43.281 -14.204   3.843  1.00  0.00     0.292 C 
HETATM   13  N   UNL     1      42.628 -14.996   2.920  1.00  0.00    -0.354 N 
HETATM   14  H   UNL     1      43.172 -15.144   2.077  1.00  0.00     0.162 HD
HETATM   15  O   UNL     1      44.316 -13.617   3.553  1.00  0.00    -0.264 OA
BRANCH  13  16
HETATM   16  C   UNL     1      41.538 -15.905   3.229  1.00  0.00     0.127 C 
BRANCH  16  17
HETATM   17  C   UNL     1      41.616 -17.191   2.408  1.00  0.00     0.058 C 
BRANCH  17  18
HETATM   18  C   UNL     1      42.585 -18.179   3.007  1.00  0.00    -0.054 A 
HETATM   19  C   UNL     1      42.852 -18.166   4.385  1.00  0.00     0.046 A 
HETATM   20  C   UNL     1      43.772 -19.057   4.966  1.00  0.00     0.102 A 
HETATM   21  C   UNL     1      44.436 -19.979   4.138  1.00  0.00     0.101 A 
HETATM   22  C   UNL     1      44.174 -19.979   2.760  1.00  0.00     0.040 A 
HETATM   23  C   UNL     1      43.258 -19.093   2.196  1.00  0.00     0.010 A 
BRANCH  20  24
HETATM   24  O   UNL     1      44.068 -19.052   6.303  1.00  0.00    -0.353 OA
HETATM   25  C   UNL     1      45.059 -18.149   6.775  1.00  0.00     0.210 C 
ENDBRANCH  20  24
BRANCH  21  26
HETATM   26  O   UNL     1      45.369 -20.924   4.482  1.00  0.00    -0.353 OA
HETATM   27  C   UNL     1      44.923 -22.194   4.929  1.00  0.00     0.210 C 
ENDBRANCH  21  26
ENDBRANCH  17  18
ENDBRANCH  16  17
ENDBRANCH  13  16
ENDBRANCH  10  12
ENDBRANCH   1  10
BRANCH   8  28
HETATM   28  C   UNL     1      41.476 -10.091   7.899  1.00  0.00     0.231 C 
BRANCH  28  29
HETATM   29  C   UNL     1      40.716 -10.463   9.163  1.00  0.00     0.238 C 
HETATM   30  N   UNL     1      41.410 -10.857  10.311  1.00  0.00    -0.351 N 
HETATM   31  C   UNL     1      40.633 -11.175  11.512  1.00  0.00     0.126 C 
HETATM   32  C   UNL     1      42.867 -10.982  10.426  1.00  0.00     0.126 C 
HETATM   33  C   UNL     1      40.967 -10.302  12.725  1.00  0.00     0.020 C 
HETATM   34  C   UNL     1      42.312 -10.655  13.359  1.00  0.00     0.002 C 
HETATM   35  C   UNL     1      43.530 -10.007  12.705  1.00  0.00     0.002 C 
HETATM   36  C   UNL     1      43.481  -9.815  11.191  1.00  0.00     0.020 C 
HETATM   37  O   UNL     1      39.479 -10.424   9.139  1.00  0.00    -0.272 OA
ENDBRANCH  28  29
ENDBRANCH   8  28
TORSDOF 9
ENDMDL
MODEL 4
REMARK VINA RESULT:      -8.6      1.824      3.374
REMARK  9 active torsions:
REMARK  status: ('A' for Active; 'I' for Inactive)
REMARK    1  A    between atoms: O_2  and  C_3 
REMARK    2  A    between atoms: C_4  and  O_5 
REMARK    3  A    between atoms: C_8  and  C_9 
REMARK    4  A    between atoms: C_9  and  C_10 
REMARK    5  A    between atoms: C_10  and  N_11 
REMARK       I    between atoms: N_11  and  C_12 
REMARK    6  A    between atoms: C_12  and  C_13 
REMARK    7  A    between atoms: C_13  and  C_14 
REMARK    8  A    between atoms: N_21  and  C_22 
REMARK    9  A    between atoms: C_22  and  C_23 
REMARK       I    between atoms: C_23  and  N_24 
ROOT
HETATM    1  C   UNL     1      42.482 -12.877   5.963  1.00  0.00     0.048 C 
HETATM    2  C   UNL     1      41.251 -12.486   5.341  1.00  0.00     0.006 A 
HETATM    3  C   UNL     1      40.731 -11.413   6.079  1.00  0.00     0.045 A 
HETATM    4  C   UNL     1      39.531 -10.772   5.727  1.00  0.00     0.030 A 
HETATM    5  C   UNL     1      38.830 -11.239   4.615  1.00  0.00     0.002 A 
HETATM    6  C   UNL     1      39.314 -12.305   3.868  1.00  0.00     0.001 A 
HETATM    7  C   UNL     1      40.518 -12.929   4.215  1.00  0.00     0.015 A 
HETATM    8  N   UNL     1      41.612 -11.163   7.110  1.00  0.00    -0.346 N 
HETATM    9  C   UNL     1      42.611 -12.095   7.099  1.00  0.00     0.108 C 
ENDROOT
BRANCH   1  10
HETATM   10  C   UNL     1      43.474 -13.883   5.590  1.00  0.00     0.251 C 
HETATM   11  O   UNL     1      43.591 -14.274   4.428  1.00  0.00    -0.281 OA
BRANCH  10  12
HETATM   12  C   UNL     1      44.402 -14.521   6.627  1.00  0.00     0.292 C 
HETATM   13  N   UNL     1      44.064 -15.758   7.138  1.00  0.00    -0.354 N 
HETATM   14  H   UNL     1      44.634 -16.022   7.933  1.00  0.00     0.162 HD
HETATM   15  O   UNL     1      45.406 -13.933   7.008  1.00  0.00    -0.264 OA
BRANCH  13  16
HETATM   16  C   UNL     1      42.790 -16.424   6.926  1.00  0.00     0.127 C 
BRANCH  16  17
HETATM   17  C   UNL     1      42.895 -17.936   7.131  1.00  0.00     0.058 C 
BRANCH  17  18
HETATM   18  C   UNL     1      43.445 -18.628   5.909  1.00  0.00    -0.054 A 
HETATM   19  C   UNL     1      43.201 -18.109   4.628  1.00  0.00     0.046 A 
HETATM   20  C   UNL     1      43.676 -18.750   3.470  1.00  0.00     0.102 A 
HETATM   21  C   UNL     1      44.413 -19.940   3.610  1.00  0.00     0.101 A 
HETATM   22  C   UNL     1      44.643 -20.460   4.892  1.00  0.00     0.040 A 
HETATM   23  C   UNL     1      44.169 -19.814   6.032  1.00  0.00     0.010 A 
BRANCH  20  24
HETATM   24  O   UNL     1      43.435 -18.278   2.207  1.00  0.00    -0.353 OA
HETATM   25  C   UNL     1      43.991 -17.024   1.836  1.00  0.00     0.210 C 
ENDBRANCH  20  24
BRANCH  21  26
HETATM   26  O   UNL     1      44.960 -20.729   2.631  1.00  0.00    -0.353 OA
HETATM   27  C   UNL     1      44.292 -21.926   2.266  1.00  0.00     0.210 C 
ENDBRANCH  21  26
ENDBRANCH  17  18
ENDBRANCH  16  17
ENDBRANCH  13  16
ENDBRANCH  10  12
ENDBRANCH   1  10
BRANCH   8  28
HETATM   28  C   UNL     1      41.487 -10.106   8.103  1.00  0.00     0.231 C 
BRANCH  28  29
HETATM   29  C   UNL     1      40.753 -10.572   9.351  1.00  0.00     0.238 C 
HETATM   30  N   UNL     1      41.469 -10.897  10.507  1.00  0.00    -0.351 N 
HETATM   31  C   UNL     1      40.715 -11.311  11.692  1.00  0.00     0.126 C 
HETATM   32  C   UNL     1      42.929 -10.860  10.644  1.00  0.00     0.126 C 
HETATM   33  C   UNL     1      40.930 -10.418  12.917  1.00  0.00     0.020 C 
HETATM   34  C   UNL     1      42.296 -10.625  13.571  1.00  0.00     0.002 C 
HETATM   35  C   UNL     1      43.444  -9.838  12.942  1.00  0.00     0.002 C 
HETATM   36  C   UNL     1      43.397  -9.639  11.429  1.00  0.00     0.020 C 
HETATM   37  O   UNL     1      39.521 -10.670   9.307  1.00  0.00    -0.272 OA
ENDBRANCH  28  29
ENDBRANCH   8  28
TORSDOF 9
ENDMDL
MODEL 5
REMARK VINA RESULT:      -8.6      2.746      9.632
REMARK  9 active torsions:
REMARK  status: ('A' for Active; 'I' for Inactive)
REMARK    1  A    between atoms: O_2  and  C_3 
REMARK    2  A    between atoms: C_4  and  O_5 
REMARK    3  A    between atoms: C_8  and  C_9 
REMARK    4  A    between atoms: C_9  and  C_10 
REMARK    5  A    between atoms: C_10  and  N_11 
REMARK       I    between atoms: N_11  and  C_12 
REMARK    6  A    between atoms: C_12  and  C_13 
REMARK    7  A    between atoms: C_13  and  C_14 
REMARK    8  A    between atoms: N_21  and  C_22 
REMARK    9  A    between atoms: C_22  and  C_23 
REMARK       I    between atoms: C_23  and  N_24 
ROOT
HETATM    1  C   UNL     1      41.989 -16.972   4.905  1.00  0.00     0.048 C 
HETATM    2  C   UNL     1      42.891 -17.988   4.448  1.00  0.00     0.006 A 
HETATM    3  C   UNL     1      42.574 -18.257   3.109  1.00  0.00     0.045 A 
HETATM    4  C   UNL     1      43.284 -19.199   2.345  1.00  0.00     0.030 A 
HETATM    5  C   UNL     1      44.326 -19.899   2.955  1.00  0.00     0.002 A 
HETATM    6  C   UNL     1      44.659 -19.661   4.282  1.00  0.00     0.001 A 
HETATM    7  C   UNL     1      43.958 -18.710   5.033  1.00  0.00     0.015 A 
HETATM    8  N   UNL     1      41.520 -17.438   2.767  1.00  0.00    -0.346 N 
HETATM    9  C   UNL     1      41.107 -16.736   3.864  1.00  0.00     0.108 C 
ENDROOT
BRANCH   1  10
HETATM   10  C   UNL     1      41.900 -16.264   6.181  1.00  0.00     0.251 C 
HETATM   11  O   UNL     1      41.052 -15.393   6.379  1.00  0.00    -0.281 OA
BRANCH  10  12
HETATM   12  C   UNL     1      42.873 -16.549   7.328  1.00  0.00     0.292 C 
HETATM   13  N   UNL     1      43.839 -15.607   7.620  1.00  0.00    -0.354 N 
HETATM   14  H   UNL     1      44.538 -15.951   8.269  1.00  0.00     0.162 HD
HETATM   15  O   UNL     1      42.806 -17.601   7.952  1.00  0.00    -0.264 OA
BRANCH  13  16
HETATM   16  C   UNL     1      44.145 -14.449   6.798  1.00  0.00     0.127 C 
BRANCH  16  17
HETATM   17  C   UNL     1      45.274 -13.609   7.393  1.00  0.00     0.058 C 
BRANCH  17  18
HETATM   18  C   UNL     1      44.755 -12.587   8.372  1.00  0.00    -0.054 A 
HETATM   19  C   UNL     1      43.553 -11.906   8.119  1.00  0.00     0.046 A 
HETATM   20  C   UNL     1      43.060 -10.928   9.001  1.00  0.00     0.102 A 
HETATM   21  C   UNL     1      43.796 -10.631  10.162  1.00  0.00     0.101 A 
HETATM   22  C   UNL     1      45.002 -11.306  10.403  1.00  0.00     0.040 A 
HETATM   23  C   UNL     1      45.479 -12.275   9.523  1.00  0.00     0.010 A 
BRANCH  20  24
HETATM   24  O   UNL     1      41.902 -10.234   8.769  1.00  0.00    -0.353 OA
HETATM   25  C   UNL     1      41.260 -10.390   7.510  1.00  0.00     0.210 C 
ENDBRANCH  20  24
BRANCH  21  26
HETATM   26  O   UNL     1      43.514  -9.719  11.146  1.00  0.00    -0.353 OA
HETATM   27  C   UNL     1      43.657 -10.110  12.502  1.00  0.00     0.210 C 
ENDBRANCH  21  26
ENDBRANCH  17  18
ENDBRANCH  16  17
ENDBRANCH  13  16
ENDBRANCH  10  12
ENDBRANCH   1  10
BRANCH   8  28
HETATM   28  C   UNL     1      40.891 -17.357   1.456  1.00  0.00     0.231 C 
BRANCH  28  29
HETATM   29  C   UNL     1      41.495 -16.259   0.595  1.00  0.00     0.238 C 
HETATM   30  N   UNL     1      40.848 -15.025   0.472  1.00  0.00    -0.351 N 
HETATM   31  C   UNL     1      41.486 -13.990  -0.346  1.00  0.00     0.126 C 
HETATM   32  C   UNL     1      39.571 -14.666   1.097  1.00  0.00     0.126 C 
HETATM   33  C   UNL     1      41.816 -12.704   0.417  1.00  0.00     0.020 C 
HETATM   34  C   UNL     1      40.579 -11.862   0.726  1.00  0.00     0.002 C 
HETATM   35  C   UNL     1      39.812 -12.269   1.982  1.00  0.00     0.002 C 
HETATM   36  C   UNL     1      39.763 -13.760   2.308  1.00  0.00     0.020 C 
HETATM   37  O   UNL     1      42.553 -16.494  -0.002  1.00  0.00    -0.272 OA
ENDBRANCH  28  29
ENDBRANCH   8  28
TORSDOF 9
ENDMDL
MODEL 6
REMARK VINA RESULT:      -8.4      2.525      3.325
REMARK  9 active torsions:
REMARK  status: ('A' for Active; 'I' for Inactive)
REMARK    1  A    between atoms: O_2  and  C_3 
REMARK    2  A    between atoms: C_4  and  O_5 
REMARK    3  A    between atoms: C_8  and  C_9 
REMARK    4  A    between atoms: C_9  and  C_10 
REMARK    5  A    between atoms: C_10  and  N_11 
REMARK       I    between atoms: N_11  and  C_12 
REMARK    6  A    between atoms: C_12  and  C_13 
REMARK    7  A    between atoms: C_13  and  C_14 
REMARK    8  A    between atoms: N_21  and  C_22 
REMARK    9  A    between atoms: C_22  and  C_23 
REMARK       I    between atoms: C_23  and  N_24 
ROOT
HETATM    1  C   UNL     1      41.492 -13.494   2.952  1.00  0.00     0.048 C 
HETATM    2  C   UNL     1      42.347 -13.828   4.055  1.00  0.00     0.006 A 
HETATM    3  C   UNL     1      42.189 -12.828   5.025  1.00  0.00     0.045 A 
HETATM    4  C   UNL     1      42.874 -12.857   6.251  1.00  0.00     0.030 A 
HETATM    5  C   UNL     1      43.756 -13.911   6.494  1.00  0.00     0.002 A 
HETATM    6  C   UNL     1      43.941 -14.913   5.550  1.00  0.00     0.001 A 
HETATM    7  C   UNL     1      43.243 -14.886   4.337  1.00  0.00     0.015 A 
HETATM    8  N   UNL     1      41.274 -11.922   4.531  1.00  0.00    -0.346 N 
HETATM    9  C   UNL     1      40.926 -12.267   3.255  1.00  0.00     0.108 C 
ENDROOT
BRANCH   1  10
HETATM   10  C   UNL     1      41.203 -14.204   1.708  1.00  0.00     0.251 C 
HETATM   11  O   UNL     1      41.977 -14.171   0.751  1.00  0.00    -0.281 OA
BRANCH  10  12
HETATM   12  C   UNL     1      39.910 -15.003   1.520  1.00  0.00     0.292 C 
HETATM   13  N   UNL     1      39.788 -16.217   2.165  1.00  0.00    -0.354 N 
HETATM   14  H   UNL     1      38.985 -16.749   1.850  1.00  0.00     0.162 HD
HETATM   15  O   UNL     1      39.019 -14.580   0.795  1.00  0.00    -0.264 OA
BRANCH  13  16
HETATM   16  C   UNL     1      40.868 -16.905   2.851  1.00  0.00     0.127 C 
BRANCH  16  17
HETATM   17  C   UNL     1      41.690 -17.773   1.898  1.00  0.00     0.058 C 
BRANCH  17  18
HETATM   18  C   UNL     1      42.668 -18.647   2.642  1.00  0.00    -0.054 A 
HETATM   19  C   UNL     1      42.888 -18.459   4.015  1.00  0.00     0.046 A 
HETATM   20  C   UNL     1      43.815 -19.240   4.727  1.00  0.00     0.102 A 
HETATM   21  C   UNL     1      44.534 -20.233   4.037  1.00  0.00     0.101 A 
HETATM   22  C   UNL     1      44.319 -20.408   2.663  1.00  0.00     0.040 A 
HETATM   23  C   UNL     1      43.395 -19.629   1.969  1.00  0.00     0.010 A 
BRANCH  20  24
HETATM   24  O   UNL     1      44.066 -19.065   6.062  1.00  0.00    -0.353 OA
HETATM   25  C   UNL     1      45.131 -18.205   6.443  1.00  0.00     0.210 C 
ENDBRANCH  20  24
BRANCH  21  26
HETATM   26  O   UNL     1      45.484 -21.096   4.521  1.00  0.00    -0.353 OA
HETATM   27  C   UNL     1      45.069 -22.357   5.022  1.00  0.00     0.210 C 
ENDBRANCH  21  26
ENDBRANCH  17  18
ENDBRANCH  16  17
ENDBRANCH  13  16
ENDBRANCH  10  12
ENDBRANCH   1  10
BRANCH   8  28
HETATM   28  C   UNL     1      40.781 -10.741   5.225  1.00  0.00     0.231 C 
BRANCH  28  29
HETATM   29  C   UNL     1      39.815 -11.093   6.345  1.00  0.00     0.238 C 
HETATM   30  N   UNL     1      40.128 -10.773   7.670  1.00  0.00    -0.351 N 
HETATM   31  C   UNL     1      39.150 -11.105   8.710  1.00  0.00     0.126 C 
HETATM   32  C   UNL     1      41.363 -10.124   8.121  1.00  0.00     0.126 C 
HETATM   33  C   UNL     1      38.644  -9.898   9.504  1.00  0.00     0.020 C 
HETATM   34  C   UNL     1      39.680  -9.357  10.487  1.00  0.00     0.002 C 
HETATM   35  C   UNL     1      40.699  -8.388   9.891  1.00  0.00     0.002 C 
HETATM   36  C   UNL     1      41.145  -8.652   8.455  1.00  0.00     0.020 C 
HETATM   37  O   UNL     1      38.765 -11.680   6.055  1.00  0.00    -0.272 OA
ENDBRANCH  28  29
ENDBRANCH   8  28
TORSDOF 9
ENDMDL
MODEL 7
REMARK VINA RESULT:      -8.4      2.900      5.369
REMARK  9 active torsions:
REMARK  status: ('A' for Active; 'I' for Inactive)
REMARK    1  A    between atoms: O_2  and  C_3 
REMARK    2  A    between atoms: C_4  and  O_5 
REMARK    3  A    between atoms: C_8  and  C_9 
REMARK    4  A    between atoms: C_9  and  C_10 
REMARK    5  A    between atoms: C_10  and  N_11 
REMARK       I    between atoms: N_11  and  C_12 
REMARK    6  A    between atoms: C_12  and  C_13 
REMARK    7  A    between atoms: C_13  and  C_14 
REMARK    8  A    between atoms: N_21  and  C_22 
REMARK    9  A    between atoms: C_22  and  C_23 
REMARK       I    between atoms: C_23  and  N_24 
ROOT
HETATM    1  C   UNL     1      40.140 -15.146   2.482  1.00  0.00     0.048 C 
HETATM    2  C   UNL     1      39.502 -13.884   2.240  1.00  0.00     0.006 A 
HETATM    3  C   UNL     1      39.425 -13.212   3.469  1.00  0.00     0.045 A 
HETATM    4  C   UNL     1      38.868 -11.927   3.587  1.00  0.00     0.030 A 
HETATM    5  C   UNL     1      38.358 -11.316   2.440  1.00  0.00     0.002 A 
HETATM    6  C   UNL     1      38.412 -11.959   1.211  1.00  0.00     0.001 A 
HETATM    7  C   UNL     1      38.983 -13.233   1.097  1.00  0.00     0.015 A 
HETATM    8  N   UNL     1      39.993 -14.033   4.419  1.00  0.00    -0.346 N 
HETATM    9  C   UNL     1      40.336 -15.228   3.851  1.00  0.00     0.108 C 
ENDROOT
BRANCH   1  10
HETATM   10  C   UNL     1      40.538 -16.215   1.570  1.00  0.00     0.251 C 
HETATM   11  O   UNL     1      40.221 -17.388   1.771  1.00  0.00    -0.281 OA
BRANCH  10  12
HETATM   12  C   UNL     1      41.393 -15.937   0.330  1.00  0.00     0.292 C 
HETATM   13  N   UNL     1      42.736 -16.253   0.373  1.00  0.00    -0.354 N 
HETATM   14  H   UNL     1      43.251 -15.881  -0.416  1.00  0.00     0.162 HD
HETATM   15  O   UNL     1      40.895 -15.425  -0.665  1.00  0.00    -0.264 OA
BRANCH  13  16
HETATM   16  C   UNL     1      43.459 -16.643   1.571  1.00  0.00     0.127 C 
BRANCH  16  17
HETATM   17  C   UNL     1      43.681 -18.154   1.637  1.00  0.00     0.058 C 
BRANCH  17  18
HETATM   18  C   UNL     1      43.796 -18.640   3.059  1.00  0.00    -0.054 A 
HETATM   19  C   UNL     1      44.421 -19.865   3.343  1.00  0.00     0.046 A 
HETATM   20  C   UNL     1      44.517 -20.356   4.657  1.00  0.00     0.102 A 
HETATM   21  C   UNL     1      43.970 -19.595   5.706  1.00  0.00     0.101 A 
HETATM   22  C   UNL     1      43.337 -18.379   5.414  1.00  0.00     0.040 A 
HETATM   23  C   UNL     1      43.250 -17.901   4.108  1.00  0.00     0.010 A 
BRANCH  20  24
HETATM   24  O   UNL     1      45.103 -21.557   4.961  1.00  0.00    -0.353 OA
HETATM   25  C   UNL     1      44.704 -22.708   4.230  1.00  0.00     0.210 C 
ENDBRANCH  20  24
BRANCH  21  26
HETATM   26  O   UNL     1      43.941 -19.880   7.047  1.00  0.00    -0.353 OA
HETATM   27  C   UNL     1      44.001 -18.808   7.975  1.00  0.00     0.210 C 
ENDBRANCH  21  26
ENDBRANCH  17  18
ENDBRANCH  16  17
ENDBRANCH  13  16
ENDBRANCH  10  12
ENDBRANCH   1  10
BRANCH   8  28
HETATM   28  C   UNL     1      40.161 -13.718   5.830  1.00  0.00     0.231 C 
BRANCH  28  29
HETATM   29  C   UNL     1      41.142 -12.577   6.053  1.00  0.00     0.238 C 
HETATM   30  N   UNL     1      40.739 -11.427   6.738  1.00  0.00    -0.351 N 
HETATM   31  C   UNL     1      41.730 -10.370   6.953  1.00  0.00     0.126 C 
HETATM   32  C   UNL     1      39.395 -11.178   7.270  1.00  0.00     0.126 C 
HETATM   33  C   UNL     1      41.990 -10.043   8.426  1.00  0.00     0.020 C 
HETATM   34  C   UNL     1      40.847  -9.264   9.073  1.00  0.00     0.002 C 
HETATM   35  C   UNL     1      39.688 -10.115   9.589  1.00  0.00     0.002 C 
HETATM   36  C   UNL     1      39.337 -11.364   8.783  1.00  0.00     0.020 C 
HETATM   37  O   UNL     1      42.287 -12.690   5.599  1.00  0.00    -0.272 OA
ENDBRANCH  28  29
ENDBRANCH   8  28
TORSDOF 9
ENDMDL
MODEL 8
REMARK VINA RESULT:      -8.3      4.495      8.612
REMARK  9 active torsions:
REMARK  status: ('A' for Active; 'I' for Inactive)
REMARK    1  A    between atoms: O_2  and  C_3 
REMARK    2  A    between atoms: C_4  and  O_5 
REMARK    3  A    between atoms: C_8  and  C_9 
REMARK    4  A    between atoms: C_9  and  C_10 
REMARK    5  A    between atoms: C_10  and  N_11 
REMARK       I    between atoms: N_11  and  C_12 
REMARK    6  A    between atoms: C_12  and  C_13 
REMARK    7  A    between atoms: C_13  and  C_14 
REMARK    8  A    between atoms: N_21  and  C_22 
REMARK    9  A    between atoms: C_22  and  C_23 
REMARK       I    between atoms: C_23  and  N_24 
ROOT
HETATM    1  C   UNL     1      40.967 -14.031   3.361  1.00  0.00     0.048 C 
HETATM    2  C   UNL     1      41.039 -14.999   2.306  1.00  0.00     0.006 A 
HETATM    3  C   UNL     1      41.412 -14.319   1.138  1.00  0.00     0.045 A 
HETATM    4  C   UNL     1      41.594 -14.978  -0.090  1.00  0.00     0.030 A 
HETATM    5  C   UNL     1      41.373 -16.356  -0.142  1.00  0.00     0.002 A 
HETATM    6  C   UNL     1      40.995 -17.057   0.995  1.00  0.00     0.001 A 
HETATM    7  C   UNL     1      40.832 -16.396   2.219  1.00  0.00     0.015 A 
HETATM    8  N   UNL     1      41.560 -12.989   1.471  1.00  0.00    -0.346 N 
HETATM    9  C   UNL     1      41.204 -12.798   2.776  1.00  0.00     0.108 C 
ENDROOT
BRANCH   1  10
HETATM   10  C   UNL     1      40.694 -14.180   4.789  1.00  0.00     0.251 C 
HETATM   11  O   UNL     1      39.616 -14.613   5.199  1.00  0.00    -0.281 OA
BRANCH  10  12
HETATM   12  C   UNL     1      41.723 -13.781   5.850  1.00  0.00     0.292 C 
HETATM   13  N   UNL     1      42.723 -14.678   6.166  1.00  0.00    -0.354 N 
HETATM   14  H   UNL     1      43.248 -14.405   6.989  1.00  0.00     0.162 HD
HETATM   15  O   UNL     1      41.642 -12.699   6.418  1.00  0.00    -0.264 OA
BRANCH  13  16
HETATM   16  C   UNL     1      42.769 -16.060   5.722  1.00  0.00     0.127 C 
BRANCH  16  17
HETATM   17  C   UNL     1      43.706 -16.246   4.529  1.00  0.00     0.058 C 
BRANCH  17  18
HETATM   18  C   UNL     1      43.884 -17.702   4.180  1.00  0.00    -0.054 A 
HETATM   19  C   UNL     1      44.094 -18.655   5.189  1.00  0.00     0.046 A 
HETATM   20  C   UNL     1      44.292 -20.014   4.890  1.00  0.00     0.102 A 
HETATM   21  C   UNL     1      44.277 -20.420   3.543  1.00  0.00     0.101 A 
HETATM   22  C   UNL     1      44.079 -19.461   2.539  1.00  0.00     0.040 A 
HETATM   23  C   UNL     1      43.882 -18.117   2.848  1.00  0.00     0.010 A 
BRANCH  20  24
HETATM   24  O   UNL     1      44.519 -20.962   5.852  1.00  0.00    -0.353 OA
HETATM   25  C   UNL     1      43.688 -20.969   7.005  1.00  0.00     0.210 C 
ENDBRANCH  20  24
BRANCH  21  26
HETATM   26  O   UNL     1      44.454 -21.677   3.024  1.00  0.00    -0.353 OA
HETATM   27  C   UNL     1      44.167 -21.896   1.652  1.00  0.00     0.210 C 
ENDBRANCH  21  26
ENDBRANCH  17  18
ENDBRANCH  16  17
ENDBRANCH  13  16
ENDBRANCH  10  12
ENDBRANCH   1  10
BRANCH   8  28
HETATM   28  C   UNL     1      41.977 -11.924   0.570  1.00  0.00     0.231 C 
BRANCH  28  29
HETATM   29  C   UNL     1      40.831 -11.413  -0.288  1.00  0.00     0.238 C 
HETATM   30  N   UNL     1      41.086 -10.861  -1.547  1.00  0.00    -0.351 N 
HETATM   31  C   UNL     1      39.945 -10.411  -2.348  1.00  0.00     0.126 C 
HETATM   32  C   UNL     1      42.412 -10.690  -2.150  1.00  0.00     0.126 C 
HETATM   33  C   UNL     1      39.811 -11.116  -3.701  1.00  0.00     0.020 C 
HETATM   34  C   UNL     1      40.854 -10.656  -4.717  1.00  0.00     0.002 C 
HETATM   35  C   UNL     1      42.209 -11.354  -4.621  1.00  0.00     0.002 C 
HETATM   36  C   UNL     1      42.691 -11.737  -3.224  1.00  0.00     0.020 C 
HETATM   37  O   UNL     1      39.681 -11.483   0.164  1.00  0.00    -0.272 OA
ENDBRANCH  28  29
ENDBRANCH   8  28
TORSDOF 9
ENDMDL
MODEL 9
REMARK VINA RESULT:      -8.2      2.099      9.349
REMARK  9 active torsions:
REMARK  status: ('A' for Active; 'I' for Inactive)
REMARK    1  A    between atoms: O_2  and  C_3 
REMARK    2  A    between atoms: C_4  and  O_5 
REMARK    3  A    between atoms: C_8  and  C_9 
REMARK    4  A    between atoms: C_9  and  C_10 
REMARK    5  A    between atoms: C_10  and  N_11 
REMARK       I    between atoms: N_11  and  C_12 
REMARK    6  A    between atoms: C_12  and  C_13 
REMARK    7  A    between atoms: C_13  and  C_14 
REMARK    8  A    between atoms: N_21  and  C_22 
REMARK    9  A    between atoms: C_22  and  C_23 
REMARK       I    between atoms: C_23  and  N_24 
ROOT
HETATM    1  C   UNL     1      41.242 -13.568   5.198  1.00  0.00     0.048 C 
HETATM    2  C   UNL     1      42.444 -13.796   5.946  1.00  0.00     0.006 A 
HETATM    3  C   UNL     1      42.620 -15.184   6.042  1.00  0.00     0.045 A 
HETATM    4  C   UNL     1      43.721 -15.758   6.701  1.00  0.00     0.030 A 
HETATM    5  C   UNL     1      44.655 -14.908   7.295  1.00  0.00     0.002 A 
HETATM    6  C   UNL     1      44.505 -13.529   7.225  1.00  0.00     0.001 A 
HETATM    7  C   UNL     1      43.415 -12.964   6.553  1.00  0.00     0.015 A 
HETATM    8  N   UNL     1      41.565 -15.775   5.379  1.00  0.00    -0.346 N 
HETATM    9  C   UNL     1      40.691 -14.814   4.954  1.00  0.00     0.108 C 
ENDROOT
BRANCH   1  10
HETATM   10  C   UNL     1      40.613 -12.331   4.740  1.00  0.00     0.251 C 
HETATM   11  O   UNL     1      40.926 -11.805   3.671  1.00  0.00    -0.281 OA
BRANCH  10  12
HETATM   12  C   UNL     1      39.552 -11.611   5.575  1.00  0.00     0.292 C 
HETATM   13  N   UNL     1      39.901 -10.439   6.214  1.00  0.00    -0.354 N 
HETATM   14  H   UNL     1      39.199 -10.128   6.875  1.00  0.00     0.162 HD
HETATM   15  O   UNL     1      38.427 -12.082   5.690  1.00  0.00    -0.264 OA
BRANCH  13  16
HETATM   16  C   UNL     1      41.257  -9.928   6.329  1.00  0.00     0.127 C 
BRANCH  16  17
HETATM   17  C   UNL     1      41.393  -8.920   7.470  1.00  0.00     0.058 C 
BRANCH  17  18
HETATM   18  C   UNL     1      41.549  -9.605   8.804  1.00  0.00    -0.054 A 
HETATM   19  C   UNL     1      42.635 -10.463   9.040  1.00  0.00     0.046 A 
HETATM   20  C   UNL     1      42.790 -11.137  10.264  1.00  0.00     0.102 A 
HETATM   21  C   UNL     1      41.829 -10.938  11.272  1.00  0.00     0.101 A 
HETATM   22  C   UNL     1      40.741 -10.089  11.026  1.00  0.00     0.040 A 
HETATM   23  C   UNL     1      40.599  -9.425   9.809  1.00  0.00     0.010 A 
BRANCH  20  24
HETATM   24  O   UNL     1      43.827 -11.996  10.514  1.00  0.00    -0.353 OA
HETATM   25  C   UNL     1      45.107 -11.448  10.798  1.00  0.00     0.210 C 
ENDBRANCH  20  24
BRANCH  21  26
HETATM   26  O   UNL     1      41.775 -11.491  12.526  1.00  0.00    -0.353 OA
HETATM   27  C   UNL     1      41.241 -10.720  13.590  1.00  0.00     0.210 C 
ENDBRANCH  21  26
ENDBRANCH  17  18
ENDBRANCH  16  17
ENDBRANCH  13  16
ENDBRANCH  10  12
ENDBRANCH   1  10
BRANCH   8  28
HETATM   28  C   UNL     1      41.366 -17.205   5.195  1.00  0.00     0.231 C 
BRANCH  28  29
HETATM   29  C   UNL     1      41.719 -17.660   3.787  1.00  0.00     0.238 C 
HETATM   30  N   UNL     1      42.944 -18.284   3.536  1.00  0.00    -0.351 N 
HETATM   31  C   UNL     1      43.224 -18.731   2.169  1.00  0.00     0.126 C 
HETATM   32  C   UNL     1      43.992 -18.537   4.531  1.00  0.00     0.126 C 
HETATM   33  C   UNL     1      43.475 -20.236   2.040  1.00  0.00     0.020 C 
HETATM   34  C   UNL     1      44.840 -20.659   2.582  1.00  0.00     0.002 C 
HETATM   35  C   UNL     1      44.896 -20.899   4.089  1.00  0.00     0.002 C 
HETATM   36  C   UNL     1      44.026 -19.999   4.964  1.00  0.00     0.020 C 
HETATM   37  O   UNL     1      40.905 -17.447   2.879  1.00  0.00    -0.272 OA
ENDBRANCH  28  29
ENDBRANCH   8  28
TORSDOF 9
ENDMDL
MODEL 10
REMARK VINA RESULT:      -8.2      4.044      6.630
REMARK  9 active torsions:
REMARK  status: ('A' for Active; 'I' for Inactive)
REMARK    1  A    between atoms: O_2  and  C_3 
REMARK    2  A    between atoms: C_4  and  O_5 
REMARK    3  A    between atoms: C_8  and  C_9 
REMARK    4  A    between atoms: C_9  and  C_10 
REMARK    5  A    between atoms: C_10  and  N_11 
REMARK       I    between atoms: N_11  and  C_12 
REMARK    6  A    between atoms: C_12  and  C_13 
REMARK    7  A    between atoms: C_13  and  C_14 
REMARK    8  A    between atoms: N_21  and  C_22 
REMARK    9  A    between atoms: C_22  and  C_23 
REMARK       I    between atoms: C_23  and  N_24 
ROOT
HETATM    1  C   UNL     1      40.251 -13.242   0.509  1.00  0.00     0.048 C 
HETATM    2  C   UNL     1      38.985 -12.616   0.262  1.00  0.00     0.006 A 
HETATM    3  C   UNL     1      38.510 -12.134   1.491  1.00  0.00     0.045 A 
HETATM    4  C   UNL     1      37.291 -11.444   1.605  1.00  0.00     0.030 A 
HETATM    5  C   UNL     1      36.524 -11.255   0.454  1.00  0.00     0.002 A 
HETATM    6  C   UNL     1      36.963 -11.727  -0.776  1.00  0.00     0.001 A 
HETATM    7  C   UNL     1      38.187 -12.400  -0.885  1.00  0.00     0.015 A 
HETATM    8  N   UNL     1      39.451 -12.455   2.446  1.00  0.00    -0.346 N 
HETATM    9  C   UNL     1      40.447 -13.199   1.880  1.00  0.00     0.108 C 
ENDROOT
BRANCH   1  10
HETATM   10  C   UNL     1      41.219 -13.850  -0.400  1.00  0.00     0.251 C 
HETATM   11  O   UNL     1      42.272 -13.283  -0.696  1.00  0.00    -0.281 OA
BRANCH  10  12
HETATM   12  C   UNL     1      40.964 -15.210  -1.054  1.00  0.00     0.292 C 
HETATM   13  N   UNL     1      41.376 -16.347  -0.388  1.00  0.00    -0.354 N 
HETATM   14  H   UNL     1      41.324 -17.179  -0.965  1.00  0.00     0.162 HD
HETATM   15  O   UNL     1      40.428 -15.281  -2.153  1.00  0.00    -0.264 OA
BRANCH  13  16
HETATM   16  C   UNL     1      42.217 -16.357   0.796  1.00  0.00     0.127 C 
BRANCH  16  17
HETATM   17  C   UNL     1      41.598 -17.174   1.930  1.00  0.00     0.058 C 
BRANCH  17  18
HETATM   18  C   UNL     1      42.576 -18.169   2.500  1.00  0.00    -0.054 A 
HETATM   19  C   UNL     1      43.267 -17.887   3.689  1.00  0.00     0.046 A 
HETATM   20  C   UNL     1      44.205 -18.785   4.228  1.00  0.00     0.102 A 
HETATM   21  C   UNL     1      44.451 -19.993   3.551  1.00  0.00     0.101 A 
HETATM   22  C   UNL     1      43.767 -20.264   2.357  1.00  0.00     0.040 A 
HETATM   23  C   UNL     1      42.837 -19.367   1.835  1.00  0.00     0.010 A 
BRANCH  20  24
HETATM   24  O   UNL     1      44.908 -18.526   5.374  1.00  0.00    -0.353 OA
HETATM   25  C   UNL     1      44.326 -18.883   6.621  1.00  0.00     0.210 C 
ENDBRANCH  20  24
BRANCH  21  26
HETATM   26  O   UNL     1      45.320 -21.000   3.884  1.00  0.00    -0.353 OA
HETATM   27  C   UNL     1      44.861 -22.049   4.722  1.00  0.00     0.210 C 
ENDBRANCH  21  26
ENDBRANCH  17  18
ENDBRANCH  16  17
ENDBRANCH  13  16
ENDBRANCH  10  12
ENDBRANCH   1  10
BRANCH   8  28
HETATM   28  C   UNL     1      39.385 -12.112   3.859  1.00  0.00     0.231 C 
BRANCH  28  29
HETATM   29  C   UNL     1      40.758 -12.095   4.513  1.00  0.00     0.238 C 
HETATM   30  N   UNL     1      41.110 -13.083   5.436  1.00  0.00    -0.351 N 
HETATM   31  C   UNL     1      42.455 -13.040   6.015  1.00  0.00     0.126 C 
HETATM   32  C   UNL     1      40.243 -14.179   5.884  1.00  0.00     0.126 C 
HETATM   33  C   UNL     1      43.297 -14.290   5.741  1.00  0.00     0.020 C 
HETATM   34  C   UNL     1      42.854 -15.497   6.566  1.00  0.00     0.002 C 
HETATM   35  C   UNL     1      41.692 -16.296   5.979  1.00  0.00     0.002 C 
HETATM   36  C   UNL     1      40.619 -15.507   5.233  1.00  0.00     0.020 C 
HETATM   37  O   UNL     1      41.537 -11.179   4.220  1.00  0.00    -0.272 OA
ENDBRANCH  28  29
ENDBRANCH   8  28
TORSDOF 9
ENDMDL
