MODEL 1
REMARK VINA RESULT:      -7.7      0.000      0.000
REMARK  6 active torsions:
REMARK  status: ('A' for Active; 'I' for Inactive)
REMARK    1  A    between atoms: C_2  and  O_3 
REMARK    2  A    between atoms: O_3  and  C_4 
REMARK    3  A    between atoms: C_13  and  C_14 
REMARK    4  A    between atoms: C_14  and  N_15 
REMARK    5  A    between atoms: N_15  and  C_16 
REMARK    6  A    between atoms: C_19  and  O_20 
ROOT
HETATM    1  C   UNL     1      44.127 -19.244   3.891  1.00  0.00     0.070 A 
HETATM    2  C   UNL     1      43.591 -17.996   4.223  1.00  0.00     0.067 A 
HETATM    3  C   UNL     1      43.085 -17.166   3.225  1.00  0.00     0.048 A 
HETATM    4  C   UNL     1      43.102 -17.567   1.887  1.00  0.00    -0.009 A 
HETATM    5  C   UNL     1      43.626 -18.818   1.555  1.00  0.00     0.016 A 
HETATM    6  C   UNL     1      44.136 -19.654   2.555  1.00  0.00     0.038 A 
HETATM    7  N   UNL     1      42.556 -15.912   3.555  1.00  0.00    -0.322 N 
HETATM    8  C   UNL     1      42.041 -15.038   2.634  1.00  0.00     0.253 A 
HETATM    9  O   UNL     1      41.571 -13.957   2.979  1.00  0.00    -0.268 OA
HETATM   10  C   UNL     1      42.077 -15.458   1.203  1.00  0.00     0.024 A 
HETATM   11  C   UNL     1      42.583 -16.658   0.867  1.00  0.00     0.027 A 
HETATM   12  H   UNL     1      42.525 -15.610   4.520  1.00  0.00     0.169 HD
ENDROOT
BRANCH  10  13
HETATM   13  C   UNL     1      41.590 -14.460   0.191  1.00  0.00     0.136 C 
BRANCH  13  14
HETATM   14  N   UNL     1      41.663 -15.064  -1.135  1.00  0.00    -0.289 NA
HETATM   15  H   UNL     1      42.111 -15.979  -1.093  1.00  0.00     0.128 HD
BRANCH  14  16
HETATM   16  C   UNL     1      40.509 -15.123  -1.929  1.00  0.00     0.008 A 
HETATM   17  C   UNL     1      39.423 -14.253  -1.797  1.00  0.00     0.026 A 
HETATM   18  C   UNL     1      38.340 -14.309  -2.684  1.00  0.00     0.038 A 
HETATM   19  C   UNL     1      38.330 -15.213  -3.746  1.00  0.00     0.068 A 
HETATM   20  C   UNL     1      39.419 -16.062  -3.913  1.00  0.00     0.038 A 
HETATM   21  C   UNL     1      40.498 -16.003  -3.020  1.00  0.00     0.026 A 
BRANCH  19  22
HETATM   22  O   UNL     1      37.218 -15.156  -4.539  1.00  0.00    -0.356 OA
HETATM   23  C   UNL     1      36.414 -13.990  -4.432  1.00  0.00     0.210 C 
ENDBRANCH  19  22
ENDBRANCH  14  16
ENDBRANCH  13  14
ENDBRANCH  10  13
BRANCH   1  24
HETATM   24  O   UNL     1      44.604 -19.961   4.953  1.00  0.00    -0.351 OA
BRANCH  24  25
HETATM   25  C   UNL     1      43.965 -19.758   6.214  1.00  0.00     0.171 C 
HETATM   26  C   UNL     1      43.740 -21.119   6.849  1.00  0.00     0.034 C 
ENDBRANCH  24  25
ENDBRANCH   1  24
TORSDOF 6
ENDMDL
MODEL 2
REMARK VINA RESULT:      -7.5      2.069      2.682
REMARK  6 active torsions:
REMARK  status: ('A' for Active; 'I' for Inactive)
REMARK    1  A    between atoms: C_2  and  O_3 
REMARK    2  A    between atoms: O_3  and  C_4 
REMARK    3  A    between atoms: C_13  and  C_14 
REMARK    4  A    between atoms: C_14  and  N_15 
REMARK    5  A    between atoms: N_15  and  C_16 
REMARK    6  A    between atoms: C_19  and  O_20 
ROOT
HETATM    1  C   UNL     1      44.484 -20.056   3.900  1.00  0.00     0.070 A 
HETATM    2  C   UNL     1      43.937 -18.863   4.380  1.00  0.00     0.067 A 
HETATM    3  C   UNL     1      43.103 -18.100   3.564  1.00  0.00     0.048 A 
HETATM    4  C   UNL     1      42.801 -18.517   2.265  1.00  0.00    -0.009 A 
HETATM    5  C   UNL     1      43.338 -19.715   1.789  1.00  0.00     0.016 A 
HETATM    6  C   UNL     1      44.177 -20.483   2.606  1.00  0.00     0.038 A 
HETATM    7  N   UNL     1      42.561 -16.901   4.039  1.00  0.00    -0.322 N 
HETATM    8  C   UNL     1      41.735 -16.094   3.301  1.00  0.00     0.253 A 
HETATM    9  O   UNL     1      41.271 -15.060   3.772  1.00  0.00    -0.268 OA
HETATM   10  C   UNL     1      41.428 -16.529   1.907  1.00  0.00     0.024 A 
HETATM   11  C   UNL     1      41.941 -17.678   1.433  1.00  0.00     0.027 A 
HETATM   12  H   UNL     1      42.760 -16.589   4.981  1.00  0.00     0.169 HD
ENDROOT
BRANCH  10  13
HETATM   13  C   UNL     1      40.593 -15.598   1.075  1.00  0.00     0.136 C 
BRANCH  13  14
HETATM   14  N   UNL     1      40.704 -15.993  -0.325  1.00  0.00    -0.289 NA
HETATM   15  H   UNL     1      39.857 -16.466  -0.637  1.00  0.00     0.128 HD
BRANCH  14  16
HETATM   16  C   UNL     1      41.112 -15.048  -1.276  1.00  0.00     0.008 A 
HETATM   17  C   UNL     1      40.811 -15.128  -2.639  1.00  0.00     0.026 A 
HETATM   18  C   UNL     1      41.172 -14.100  -3.520  1.00  0.00     0.038 A 
HETATM   19  C   UNL     1      41.812 -12.952  -3.057  1.00  0.00     0.068 A 
HETATM   20  C   UNL     1      42.087 -12.839  -1.698  1.00  0.00     0.038 A 
HETATM   21  C   UNL     1      41.727 -13.872  -0.822  1.00  0.00     0.026 A 
BRANCH  19  22
HETATM   22  O   UNL     1      42.099 -12.025  -4.021  1.00  0.00    -0.356 OA
HETATM   23  C   UNL     1      42.461 -10.726  -3.573  1.00  0.00     0.210 C 
ENDBRANCH  19  22
ENDBRANCH  14  16
ENDBRANCH  13  14
ENDBRANCH  10  13
BRANCH   1  24
HETATM   24  O   UNL     1      45.296 -20.708   4.788  1.00  0.00    -0.351 OA
BRANCH  24  25
HETATM   25  C   UNL     1      44.779 -21.892   5.394  1.00  0.00     0.171 C 
HETATM   26  C   UNL     1      44.001 -21.483   6.633  1.00  0.00     0.034 C 
ENDBRANCH  24  25
ENDBRANCH   1  24
TORSDOF 6
ENDMDL
MODEL 3
REMARK VINA RESULT:      -7.4      2.876      3.387
REMARK  6 active torsions:
REMARK  status: ('A' for Active; 'I' for Inactive)
REMARK    1  A    between atoms: C_2  and  O_3 
REMARK    2  A    between atoms: O_3  and  C_4 
REMARK    3  A    between atoms: C_13  and  C_14 
REMARK    4  A    between atoms: C_14  and  N_15 
REMARK    5  A    between atoms: N_15  and  C_16 
REMARK    6  A    between atoms: C_19  and  O_20 
ROOT
HETATM    1  C   UNL     1      43.563 -19.016   3.705  1.00  0.00     0.070 A 
HETATM    2  C   UNL     1      42.393 -18.269   3.867  1.00  0.00     0.067 A 
HETATM    3  C   UNL     1      41.930 -17.464   2.827  1.00  0.00     0.048 A 
HETATM    4  C   UNL     1      42.622 -17.397   1.615  1.00  0.00    -0.009 A 
HETATM    5  C   UNL     1      43.784 -18.153   1.448  1.00  0.00     0.016 A 
HETATM    6  C   UNL     1      44.253 -18.960   2.491  1.00  0.00     0.038 A 
HETATM    7  N   UNL     1      40.763 -16.708   2.989  1.00  0.00    -0.322 N 
HETATM    8  C   UNL     1      40.244 -15.893   2.018  1.00  0.00     0.253 A 
HETATM    9  O   UNL     1      39.205 -15.265   2.206  1.00  0.00    -0.268 OA
HETATM   10  C   UNL     1      40.993 -15.806   0.731  1.00  0.00     0.024 A 
HETATM   11  C   UNL     1      42.117 -16.524   0.557  1.00  0.00     0.027 A 
HETATM   12  H   UNL     1      40.244 -16.753   3.856  1.00  0.00     0.169 HD
ENDROOT
BRANCH  10  13
HETATM   13  C   UNL     1      40.465 -14.847  -0.297  1.00  0.00     0.136 C 
BRANCH  13  14
HETATM   14  N   UNL     1      41.365 -14.848  -1.446  1.00  0.00    -0.289 NA
HETATM   15  H   UNL     1      41.004 -15.447  -2.188  1.00  0.00     0.128 HD
BRANCH  14  16
HETATM   16  C   UNL     1      41.807 -13.628  -1.976  1.00  0.00     0.008 A 
HETATM   17  C   UNL     1      41.717 -13.283  -3.327  1.00  0.00     0.026 A 
HETATM   18  C   UNL     1      42.094 -12.010  -3.774  1.00  0.00     0.038 A 
HETATM   19  C   UNL     1      42.538 -11.039  -2.878  1.00  0.00     0.068 A 
HETATM   20  C   UNL     1      42.600 -11.353  -1.525  1.00  0.00     0.038 A 
HETATM   21  C   UNL     1      42.224 -12.630  -1.083  1.00  0.00     0.026 A 
BRANCH  19  22
HETATM   22  O   UNL     1      42.864  -9.839  -3.446  1.00  0.00    -0.356 OA
HETATM   23  C   UNL     1      42.381  -9.600  -4.761  1.00  0.00     0.210 C 
ENDBRANCH  19  22
ENDBRANCH  14  16
ENDBRANCH  13  14
ENDBRANCH  10  13
BRANCH   1  24
HETATM   24  O   UNL     1      43.923 -19.755   4.799  1.00  0.00    -0.351 OA
BRANCH  24  25
HETATM   25  C   UNL     1      45.057 -20.611   4.661  1.00  0.00     0.171 C 
HETATM   26  C   UNL     1      44.707 -21.955   5.275  1.00  0.00     0.034 C 
ENDBRANCH  24  25
ENDBRANCH   1  24
TORSDOF 6
ENDMDL
MODEL 4
REMARK VINA RESULT:      -7.3      2.636      3.112
REMARK  6 active torsions:
REMARK  status: ('A' for Active; 'I' for Inactive)
REMARK    1  A    between atoms: C_2  and  O_3 
REMARK    2  A    between atoms: O_3  and  C_4 
REMARK    3  A    between atoms: C_13  and  C_14 
REMARK    4  A    between atoms: C_14  and  N_15 
REMARK    5  A    between atoms: N_15  and  C_16 
REMARK    6  A    between atoms: C_19  and  O_20 
ROOT
HETATM    1  C   UNL     1      43.180 -18.811   5.438  1.00  0.00     0.070 A 
HETATM    2  C   UNL     1      42.034 -18.095   5.081  1.00  0.00     0.067 A 
HETATM    3  C   UNL     1      41.873 -17.644   3.772  1.00  0.00     0.048 A 
HETATM    4  C   UNL     1      42.845 -17.905   2.803  1.00  0.00    -0.009 A 
HETATM    5  C   UNL     1      43.985 -18.631   3.156  1.00  0.00     0.016 A 
HETATM    6  C   UNL     1      44.150 -19.083   4.470  1.00  0.00     0.038 A 
HETATM    7  N   UNL     1      40.730 -16.919   3.414  1.00  0.00    -0.322 N 
HETATM    8  C   UNL     1      40.498 -16.441   2.151  1.00  0.00     0.253 A 
HETATM    9  O   UNL     1      39.469 -15.826   1.885  1.00  0.00    -0.268 OA
HETATM   10  C   UNL     1      41.545 -16.702   1.121  1.00  0.00     0.024 A 
HETATM   11  C   UNL     1      42.650 -17.396   1.447  1.00  0.00     0.027 A 
HETATM   12  H   UNL     1      40.011 -16.731   4.100  1.00  0.00     0.169 HD
ENDROOT
BRANCH  10  13
HETATM   13  C   UNL     1      41.324 -16.102  -0.238  1.00  0.00     0.136 C 
BRANCH  13  14
HETATM   14  N   UNL     1      41.166 -14.659  -0.094  1.00  0.00    -0.289 NA
HETATM   15  H   UNL     1      41.653 -14.322   0.736  1.00  0.00     0.128 HD
BRANCH  14  16
HETATM   16  C   UNL     1      41.434 -13.825  -1.188  1.00  0.00     0.008 A 
HETATM   17  C   UNL     1      42.226 -12.675  -1.121  1.00  0.00     0.026 A 
HETATM   18  C   UNL     1      42.529 -11.938  -2.272  1.00  0.00     0.038 A 
HETATM   19  C   UNL     1      42.078 -12.349  -3.526  1.00  0.00     0.068 A 
HETATM   20  C   UNL     1      41.319 -13.511  -3.616  1.00  0.00     0.038 A 
HETATM   21  C   UNL     1      41.016 -14.243  -2.460  1.00  0.00     0.026 A 
BRANCH  19  22
HETATM   22  O   UNL     1      42.453 -11.544  -4.565  1.00  0.00    -0.356 OA
HETATM   23  C   UNL     1      42.490 -10.146  -4.311  1.00  0.00     0.210 C 
ENDBRANCH  19  22
ENDBRANCH  14  16
ENDBRANCH  13  14
ENDBRANCH  10  13
BRANCH   1  24
HETATM   24  O   UNL     1      43.231 -19.187   6.752  1.00  0.00    -0.351 OA
BRANCH  24  25
HETATM   25  C   UNL     1      44.182 -18.522   7.583  1.00  0.00     0.171 C 
HETATM   26  C   UNL     1      43.462 -17.410   8.324  1.00  0.00     0.034 C 
ENDBRANCH  24  25
ENDBRANCH   1  24
TORSDOF 6
ENDMDL
MODEL 5
REMARK VINA RESULT:      -7.3      5.660      9.630
REMARK  6 active torsions:
REMARK  status: ('A' for Active; 'I' for Inactive)
REMARK    1  A    between atoms: C_2  and  O_3 
REMARK    2  A    between atoms: O_3  and  C_4 
REMARK    3  A    between atoms: C_13  and  C_14 
REMARK    4  A    between atoms: C_14  and  N_15 
REMARK    5  A    between atoms: N_15  and  C_16 
REMARK    6  A    between atoms: C_19  and  O_20 
ROOT
HETATM    1  C   UNL     1      44.245 -19.440   4.635  1.00  0.00     0.070 A 
HETATM    2  C   UNL     1      43.759 -18.298   3.993  1.00  0.00     0.067 A 
HETATM    3  C   UNL     1      43.735 -17.077   4.666  1.00  0.00     0.048 A 
HETATM    4  C   UNL     1      44.197 -16.978   5.981  1.00  0.00    -0.009 A 
HETATM    5  C   UNL     1      44.693 -18.117   6.619  1.00  0.00     0.016 A 
HETATM    6  C   UNL     1      44.717 -19.344   5.947  1.00  0.00     0.038 A 
HETATM    7  N   UNL     1      43.241 -15.933   4.028  1.00  0.00    -0.322 N 
HETATM    8  C   UNL     1      43.181 -14.699   4.619  1.00  0.00     0.253 A 
HETATM    9  O   UNL     1      42.756 -13.722   4.008  1.00  0.00    -0.268 OA
HETATM   10  C   UNL     1      43.656 -14.596   6.030  1.00  0.00     0.024 A 
HETATM   11  C   UNL     1      44.133 -15.685   6.660  1.00  0.00     0.027 A 
HETATM   12  H   UNL     1      42.913 -15.984   3.072  1.00  0.00     0.169 HD
ENDROOT
BRANCH  10  13
HETATM   13  C   UNL     1      43.509 -13.260   6.700  1.00  0.00     0.136 C 
BRANCH  13  14
HETATM   14  N   UNL     1      44.597 -13.094   7.658  1.00  0.00    -0.289 NA
HETATM   15  H   UNL     1      45.478 -12.913   7.179  1.00  0.00     0.128 HD
BRANCH  14  16
HETATM   16  C   UNL     1      44.437 -12.209   8.733  1.00  0.00     0.008 A 
HETATM   17  C   UNL     1      43.335 -11.366   8.896  1.00  0.00     0.026 A 
HETATM   18  C   UNL     1      43.195 -10.573  10.042  1.00  0.00     0.038 A 
HETATM   19  C   UNL     1      44.135 -10.626  11.070  1.00  0.00     0.068 A 
HETATM   20  C   UNL     1      45.221 -11.486  10.940  1.00  0.00     0.038 A 
HETATM   21  C   UNL     1      45.357 -12.276   9.790  1.00  0.00     0.026 A 
BRANCH  19  22
HETATM   22  O   UNL     1      43.873  -9.808  12.133  1.00  0.00    -0.356 OA
HETATM   23  C   UNL     1      42.822  -8.866  11.973  1.00  0.00     0.210 C 
ENDBRANCH  19  22
ENDBRANCH  14  16
ENDBRANCH  13  14
ENDBRANCH  10  13
BRANCH   1  24
HETATM   24  O   UNL     1      44.205 -20.579   3.879  1.00  0.00    -0.351 OA
BRANCH  24  25
HETATM   25  C   UNL     1      44.297 -20.423   2.463  1.00  0.00     0.171 C 
HETATM   26  C   UNL     1      44.058 -21.780   1.825  1.00  0.00     0.034 C 
ENDBRANCH  24  25
ENDBRANCH   1  24
TORSDOF 6
ENDMDL
MODEL 6
REMARK VINA RESULT:      -7.3      6.318      9.872
REMARK  6 active torsions:
REMARK  status: ('A' for Active; 'I' for Inactive)
REMARK    1  A    between atoms: C_2  and  O_3 
REMARK    2  A    between atoms: O_3  and  C_4 
REMARK    3  A    between atoms: C_13  and  C_14 
REMARK    4  A    between atoms: C_14  and  N_15 
REMARK    5  A    between atoms: N_15  and  C_16 
REMARK    6  A    between atoms: C_19  and  O_20 
ROOT
HETATM    1  C   UNL     1      43.916 -10.323  10.739  1.00  0.00     0.070 A 
HETATM    2  C   UNL     1      43.033 -10.525   9.674  1.00  0.00     0.067 A 
HETATM    3  C   UNL     1      43.306 -11.501   8.718  1.00  0.00     0.048 A 
HETATM    4  C   UNL     1      44.455 -12.290   8.811  1.00  0.00    -0.009 A 
HETATM    5  C   UNL     1      45.331 -12.097   9.881  1.00  0.00     0.016 A 
HETATM    6  C   UNL     1      45.061 -11.117  10.842  1.00  0.00     0.038 A 
HETATM    7  N   UNL     1      42.427 -11.700   7.646  1.00  0.00    -0.322 N 
HETATM    8  C   UNL     1      42.624 -12.635   6.665  1.00  0.00     0.253 A 
HETATM    9  O   UNL     1      41.812 -12.782   5.755  1.00  0.00    -0.268 OA
HETATM   10  C   UNL     1      43.861 -13.465   6.753  1.00  0.00     0.024 A 
HETATM   11  C   UNL     1      44.717 -13.288   7.776  1.00  0.00     0.027 A 
HETATM   12  H   UNL     1      41.585 -11.145   7.568  1.00  0.00     0.169 HD
ENDROOT
BRANCH  10  13
HETATM   13  C   UNL     1      44.113 -14.429   5.630  1.00  0.00     0.136 C 
BRANCH  13  14
HETATM   14  N   UNL     1      43.137 -15.511   5.713  1.00  0.00    -0.289 NA
HETATM   15  H   UNL     1      42.307 -15.294   5.162  1.00  0.00     0.128 HD
BRANCH  14  16
HETATM   16  C   UNL     1      43.549 -16.829   5.473  1.00  0.00     0.008 A 
HETATM   17  C   UNL     1      43.128 -17.595   4.383  1.00  0.00     0.026 A 
HETATM   18  C   UNL     1      43.650 -18.874   4.153  1.00  0.00     0.038 A 
HETATM   19  C   UNL     1      44.632 -19.407   4.987  1.00  0.00     0.068 A 
HETATM   20  C   UNL     1      45.089 -18.644   6.056  1.00  0.00     0.038 A 
HETATM   21  C   UNL     1      44.560 -17.366   6.283  1.00  0.00     0.026 A 
BRANCH  19  22
HETATM   22  O   UNL     1      45.060 -20.659   4.644  1.00  0.00    -0.356 OA
HETATM   23  C   UNL     1      44.662 -21.727   5.493  1.00  0.00     0.210 C 
ENDBRANCH  19  22
ENDBRANCH  14  16
ENDBRANCH  13  14
ENDBRANCH  10  13
BRANCH   1  24
HETATM   24  O   UNL     1      43.548  -9.329  11.604  1.00  0.00    -0.351 OA
BRANCH  24  25
HETATM   25  C   UNL     1      42.375  -9.549  12.387  1.00  0.00     0.171 C 
HETATM   26  C   UNL     1      42.792 -10.245  13.671  1.00  0.00     0.034 C 
ENDBRANCH  24  25
ENDBRANCH   1  24
TORSDOF 6
ENDMDL
MODEL 7
REMARK VINA RESULT:      -7.2      3.858      7.991
REMARK  6 active torsions:
REMARK  status: ('A' for Active; 'I' for Inactive)
REMARK    1  A    between atoms: C_2  and  O_3 
REMARK    2  A    between atoms: O_3  and  C_4 
REMARK    3  A    between atoms: C_13  and  C_14 
REMARK    4  A    between atoms: C_14  and  N_15 
REMARK    5  A    between atoms: N_15  and  C_16 
REMARK    6  A    between atoms: C_19  and  O_20 
ROOT
HETATM    1  C   UNL     1      40.135 -12.562   6.083  1.00  0.00     0.070 A 
HETATM    2  C   UNL     1      39.539 -13.496   5.230  1.00  0.00     0.067 A 
HETATM    3  C   UNL     1      40.319 -14.203   4.316  1.00  0.00     0.048 A 
HETATM    4  C   UNL     1      41.699 -13.992   4.243  1.00  0.00    -0.009 A 
HETATM    5  C   UNL     1      42.296 -13.068   5.103  1.00  0.00     0.016 A 
HETATM    6  C   UNL     1      41.515 -12.356   6.020  1.00  0.00     0.038 A 
HETATM    7  N   UNL     1      39.724 -15.133   3.455  1.00  0.00    -0.322 N 
HETATM    8  C   UNL     1      40.419 -15.865   2.529  1.00  0.00     0.253 A 
HETATM    9  O   UNL     1      39.851 -16.682   1.810  1.00  0.00    -0.268 OA
HETATM   10  C   UNL     1      41.889 -15.627   2.437  1.00  0.00     0.024 A 
HETATM   11  C   UNL     1      42.478 -14.736   3.255  1.00  0.00     0.027 A 
HETATM   12  H   UNL     1      38.728 -15.306   3.502  1.00  0.00     0.169 HD
ENDROOT
BRANCH  10  13
HETATM   13  C   UNL     1      42.630 -16.370   1.363  1.00  0.00     0.136 C 
BRANCH  13  14
HETATM   14  N   UNL     1      42.348 -17.795   1.499  1.00  0.00    -0.289 NA
HETATM   15  H   UNL     1      42.253 -18.234   0.584  1.00  0.00     0.128 HD
BRANCH  14  16
HETATM   16  C   UNL     1      43.155 -18.580   2.334  1.00  0.00     0.008 A 
HETATM   17  C   UNL     1      43.519 -18.220   3.634  1.00  0.00     0.026 A 
HETATM   18  C   UNL     1      44.251 -19.093   4.448  1.00  0.00     0.038 A 
HETATM   19  C   UNL     1      44.609 -20.363   3.996  1.00  0.00     0.068 A 
HETATM   20  C   UNL     1      44.224 -20.752   2.717  1.00  0.00     0.038 A 
HETATM   21  C   UNL     1      43.494 -19.872   1.907  1.00  0.00     0.026 A 
BRANCH  19  22
HETATM   22  O   UNL     1      45.314 -21.116   4.894  1.00  0.00    -0.356 OA
HETATM   23  C   UNL     1      44.993 -22.498   4.962  1.00  0.00     0.210 C 
ENDBRANCH  19  22
ENDBRANCH  14  16
ENDBRANCH  13  14
ENDBRANCH  10  13
BRANCH   1  24
HETATM   24  O   UNL     1      39.266 -11.924   6.924  1.00  0.00    -0.351 OA
BRANCH  24  25
HETATM   25  C   UNL     1      39.783 -10.836   7.690  1.00  0.00     0.171 C 
HETATM   26  C   UNL     1      39.410 -11.067   9.144  1.00  0.00     0.034 C 
ENDBRANCH  24  25
ENDBRANCH   1  24
TORSDOF 6
ENDMDL
MODEL 8
REMARK VINA RESULT:      -7.0      1.917      8.135
REMARK  6 active torsions:
REMARK  status: ('A' for Active; 'I' for Inactive)
REMARK    1  A    between atoms: C_2  and  O_3 
REMARK    2  A    between atoms: O_3  and  C_4 
REMARK    3  A    between atoms: C_13  and  C_14 
REMARK    4  A    between atoms: C_14  and  N_15 
REMARK    5  A    between atoms: N_15  and  C_16 
REMARK    6  A    between atoms: C_19  and  O_20 
ROOT
HETATM    1  C   UNL     1      39.003 -13.908  -0.992  1.00  0.00     0.070 A 
HETATM    2  C   UNL     1      38.704 -14.013   0.370  1.00  0.00     0.067 A 
HETATM    3  C   UNL     1      39.715 -14.296   1.286  1.00  0.00     0.048 A 
HETATM    4  C   UNL     1      41.034 -14.473   0.860  1.00  0.00    -0.009 A 
HETATM    5  C   UNL     1      41.335 -14.357  -0.499  1.00  0.00     0.016 A 
HETATM    6  C   UNL     1      40.322 -14.075  -1.421  1.00  0.00     0.038 A 
HETATM    7  N   UNL     1      39.417 -14.409   2.649  1.00  0.00    -0.322 N 
HETATM    8  C   UNL     1      40.352 -14.687   3.611  1.00  0.00     0.253 A 
HETATM    9  O   UNL     1      40.041 -14.757   4.797  1.00  0.00    -0.268 OA
HETATM   10  C   UNL     1      41.757 -14.896   3.155  1.00  0.00     0.024 A 
HETATM   11  C   UNL     1      42.062 -14.791   1.849  1.00  0.00     0.027 A 
HETATM   12  H   UNL     1      38.469 -14.273   2.976  1.00  0.00     0.169 HD
ENDROOT
BRANCH  10  13
HETATM   13  C   UNL     1      42.760 -15.283   4.203  1.00  0.00     0.136 C 
BRANCH  13  14
HETATM   14  N   UNL     1      42.431 -16.615   4.699  1.00  0.00    -0.289 NA
HETATM   15  H   UNL     1      41.422 -16.763   4.699  1.00  0.00     0.128 HD
BRANCH  14  16
HETATM   16  C   UNL     1      43.087 -17.731   4.161  1.00  0.00     0.008 A 
HETATM   17  C   UNL     1      44.035 -18.490   4.852  1.00  0.00     0.026 A 
HETATM   18  C   UNL     1      44.584 -19.648   4.288  1.00  0.00     0.038 A 
HETATM   19  C   UNL     1      44.175 -20.096   3.033  1.00  0.00     0.068 A 
HETATM   20  C   UNL     1      43.206 -19.372   2.346  1.00  0.00     0.038 A 
HETATM   21  C   UNL     1      42.662 -18.213   2.914  1.00  0.00     0.026 A 
BRANCH  19  22
HETATM   22  O   UNL     1      44.784 -21.243   2.605  1.00  0.00    -0.356 OA
HETATM   23  C   UNL     1      44.138 -21.961   1.562  1.00  0.00     0.210 C 
ENDBRANCH  19  22
ENDBRANCH  14  16
ENDBRANCH  13  14
ENDBRANCH  10  13
BRANCH   1  24
HETATM   24  O   UNL     1      37.926 -13.641  -1.793  1.00  0.00    -0.351 OA
BRANCH  24  25
HETATM   25  C   UNL     1      38.090 -13.853  -3.195  1.00  0.00     0.171 C 
HETATM   26  C   UNL     1      37.439 -15.179  -3.548  1.00  0.00     0.034 C 
ENDBRANCH  24  25
ENDBRANCH   1  24
TORSDOF 6
ENDMDL
MODEL 9
REMARK VINA RESULT:      -7.0      3.357      5.619
REMARK  6 active torsions:
REMARK  status: ('A' for Active; 'I' for Inactive)
REMARK    1  A    between atoms: C_2  and  O_3 
REMARK    2  A    between atoms: O_3  and  C_4 
REMARK    3  A    between atoms: C_13  and  C_14 
REMARK    4  A    between atoms: C_14  and  N_15 
REMARK    5  A    between atoms: N_15  and  C_16 
REMARK    6  A    between atoms: C_19  and  O_20 
ROOT
HETATM    1  C   UNL     1      43.880 -19.078   2.763  1.00  0.00     0.070 A 
HETATM    2  C   UNL     1      43.670 -18.369   1.576  1.00  0.00     0.067 A 
HETATM    3  C   UNL     1      42.655 -17.417   1.503  1.00  0.00     0.048 A 
HETATM    4  C   UNL     1      41.841 -17.156   2.609  1.00  0.00    -0.009 A 
HETATM    5  C   UNL     1      42.058 -17.856   3.798  1.00  0.00     0.016 A 
HETATM    6  C   UNL     1      43.076 -18.813   3.874  1.00  0.00     0.038 A 
HETATM    7  N   UNL     1      42.437 -16.712   0.314  1.00  0.00    -0.322 N 
HETATM    8  C   UNL     1      41.460 -15.763   0.160  1.00  0.00     0.253 A 
HETATM    9  O   UNL     1      41.323 -15.159  -0.900  1.00  0.00    -0.268 OA
HETATM   10  C   UNL     1      40.578 -15.498   1.334  1.00  0.00     0.024 A 
HETATM   11  C   UNL     1      40.772 -16.167   2.485  1.00  0.00     0.027 A 
HETATM   12  H   UNL     1      43.024 -16.880  -0.493  1.00  0.00     0.169 HD
ENDROOT
BRANCH  10  13
HETATM   13  C   UNL     1      39.457 -14.519   1.133  1.00  0.00     0.136 C 
BRANCH  13  14
HETATM   14  N   UNL     1      39.990 -13.166   1.244  1.00  0.00    -0.289 NA
HETATM   15  H   UNL     1      39.770 -12.620   0.412  1.00  0.00     0.128 HD
BRANCH  14  16
HETATM   16  C   UNL     1      39.732 -12.417   2.400  1.00  0.00     0.008 A 
HETATM   17  C   UNL     1      38.578 -11.654   2.597  1.00  0.00     0.026 A 
HETATM   18  C   UNL     1      38.340 -11.003   3.814  1.00  0.00     0.038 A 
HETATM   19  C   UNL     1      39.232 -11.126   4.878  1.00  0.00     0.068 A 
HETATM   20  C   UNL     1      40.369 -11.911   4.712  1.00  0.00     0.038 A 
HETATM   21  C   UNL     1      40.602 -12.557   3.491  1.00  0.00     0.026 A 
BRANCH  19  22
HETATM   22  O   UNL     1      38.875 -10.447   6.010  1.00  0.00    -0.356 OA
HETATM   23  C   UNL     1      39.301  -9.095   6.107  1.00  0.00     0.210 C 
ENDBRANCH  19  22
ENDBRANCH  14  16
ENDBRANCH  13  14
ENDBRANCH  10  13
BRANCH   1  24
HETATM   24  O   UNL     1      44.895 -19.993   2.707  1.00  0.00    -0.351 OA
BRANCH  24  25
HETATM   25  C   UNL     1      44.551 -21.360   2.931  1.00  0.00     0.171 C 
HETATM   26  C   UNL     1      43.913 -21.897   1.662  1.00  0.00     0.034 C 
ENDBRANCH  24  25
ENDBRANCH   1  24
TORSDOF 6
ENDMDL
MODEL 10
REMARK VINA RESULT:      -7.0      2.471      2.820
REMARK  6 active torsions:
REMARK  status: ('A' for Active; 'I' for Inactive)
REMARK    1  A    between atoms: C_2  and  O_3 
REMARK    2  A    between atoms: O_3  and  C_4 
REMARK    3  A    between atoms: C_13  and  C_14 
REMARK    4  A    between atoms: C_14  and  N_15 
REMARK    5  A    between atoms: N_15  and  C_16 
REMARK    6  A    between atoms: C_19  and  O_20 
ROOT
HETATM    1  C   UNL     1      44.193 -19.717   3.406  1.00  0.00     0.070 A 
HETATM    2  C   UNL     1      43.748 -18.835   4.395  1.00  0.00     0.067 A 
HETATM    3  C   UNL     1      42.785 -17.874   4.090  1.00  0.00     0.048 A 
HETATM    4  C   UNL     1      42.252 -17.783   2.801  1.00  0.00    -0.009 A 
HETATM    5  C   UNL     1      42.688 -18.673   1.816  1.00  0.00     0.016 A 
HETATM    6  C   UNL     1      43.655 -19.637   2.119  1.00  0.00     0.038 A 
HETATM    7  N   UNL     1      42.344 -16.984   5.075  1.00  0.00    -0.322 N 
HETATM    8  C   UNL     1      41.404 -16.011   4.856  1.00  0.00     0.253 A 
HETATM    9  O   UNL     1      41.037 -15.267   5.761  1.00  0.00    -0.268 OA
HETATM   10  C   UNL     1      40.848 -15.901   3.476  1.00  0.00     0.024 A 
HETATM   11  C   UNL     1      41.261 -16.747   2.515  1.00  0.00     0.027 A 
HETATM   12  H   UNL     1      42.711 -17.042   6.016  1.00  0.00     0.169 HD
ENDROOT
BRANCH  10  13
HETATM   13  C   UNL     1      39.882 -14.780   3.221  1.00  0.00     0.136 C 
BRANCH  13  14
HETATM   14  N   UNL     1      38.931 -15.203   2.199  1.00  0.00    -0.289 NA
HETATM   15  H   UNL     1      38.038 -15.461   2.618  1.00  0.00     0.128 HD
BRANCH  14  16
HETATM   16  C   UNL     1      38.724 -14.394   1.073  1.00  0.00     0.008 A 
HETATM   17  C   UNL     1      37.552 -13.672   0.832  1.00  0.00     0.026 A 
HETATM   18  C   UNL     1      37.447 -12.810  -0.267  1.00  0.00     0.038 A 
HETATM   19  C   UNL     1      38.522 -12.621  -1.133  1.00  0.00     0.068 A 
HETATM   20  C   UNL     1      39.709 -13.304  -0.888  1.00  0.00     0.038 A 
HETATM   21  C   UNL     1      39.807 -14.167   0.211  1.00  0.00     0.026 A 
BRANCH  19  22
HETATM   22  O   UNL     1      38.288 -11.746  -2.158  1.00  0.00    -0.356 OA
HETATM   23  C   UNL     1      36.957 -11.678  -2.651  1.00  0.00     0.210 C 
ENDBRANCH  19  22
ENDBRANCH  14  16
ENDBRANCH  13  14
ENDBRANCH  10  13
BRANCH   1  24
HETATM   24  O   UNL     1      45.148 -20.604   3.823  1.00  0.00    -0.351 OA
BRANCH  24  25
HETATM   25  C   UNL     1      44.772 -21.980   3.893  1.00  0.00     0.171 C 
HETATM   26  C   UNL     1      45.136 -22.496   5.274  1.00  0.00     0.034 C 
ENDBRANCH  24  25
ENDBRANCH   1  24
TORSDOF 6
ENDMDL
