MODEL 1
REMARK VINA RESULT:      -8.9      0.000      0.000
REMARK  4 active torsions:
REMARK  status: ('A' for Active; 'I' for Inactive)
REMARK    1  A    between atoms: C_6  and  C_7 
REMARK    2  A    between atoms: C_10  and  O_11 
REMARK    3  A    between atoms: C_15  and  C_16 
REMARK       I    between atoms: C_16  and  N_17 
REMARK    4  A    between atoms: N_17  and  C_18 
ROOT
HETATM    1  C   UNL     1      41.145 -14.105   0.292  1.00  0.00     0.001 A 
HETATM    2  C   UNL     1      41.903 -14.228   1.455  1.00  0.00     0.015 A 
HETATM    3  C   UNL     1      42.479 -15.471   1.826  1.00  0.00     0.008 A 
HETATM    4  C   UNL     1      42.238 -16.598   1.022  1.00  0.00     0.068 A 
HETATM    5  N   UNL     1      42.696 -17.825   1.324  1.00  0.00    -0.248 NA
HETATM    6  C   UNL     1      43.399 -18.029   2.466  1.00  0.00     0.068 A 
HETATM    7  C   UNL     1      43.714 -16.977   3.306  1.00  0.00     0.050 A 
HETATM    8  C   UNL     1      43.272 -15.695   2.972  1.00  0.00     0.046 A 
HETATM    9  C   UNL     1      41.486 -16.448  -0.135  1.00  0.00     0.032 A 
HETATM   10  C   UNL     1      40.942 -15.218  -0.510  1.00  0.00     0.002 A 
ENDROOT
BRANCH   6  11
HETATM   11  C   UNL     1      43.797 -19.429   2.733  1.00  0.00    -0.007 A 
HETATM   12  C   UNL     1      43.538 -20.442   1.786  1.00  0.00     0.016 A 
HETATM   13  C   UNL     1      43.892 -21.776   2.021  1.00  0.00     0.037 A 
HETATM   14  C   UNL     1      44.509 -22.116   3.216  1.00  0.00     0.065 A 
HETATM   15  C   UNL     1      44.778 -21.148   4.174  1.00  0.00     0.037 A 
HETATM   16  C   UNL     1      44.421 -19.816   3.934  1.00  0.00     0.016 A 
BRANCH  14  17
HETATM   17  O   UNL     1      44.865 -23.402   3.495  1.00  0.00    -0.361 OA
HETATM   18  H   UNL     1      45.357 -23.757   2.737  1.00  0.00     0.217 HD
ENDBRANCH  14  17
ENDBRANCH   6  11
BRANCH   8  19
HETATM   19  C   UNL     1      43.692 -14.610   3.887  1.00  0.00     0.253 C 
HETATM   20  N   UNL     1      43.576 -14.894   5.234  1.00  0.00    -0.352 N 
HETATM   21  H   UNL     1      43.165 -15.776   5.517  1.00  0.00     0.163 HD
HETATM   22  O   UNL     1      44.045 -13.532   3.427  1.00  0.00    -0.268 OA
BRANCH  20  23
HETATM   23  C   UNL     1      43.876 -13.930   6.243  1.00  0.00     0.084 A 
HETATM   24  C   UNL     1      44.301 -14.368   7.618  1.00  0.00     0.027 A 
HETATM   25  C   UNL     1      45.292 -13.716   6.699  1.00  0.00     0.027 A 
ENDBRANCH  20  23
ENDBRANCH   8  19
TORSDOF 4
ENDMDL
MODEL 2
REMARK VINA RESULT:      -8.7      1.816      4.716
REMARK  4 active torsions:
REMARK  status: ('A' for Active; 'I' for Inactive)
REMARK    1  A    between atoms: C_6  and  C_7 
REMARK    2  A    between atoms: C_10  and  O_11 
REMARK    3  A    between atoms: C_15  and  C_16 
REMARK       I    between atoms: C_16  and  N_17 
REMARK    4  A    between atoms: N_17  and  C_18 
ROOT
HETATM    1  C   UNL     1      42.468 -12.965   3.886  1.00  0.00     0.001 A 
HETATM    2  C   UNL     1      42.019 -13.744   2.821  1.00  0.00     0.015 A 
HETATM    3  C   UNL     1      42.289 -15.137   2.768  1.00  0.00     0.008 A 
HETATM    4  C   UNL     1      43.057 -15.719   3.790  1.00  0.00     0.068 A 
HETATM    5  N   UNL     1      43.407 -17.017   3.795  1.00  0.00    -0.248 NA
HETATM    6  C   UNL     1      43.049 -17.824   2.765  1.00  0.00     0.068 A 
HETATM    7  C   UNL     1      42.266 -17.351   1.728  1.00  0.00     0.050 A 
HETATM    8  C   UNL     1      41.867 -16.012   1.744  1.00  0.00     0.046 A 
HETATM    9  C   UNL     1      43.486 -14.923   4.843  1.00  0.00     0.032 A 
HETATM   10  C   UNL     1      43.197 -13.558   4.906  1.00  0.00     0.002 A 
ENDROOT
BRANCH   6  11
HETATM   11  C   UNL     1      43.544 -19.216   2.840  1.00  0.00    -0.007 A 
HETATM   12  C   UNL     1      43.226 -20.148   1.830  1.00  0.00     0.016 A 
HETATM   13  C   UNL     1      43.670 -21.473   1.885  1.00  0.00     0.037 A 
HETATM   14  C   UNL     1      44.440 -21.889   2.962  1.00  0.00     0.065 A 
HETATM   15  C   UNL     1      44.772 -21.003   3.977  1.00  0.00     0.037 A 
HETATM   16  C   UNL     1      44.324 -19.678   3.917  1.00  0.00     0.016 A 
BRANCH  14  17
HETATM   17  O   UNL     1      44.889 -23.171   3.065  1.00  0.00    -0.361 OA
HETATM   18  H   UNL     1      44.411 -23.609   3.788  1.00  0.00     0.217 HD
ENDBRANCH  14  17
ENDBRANCH   6  11
BRANCH   8  19
HETATM   19  C   UNL     1      40.986 -15.589   0.632  1.00  0.00     0.253 C 
HETATM   20  N   UNL     1      41.610 -15.439  -0.592  1.00  0.00    -0.352 N 
HETATM   21  H   UNL     1      42.613 -15.561  -0.651  1.00  0.00     0.163 HD
HETATM   22  O   UNL     1      39.809 -15.338   0.854  1.00  0.00    -0.268 OA
BRANCH  20  23
HETATM   23  C   UNL     1      40.912 -14.972  -1.747  1.00  0.00     0.084 A 
HETATM   24  C   UNL     1      41.633 -14.793  -3.056  1.00  0.00     0.027 A 
HETATM   25  C   UNL     1      40.631 -15.899  -2.897  1.00  0.00     0.027 A 
ENDBRANCH  20  23
ENDBRANCH   8  19
TORSDOF 4
ENDMDL
MODEL 3
REMARK VINA RESULT:      -8.3      1.223      1.818
REMARK  4 active torsions:
REMARK  status: ('A' for Active; 'I' for Inactive)
REMARK    1  A    between atoms: C_6  and  C_7 
REMARK    2  A    between atoms: C_10  and  O_11 
REMARK    3  A    between atoms: C_15  and  C_16 
REMARK       I    between atoms: C_16  and  N_17 
REMARK    4  A    between atoms: N_17  and  C_18 
ROOT
HETATM    1  C   UNL     1      41.002 -13.949  -0.155  1.00  0.00     0.001 A 
HETATM    2  C   UNL     1      41.647 -14.031   1.077  1.00  0.00     0.015 A 
HETATM    3  C   UNL     1      42.232 -15.247   1.518  1.00  0.00     0.008 A 
HETATM    4  C   UNL     1      42.116 -16.390   0.708  1.00  0.00     0.068 A 
HETATM    5  N   UNL     1      42.590 -17.594   1.069  1.00  0.00    -0.248 NA
HETATM    6  C   UNL     1      43.185 -17.760   2.276  1.00  0.00     0.068 A 
HETATM    7  C   UNL     1      43.375 -16.689   3.130  1.00  0.00     0.050 A 
HETATM    8  C   UNL     1      42.918 -15.429   2.739  1.00  0.00     0.046 A 
HETATM    9  C   UNL     1      41.475 -16.280  -0.518  1.00  0.00     0.032 A 
HETATM   10  C   UNL     1      40.923 -15.076  -0.960  1.00  0.00     0.002 A 
ENDROOT
BRANCH   6  11
HETATM   11  C   UNL     1      43.610 -19.141   2.597  1.00  0.00    -0.007 A 
HETATM   12  C   UNL     1      44.272 -19.426   3.810  1.00  0.00     0.016 A 
HETATM   13  C   UNL     1      44.696 -20.720   4.129  1.00  0.00     0.037 A 
HETATM   14  C   UNL     1      44.465 -21.754   3.232  1.00  0.00     0.065 A 
HETATM   15  C   UNL     1      43.820 -21.513   2.028  1.00  0.00     0.037 A 
HETATM   16  C   UNL     1      43.398 -20.216   1.712  1.00  0.00     0.016 A 
BRANCH  14  17
HETATM   17  O   UNL     1      44.867 -23.029   3.495  1.00  0.00    -0.361 OA
HETATM   18  H   UNL     1      45.766 -23.001   3.860  1.00  0.00     0.217 HD
ENDBRANCH  14  17
ENDBRANCH   6  11
BRANCH   8  19
HETATM   19  C   UNL     1      43.203 -14.320   3.678  1.00  0.00     0.253 C 
HETATM   20  N   UNL     1      42.154 -13.957   4.499  1.00  0.00    -0.352 N 
HETATM   21  H   UNL     1      41.256 -14.409   4.380  1.00  0.00     0.163 HD
HETATM   22  O   UNL     1      44.289 -13.756   3.637  1.00  0.00    -0.268 OA
BRANCH  20  23
HETATM   23  C   UNL     1      42.248 -12.863   5.412  1.00  0.00     0.084 A 
HETATM   24  C   UNL     1      41.557 -11.559   5.118  1.00  0.00     0.027 A 
HETATM   25  C   UNL     1      41.056 -12.440   6.225  1.00  0.00     0.027 A 
ENDBRANCH  20  23
ENDBRANCH   8  19
TORSDOF 4
ENDMDL
MODEL 4
REMARK VINA RESULT:      -8.2      1.614      4.495
REMARK  4 active torsions:
REMARK  status: ('A' for Active; 'I' for Inactive)
REMARK    1  A    between atoms: C_6  and  C_7 
REMARK    2  A    between atoms: C_10  and  O_11 
REMARK    3  A    between atoms: C_15  and  C_16 
REMARK       I    between atoms: C_16  and  N_17 
REMARK    4  A    between atoms: N_17  and  C_18 
ROOT
HETATM    1  C   UNL     1      43.177 -13.392   6.030  1.00  0.00     0.001 A 
HETATM    2  C   UNL     1      42.630 -13.959   4.881  1.00  0.00     0.015 A 
HETATM    3  C   UNL     1      42.827 -15.331   4.576  1.00  0.00     0.008 A 
HETATM    4  C   UNL     1      43.623 -16.110   5.433  1.00  0.00     0.068 A 
HETATM    5  N   UNL     1      43.909 -17.401   5.195  1.00  0.00    -0.248 NA
HETATM    6  C   UNL     1      43.452 -18.005   4.070  1.00  0.00     0.068 A 
HETATM    7  C   UNL     1      42.635 -17.331   3.181  1.00  0.00     0.050 A 
HETATM    8  C   UNL     1      42.304 -16.001   3.448  1.00  0.00     0.046 A 
HETATM    9  C   UNL     1      44.151 -15.523   6.575  1.00  0.00     0.032 A 
HETATM   10  C   UNL     1      43.934 -14.179   6.885  1.00  0.00     0.002 A 
ENDROOT
BRANCH   6  11
HETATM   11  C   UNL     1      43.881 -19.408   3.876  1.00  0.00    -0.007 A 
HETATM   12  C   UNL     1      43.796 -20.017   2.607  1.00  0.00     0.016 A 
HETATM   13  C   UNL     1      44.182 -21.346   2.401  1.00  0.00     0.037 A 
HETATM   14  C   UNL     1      44.658 -22.090   3.471  1.00  0.00     0.065 A 
HETATM   15  C   UNL     1      44.754 -21.527   4.736  1.00  0.00     0.037 A 
HETATM   16  C   UNL     1      44.366 -20.197   4.937  1.00  0.00     0.016 A 
BRANCH  14  17
HETATM   17  O   UNL     1      45.038 -23.390   3.323  1.00  0.00    -0.361 OA
HETATM   18  H   UNL     1      44.241 -23.937   3.241  1.00  0.00     0.217 HD
ENDBRANCH  14  17
ENDBRANCH   6  11
BRANCH   8  19
HETATM   19  C   UNL     1      41.383 -15.360   2.484  1.00  0.00     0.253 C 
HETATM   20  N   UNL     1      41.991 -14.691   1.439  1.00  0.00    -0.352 N 
HETATM   21  H   UNL     1      43.002 -14.623   1.421  1.00  0.00     0.163 HD
HETATM   22  O   UNL     1      40.175 -15.393   2.685  1.00  0.00    -0.268 OA
BRANCH  20  23
HETATM   23  C   UNL     1      41.243 -13.965   0.463  1.00  0.00     0.084 A 
HETATM   24  C   UNL     1      41.771 -13.796  -0.935  1.00  0.00     0.027 A 
HETATM   25  C   UNL     1      40.585 -14.681  -0.684  1.00  0.00     0.027 A 
ENDBRANCH  20  23
ENDBRANCH   8  19
TORSDOF 4
ENDMDL
MODEL 5
REMARK VINA RESULT:      -8.0      2.283      6.481
REMARK  4 active torsions:
REMARK  status: ('A' for Active; 'I' for Inactive)
REMARK    1  A    between atoms: C_6  and  C_7 
REMARK    2  A    between atoms: C_10  and  O_11 
REMARK    3  A    between atoms: C_15  and  C_16 
REMARK       I    between atoms: C_16  and  N_17 
REMARK    4  A    between atoms: N_17  and  C_18 
ROOT
HETATM    1  C   UNL     1      43.669 -21.333   1.760  1.00  0.00     0.001 A 
HETATM    2  C   UNL     1      42.987 -20.133   1.570  1.00  0.00     0.015 A 
HETATM    3  C   UNL     1      43.156 -19.045   2.465  1.00  0.00     0.008 A 
HETATM    4  C   UNL     1      43.994 -19.207   3.581  1.00  0.00     0.068 A 
HETATM    5  N   UNL     1      44.171 -18.252   4.510  1.00  0.00    -0.248 NA
HETATM    6  C   UNL     1      43.500 -17.077   4.417  1.00  0.00     0.068 A 
HETATM    7  C   UNL     1      42.676 -16.811   3.338  1.00  0.00     0.050 A 
HETATM    8  C   UNL     1      42.524 -17.788   2.352  1.00  0.00     0.046 A 
HETATM    9  C   UNL     1      44.668 -20.410   3.744  1.00  0.00     0.032 A 
HETATM   10  C   UNL     1      44.519 -21.470   2.847  1.00  0.00     0.002 A 
ENDROOT
BRANCH   6  11
HETATM   11  C   UNL     1      43.718 -16.124   5.528  1.00  0.00    -0.007 A 
HETATM   12  C   UNL     1      43.813 -14.739   5.279  1.00  0.00     0.016 A 
HETATM   13  C   UNL     1      44.033 -13.821   6.311  1.00  0.00     0.037 A 
HETATM   14  C   UNL     1      44.166 -14.278   7.614  1.00  0.00     0.065 A 
HETATM   15  C   UNL     1      44.082 -15.634   7.899  1.00  0.00     0.037 A 
HETATM   16  C   UNL     1      43.862 -16.549   6.863  1.00  0.00     0.016 A 
BRANCH  14  17
HETATM   17  O   UNL     1      44.390 -13.423   8.651  1.00  0.00    -0.361 OA
HETATM   18  H   UNL     1      43.565 -13.321   9.151  1.00  0.00     0.217 HD
ENDBRANCH  14  17
ENDBRANCH   6  11
BRANCH   8  19
HETATM   19  C   UNL     1      41.671 -17.413   1.201  1.00  0.00     0.253 C 
HETATM   20  N   UNL     1      42.073 -16.287   0.509  1.00  0.00    -0.352 N 
HETATM   21  H   UNL     1      42.867 -15.758   0.849  1.00  0.00     0.163 HD
HETATM   22  O   UNL     1      40.654 -18.053   0.967  1.00  0.00    -0.268 OA
BRANCH  20  23
HETATM   23  C   UNL     1      41.321 -15.758  -0.583  1.00  0.00     0.084 A 
HETATM   24  C   UNL     1      40.337 -14.641  -0.364  1.00  0.00     0.027 A 
HETATM   25  C   UNL     1      41.610 -14.383  -1.116  1.00  0.00     0.027 A 
ENDBRANCH  20  23
ENDBRANCH   8  19
TORSDOF 4
ENDMDL
MODEL 6
REMARK VINA RESULT:      -8.0      2.952      7.199
REMARK  4 active torsions:
REMARK  status: ('A' for Active; 'I' for Inactive)
REMARK    1  A    between atoms: C_6  and  C_7 
REMARK    2  A    between atoms: C_10  and  O_11 
REMARK    3  A    between atoms: C_15  and  C_16 
REMARK       I    between atoms: C_16  and  N_17 
REMARK    4  A    between atoms: N_17  and  C_18 
ROOT
HETATM    1  C   UNL     1      42.729 -17.755   6.590  1.00  0.00     0.001 A 
HETATM    2  C   UNL     1      43.005 -18.031   5.252  1.00  0.00     0.015 A 
HETATM    3  C   UNL     1      42.350 -17.325   4.209  1.00  0.00     0.008 A 
HETATM    4  C   UNL     1      41.381 -16.364   4.543  1.00  0.00     0.068 A 
HETATM    5  N   UNL     1      40.673 -15.687   3.623  1.00  0.00    -0.248 NA
HETATM    6  C   UNL     1      40.852 -15.940   2.302  1.00  0.00     0.068 A 
HETATM    7  C   UNL     1      41.806 -16.845   1.873  1.00  0.00     0.050 A 
HETATM    8  C   UNL     1      42.570 -17.519   2.828  1.00  0.00     0.046 A 
HETATM    9  C   UNL     1      41.130 -16.103   5.883  1.00  0.00     0.032 A 
HETATM   10  C   UNL     1      41.794 -16.782   6.907  1.00  0.00     0.002 A 
ENDROOT
BRANCH   6  11
HETATM   11  C   UNL     1      39.974 -15.186   1.380  1.00  0.00    -0.007 A 
HETATM   12  C   UNL     1      40.453 -14.748   0.128  1.00  0.00     0.016 A 
HETATM   13  C   UNL     1      39.647 -14.021  -0.755  1.00  0.00     0.037 A 
HETATM   14  C   UNL     1      38.342 -13.717  -0.392  1.00  0.00     0.065 A 
HETATM   15  C   UNL     1      37.835 -14.128   0.833  1.00  0.00     0.037 A 
HETATM   16  C   UNL     1      38.646 -14.854   1.712  1.00  0.00     0.016 A 
BRANCH  14  17
HETATM   17  O   UNL     1      37.521 -13.005  -1.214  1.00  0.00    -0.361 OA
HETATM   18  H   UNL     1      36.672 -12.872  -0.762  1.00  0.00     0.217 HD
ENDBRANCH  14  17
ENDBRANCH   6  11
BRANCH   8  19
HETATM   19  C   UNL     1      43.607 -18.431   2.295  1.00  0.00     0.253 C 
HETATM   20  N   UNL     1      43.455 -19.762   2.633  1.00  0.00    -0.352 N 
HETATM   21  H   UNL     1      42.703 -20.028   3.257  1.00  0.00     0.163 HD
HETATM   22  O   UNL     1      44.550 -17.973   1.663  1.00  0.00    -0.268 OA
BRANCH  20  23
HETATM   23  C   UNL     1      44.407 -20.756   2.254  1.00  0.00     0.084 A 
HETATM   24  C   UNL     1      44.408 -22.107   2.916  1.00  0.00     0.027 A 
HETATM   25  C   UNL     1      43.977 -21.973   1.484  1.00  0.00     0.027 A 
ENDBRANCH  20  23
ENDBRANCH   8  19
TORSDOF 4
ENDMDL
MODEL 7
REMARK VINA RESULT:      -8.0      2.391      5.877
REMARK  4 active torsions:
REMARK  status: ('A' for Active; 'I' for Inactive)
REMARK    1  A    between atoms: C_6  and  C_7 
REMARK    2  A    between atoms: C_10  and  O_11 
REMARK    3  A    between atoms: C_15  and  C_16 
REMARK       I    between atoms: C_16  and  N_17 
REMARK    4  A    between atoms: N_17  and  C_18 
ROOT
HETATM    1  C   UNL     1      44.518 -20.096   3.728  1.00  0.00     0.001 A 
HETATM    2  C   UNL     1      44.118 -18.925   4.369  1.00  0.00     0.015 A 
HETATM    3  C   UNL     1      43.158 -18.060   3.782  1.00  0.00     0.008 A 
HETATM    4  C   UNL     1      42.642 -18.379   2.514  1.00  0.00     0.068 A 
HETATM    5  N   UNL     1      41.772 -17.592   1.858  1.00  0.00    -0.248 NA
HETATM    6  C   UNL     1      41.376 -16.412   2.400  1.00  0.00     0.068 A 
HETATM    7  C   UNL     1      41.804 -16.026   3.657  1.00  0.00     0.050 A 
HETATM    8  C   UNL     1      42.677 -16.863   4.356  1.00  0.00     0.046 A 
HETATM    9  C   UNL     1      43.052 -19.554   1.899  1.00  0.00     0.032 A 
HETATM   10  C   UNL     1      43.977 -20.416   2.491  1.00  0.00     0.002 A 
ENDROOT
BRANCH   6  11
HETATM   11  C   UNL     1      40.469 -15.596   1.564  1.00  0.00    -0.007 A 
HETATM   12  C   UNL     1      40.882 -15.132   0.297  1.00  0.00     0.016 A 
HETATM   13  C   UNL     1      40.048 -14.346  -0.506  1.00  0.00     0.037 A 
HETATM   14  C   UNL     1      38.783 -14.008  -0.048  1.00  0.00     0.065 A 
HETATM   15  C   UNL     1      38.341 -14.443   1.194  1.00  0.00     0.037 A 
HETATM   16  C   UNL     1      39.180 -15.228   1.994  1.00  0.00     0.016 A 
BRANCH  14  17
HETATM   17  O   UNL     1      37.937 -13.238  -0.789  1.00  0.00    -0.361 OA
HETATM   18  H   UNL     1      37.293 -13.818  -1.224  1.00  0.00     0.217 HD
ENDBRANCH  14  17
ENDBRANCH   6  11
BRANCH   8  19
HETATM   19  C   UNL     1      43.050 -16.413   5.716  1.00  0.00     0.253 C 
HETATM   20  N   UNL     1      43.878 -15.309   5.767  1.00  0.00    -0.352 N 
HETATM   21  H   UNL     1      44.226 -14.915   4.901  1.00  0.00     0.163 HD
HETATM   22  O   UNL     1      42.677 -17.055   6.690  1.00  0.00    -0.268 OA
BRANCH  20  23
HETATM   23  C   UNL     1      44.381 -14.793   7.000  1.00  0.00     0.084 A 
HETATM   24  C   UNL     1      45.467 -13.751   7.007  1.00  0.00     0.027 A 
HETATM   25  C   UNL     1      44.072 -13.384   7.422  1.00  0.00     0.027 A 
ENDBRANCH  20  23
ENDBRANCH   8  19
TORSDOF 4
ENDMDL
MODEL 8
REMARK VINA RESULT:      -7.6      2.399      4.257
REMARK  4 active torsions:
REMARK  status: ('A' for Active; 'I' for Inactive)
REMARK    1  A    between atoms: C_6  and  C_7 
REMARK    2  A    between atoms: C_10  and  O_11 
REMARK    3  A    between atoms: C_15  and  C_16 
REMARK       I    between atoms: C_16  and  N_17 
REMARK    4  A    between atoms: N_17  and  C_18 
ROOT
HETATM    1  C   UNL     1      40.195 -13.816   4.520  1.00  0.00     0.001 A 
HETATM    2  C   UNL     1      40.647 -14.183   3.254  1.00  0.00     0.015 A 
HETATM    3  C   UNL     1      41.226 -15.459   3.025  1.00  0.00     0.008 A 
HETATM    4  C   UNL     1      41.378 -16.340   4.108  1.00  0.00     0.068 A 
HETATM    5  N   UNL     1      41.964 -17.545   3.996  1.00  0.00    -0.248 NA
HETATM    6  C   UNL     1      42.472 -17.948   2.805  1.00  0.00     0.068 A 
HETATM    7  C   UNL     1      42.343 -17.164   1.673  1.00  0.00     0.050 A 
HETATM    8  C   UNL     1      41.699 -15.929   1.781  1.00  0.00     0.046 A 
HETATM    9  C   UNL     1      40.913 -15.954   5.357  1.00  0.00     0.032 A 
HETATM   10  C   UNL     1      40.321 -14.708   5.575  1.00  0.00     0.002 A 
ENDROOT
BRANCH   6  11
HETATM   11  C   UNL     1      43.153 -19.261   2.810  1.00  0.00    -0.007 A 
HETATM   12  C   UNL     1      44.020 -19.618   3.864  1.00  0.00     0.016 A 
HETATM   13  C   UNL     1      44.687 -20.848   3.885  1.00  0.00     0.037 A 
HETATM   14  C   UNL     1      44.497 -21.743   2.842  1.00  0.00     0.065 A 
HETATM   15  C   UNL     1      43.653 -21.428   1.785  1.00  0.00     0.037 A 
HETATM   16  C   UNL     1      42.990 -20.196   1.769  1.00  0.00     0.016 A 
BRANCH  14  17
HETATM   17  O   UNL     1      45.130 -22.949   2.813  1.00  0.00    -0.361 OA
HETATM   18  H   UNL     1      45.765 -22.946   2.079  1.00  0.00     0.217 HD
ENDBRANCH  14  17
ENDBRANCH   6  11
BRANCH   8  19
HETATM   19  C   UNL     1      41.549 -15.169   0.519  1.00  0.00     0.253 C 
HETATM   20  N   UNL     1      41.854 -13.825   0.599  1.00  0.00    -0.352 N 
HETATM   21  H   UNL     1      42.097 -13.428   1.499  1.00  0.00     0.163 HD
HETATM   22  O   UNL     1      41.114 -15.731  -0.478  1.00  0.00    -0.268 OA
BRANCH  20  23
HETATM   23  C   UNL     1      41.696 -12.942  -0.512  1.00  0.00     0.084 A 
HETATM   24  C   UNL     1      41.065 -11.589  -0.331  1.00  0.00     0.027 A 
HETATM   25  C   UNL     1      42.533 -11.698  -0.626  1.00  0.00     0.027 A 
ENDBRANCH  20  23
ENDBRANCH   8  19
TORSDOF 4
ENDMDL
MODEL 9
REMARK VINA RESULT:      -7.5      2.351      5.875
REMARK  4 active torsions:
REMARK  status: ('A' for Active; 'I' for Inactive)
REMARK    1  A    between atoms: C_6  and  C_7 
REMARK    2  A    between atoms: C_10  and  O_11 
REMARK    3  A    between atoms: C_15  and  C_16 
REMARK       I    between atoms: C_16  and  N_17 
REMARK    4  A    between atoms: N_17  and  C_18 
ROOT
HETATM    1  C   UNL     1      44.115 -19.226   3.856  1.00  0.00     0.001 A 
HETATM    2  C   UNL     1      43.599 -17.951   4.079  1.00  0.00     0.015 A 
HETATM    3  C   UNL     1      42.881 -17.264   3.066  1.00  0.00     0.008 A 
HETATM    4  C   UNL     1      42.731 -17.872   1.808  1.00  0.00     0.068 A 
HETATM    5  N   UNL     1      42.115 -17.274   0.774  1.00  0.00    -0.248 NA
HETATM    6  C   UNL     1      41.633 -16.013   0.903  1.00  0.00     0.068 A 
HETATM    7  C   UNL     1      41.705 -15.343   2.111  1.00  0.00     0.050 A 
HETATM    8  C   UNL     1      42.309 -15.980   3.198  1.00  0.00     0.046 A 
HETATM    9  C   UNL     1      43.247 -19.146   1.613  1.00  0.00     0.032 A 
HETATM   10  C   UNL     1      43.931 -19.830   2.620  1.00  0.00     0.002 A 
ENDROOT
BRANCH   6  11
HETATM   11  C   UNL     1      41.034 -15.427  -0.316  1.00  0.00    -0.007 A 
HETATM   12  C   UNL     1      40.148 -14.333  -0.228  1.00  0.00     0.016 A 
HETATM   13  C   UNL     1      39.558 -13.772  -1.366  1.00  0.00     0.037 A 
HETATM   14  C   UNL     1      39.845 -14.303  -2.615  1.00  0.00     0.065 A 
HETATM   15  C   UNL     1      40.709 -15.381  -2.742  1.00  0.00     0.037 A 
HETATM   16  C   UNL     1      41.296 -15.940  -1.601  1.00  0.00     0.016 A 
BRANCH  14  17
HETATM   17  O   UNL     1      39.288 -13.796  -3.751  1.00  0.00    -0.361 OA
HETATM   18  H   UNL     1      39.431 -12.836  -3.763  1.00  0.00     0.217 HD
ENDBRANCH  14  17
ENDBRANCH   6  11
BRANCH   8  19
HETATM   19  C   UNL     1      42.302 -15.226   4.471  1.00  0.00     0.253 C 
HETATM   20  N   UNL     1      43.544 -14.837   4.935  1.00  0.00    -0.352 N 
HETATM   21  H   UNL     1      44.372 -15.131   4.431  1.00  0.00     0.163 HD
HETATM   22  O   UNL     1      41.246 -15.048   5.064  1.00  0.00    -0.268 OA
BRANCH  20  23
HETATM   23  C   UNL     1      43.712 -14.162   6.182  1.00  0.00     0.084 A 
HETATM   24  C   UNL     1      44.247 -14.893   7.383  1.00  0.00     0.027 A 
HETATM   25  C   UNL     1      45.086 -13.850   6.704  1.00  0.00     0.027 A 
ENDBRANCH  20  23
ENDBRANCH   8  19
TORSDOF 4
ENDMDL
MODEL 10
REMARK VINA RESULT:      -7.3      2.867      7.652
REMARK  4 active torsions:
REMARK  status: ('A' for Active; 'I' for Inactive)
REMARK    1  A    between atoms: C_6  and  C_7 
REMARK    2  A    between atoms: C_10  and  O_11 
REMARK    3  A    between atoms: C_15  and  C_16 
REMARK       I    between atoms: C_16  and  N_17 
REMARK    4  A    between atoms: N_17  and  C_18 
ROOT
HETATM    1  C   UNL     1      43.530 -19.414   4.976  1.00  0.00     0.001 A 
HETATM    2  C   UNL     1      42.902 -18.209   4.668  1.00  0.00     0.015 A 
HETATM    3  C   UNL     1      43.339 -16.988   5.244  1.00  0.00     0.008 A 
HETATM    4  C   UNL     1      44.397 -17.013   6.169  1.00  0.00     0.068 A 
HETATM    5  N   UNL     1      44.841 -15.915   6.805  1.00  0.00    -0.248 NA
HETATM    6  C   UNL     1      44.244 -14.716   6.593  1.00  0.00     0.068 A 
HETATM    7  C   UNL     1      43.216 -14.583   5.677  1.00  0.00     0.050 A 
HETATM    8  C   UNL     1      42.781 -15.717   4.986  1.00  0.00     0.046 A 
HETATM    9  C   UNL     1      45.010 -18.226   6.453  1.00  0.00     0.032 A 
HETATM   10  C   UNL     1      44.593 -19.422   5.866  1.00  0.00     0.002 A 
ENDROOT
BRANCH   6  11
HETATM   11  C   UNL     1      44.769 -13.588   7.394  1.00  0.00    -0.007 A 
HETATM   12  C   UNL     1      43.918 -12.852   8.244  1.00  0.00     0.016 A 
HETATM   13  C   UNL     1      44.389 -11.773   9.000  1.00  0.00     0.037 A 
HETATM   14  C   UNL     1      45.725 -11.410   8.912  1.00  0.00     0.065 A 
HETATM   15  C   UNL     1      46.593 -12.108   8.084  1.00  0.00     0.037 A 
HETATM   16  C   UNL     1      46.118 -13.186   7.329  1.00  0.00     0.016 A 
BRANCH  14  17
HETATM   17  O   UNL     1      46.228 -10.362   9.622  1.00  0.00    -0.361 OA
HETATM   18  H   UNL     1      47.159 -10.242   9.377  1.00  0.00     0.217 HD
ENDBRANCH  14  17
ENDBRANCH   6  11
BRANCH   8  19
HETATM   19  C   UNL     1      41.716 -15.491   3.983  1.00  0.00     0.253 C 
HETATM   20  N   UNL     1      42.154 -15.331   2.683  1.00  0.00    -0.352 N 
HETATM   21  H   UNL     1      43.149 -15.315   2.497  1.00  0.00     0.163 HD
HETATM   22  O   UNL     1      40.552 -15.392   4.348  1.00  0.00    -0.268 OA
BRANCH  20  23
HETATM   23  C   UNL     1      41.257 -15.039   1.610  1.00  0.00     0.084 A 
HETATM   24  C   UNL     1      41.783 -14.754   0.230  1.00  0.00     0.027 A 
HETATM   25  C   UNL     1      41.041 -16.031   0.502  1.00  0.00     0.027 A 
ENDBRANCH  20  23
ENDBRANCH   8  19
TORSDOF 4
ENDMDL
