MODEL 1
REMARK VINA RESULT:      -9.0      0.000      0.000
REMARK  7 active torsions:
REMARK  status: ('A' for Active; 'I' for Inactive)
REMARK    1  A    between atoms: C_2  and  O_3 
REMARK    2  A    between atoms: O_3  and  C_4 
REMARK       I    between atoms: C_4  and  N_5 
REMARK       I    between atoms: N_8  and  C_9 
REMARK    3  A    between atoms: C_9  and  C_10 
REMARK    4  A    between atoms: C_11  and  N_12 
REMARK       I    between atoms: N_12  and  C_13 
REMARK    5  A    between atoms: C_13  and  C_14 
REMARK    6  A    between atoms: N_16  and  C_17 
REMARK    7  A    between atoms: C_18  and  O_19 
ROOT
HETATM    1  C   UNL     1      40.514  -9.590   7.433  1.00  0.00     0.059 A 
HETATM    2  C   UNL     1      40.499 -10.232   6.174  1.00  0.00     0.050 A 
HETATM    3  C   UNL     1      41.087  -9.570   5.093  1.00  0.00     0.030 A 
HETATM    4  C   UNL     1      41.668  -8.306   5.253  1.00  0.00     0.002 A 
HETATM    5  C   UNL     1      41.645  -7.668   6.490  1.00  0.00     0.001 A 
HETATM    6  C   UNL     1      41.055  -8.302   7.578  1.00  0.00     0.019 A 
ENDROOT
BRANCH   2   7
HETATM    7  N   UNL     1      39.804 -11.454   6.042  1.00  0.00    -0.326 N 
HETATM    8  C   UNL     1      40.153 -12.718   5.670  1.00  0.00     0.228 C 
HETATM    9  O   UNL     1      39.245 -13.511   5.408  1.00  0.00    -0.273 OA
HETATM   10  H   UNL     1      38.795 -11.382   6.203  1.00  0.00     0.169 HD
BRANCH   8  11
HETATM   11  C   UNL     1      41.596 -13.171   5.668  1.00  0.00     0.105 C 
HETATM   12  C   UNL     1      41.653 -14.697   5.625  1.00  0.00     0.147 C 
HETATM   13  N   UNL     1      42.860 -14.998   4.895  1.00  0.00    -0.315 N 
HETATM   14  C   UNL     1      43.316 -13.888   4.182  1.00  0.00     0.225 C 
HETATM   15  O   UNL     1      44.343 -13.755   3.532  1.00  0.00    -0.273 OA
HETATM   16  C   UNL     1      42.332 -12.765   4.399  1.00  0.00     0.119 C 
BRANCH  13  17
HETATM   17  C   UNL     1      43.307 -16.338   4.726  1.00  0.00     0.071 A 
HETATM   18  C   UNL     1      43.819 -17.111   5.788  1.00  0.00     0.095 A 
HETATM   19  C   UNL     1      44.211 -18.438   5.558  1.00  0.00     0.039 A 
HETATM   20  C   UNL     1      44.119 -18.996   4.282  1.00  0.00     0.009 A 
HETATM   21  C   UNL     1      43.665 -18.231   3.209  1.00  0.00    -0.060 A 
HETATM   22  C   UNL     1      43.572 -18.814   1.830  1.00  0.00     0.048 C 
HETATM   23  C   UNL     1      43.257 -16.909   3.442  1.00  0.00     0.039 A 
BRANCH  18  24
HETATM   24  O   UNL     1      44.073 -16.474   6.977  1.00  0.00    -0.354 OA
HETATM   25  C   UNL     1      43.406 -16.981   8.125  1.00  0.00     0.210 C 
ENDBRANCH  18  24
ENDBRANCH  13  17
ENDBRANCH   8  11
ENDBRANCH   2   7
BRANCH   1  26
HETATM   26  C   UNL     1      39.917 -10.254   8.620  1.00  0.00     0.256 C 
HETATM   27  N   UNL     1      40.670 -10.399   9.782  1.00  0.00    -0.345 N 
HETATM   28  C   UNL     1      42.137 -10.369   9.859  1.00  0.00     0.146 C 
HETATM   29  C   UNL     1      40.039 -11.023  10.947  1.00  0.00     0.146 C 
HETATM   30  C   UNL     1      42.604  -9.661  11.134  1.00  0.00     0.148 C 
HETATM   31  N   UNL     1      41.949 -10.179  12.336  1.00  0.00    -0.325 N 
HETATM   32  C   UNL     1      42.583  -9.970  13.551  1.00  0.00     0.362 C 
HETATM   33  C   UNL     1      40.494 -10.364  12.257  1.00  0.00     0.148 C 
HETATM   34  O   UNL     1      43.724  -9.537  13.657  1.00  0.00    -0.238 OA
HETATM   35  O   UNL     1      38.760 -10.656   8.517  1.00  0.00    -0.267 OA
BRANCH  32  36
HETATM   36  O   UNL     1      41.792 -10.293  14.610  1.00  0.00    -0.304 OA
BRANCH  36  37
HETATM   37  C   UNL     1      41.908  -9.456  15.769  1.00  0.00     0.176 C 
HETATM   38  C   UNL     1      40.855  -8.364  15.721  1.00  0.00     0.034 C 
ENDBRANCH  36  37
ENDBRANCH  32  36
ENDBRANCH   1  26
TORSDOF 7
ENDMDL
MODEL 2
REMARK VINA RESULT:      -9.0      3.228      5.897
REMARK  7 active torsions:
REMARK  status: ('A' for Active; 'I' for Inactive)
REMARK    1  A    between atoms: C_2  and  O_3 
REMARK    2  A    between atoms: O_3  and  C_4 
REMARK       I    between atoms: C_4  and  N_5 
REMARK       I    between atoms: N_8  and  C_9 
REMARK    3  A    between atoms: C_9  and  C_10 
REMARK    4  A    between atoms: C_11  and  N_12 
REMARK       I    between atoms: N_12  and  C_13 
REMARK    5  A    between atoms: C_13  and  C_14 
REMARK    6  A    between atoms: N_16  and  C_17 
REMARK    7  A    between atoms: C_18  and  O_19 
ROOT
HETATM    1  C   UNL     1      40.309 -11.981   0.698  1.00  0.00     0.059 A 
HETATM    2  C   UNL     1      41.160 -13.107   0.632  1.00  0.00     0.050 A 
HETATM    3  C   UNL     1      40.793 -14.158  -0.213  1.00  0.00     0.030 A 
HETATM    4  C   UNL     1      39.612 -14.097  -0.965  1.00  0.00     0.002 A 
HETATM    5  C   UNL     1      38.764 -12.998  -0.864  1.00  0.00     0.001 A 
HETATM    6  C   UNL     1      39.103 -11.945  -0.021  1.00  0.00     0.019 A 
ENDROOT
BRANCH   2   7
HETATM    7  N   UNL     1      42.278 -13.166   1.492  1.00  0.00    -0.326 N 
HETATM    8  C   UNL     1      42.675 -14.007   2.488  1.00  0.00     0.228 C 
HETATM    9  O   UNL     1      43.588 -13.630   3.228  1.00  0.00    -0.273 OA
HETATM   10  H   UNL     1      42.918 -12.371   1.402  1.00  0.00     0.169 HD
BRANCH   8  11
HETATM   11  C   UNL     1      42.092 -15.394   2.630  1.00  0.00     0.105 C 
HETATM   12  C   UNL     1      43.213 -16.430   2.568  1.00  0.00     0.147 C 
HETATM   13  N   UNL     1      42.765 -17.509   3.415  1.00  0.00    -0.315 N 
HETATM   14  C   UNL     1      41.730 -17.099   4.257  1.00  0.00     0.225 C 
HETATM   15  O   UNL     1      41.057 -17.761   5.034  1.00  0.00    -0.273 OA
HETATM   16  C   UNL     1      41.483 -15.632   4.006  1.00  0.00     0.119 C 
BRANCH  13  17
HETATM   17  C   UNL     1      43.512 -18.712   3.538  1.00  0.00     0.071 A 
HETATM   18  C   UNL     1      44.335 -18.989   4.649  1.00  0.00     0.095 A 
HETATM   19  C   UNL     1      45.019 -20.211   4.722  1.00  0.00     0.039 A 
HETATM   20  C   UNL     1      44.910 -21.151   3.695  1.00  0.00     0.009 A 
HETATM   21  C   UNL     1      44.142 -20.873   2.565  1.00  0.00    -0.060 A 
HETATM   22  C   UNL     1      44.025 -21.868   1.449  1.00  0.00     0.048 C 
HETATM   23  C   UNL     1      43.445 -19.657   2.499  1.00  0.00     0.039 A 
BRANCH  18  24
HETATM   24  O   UNL     1      44.569 -17.971   5.539  1.00  0.00    -0.354 OA
HETATM   25  C   UNL     1      44.178 -18.203   6.886  1.00  0.00     0.210 C 
ENDBRANCH  18  24
ENDBRANCH  13  17
ENDBRANCH   8  11
ENDBRANCH   2   7
BRANCH   1  26
HETATM   26  C   UNL     1      40.658 -10.828   1.567  1.00  0.00     0.256 C 
HETATM   27  N   UNL     1      40.219 -10.800   2.888  1.00  0.00    -0.345 N 
HETATM   28  C   UNL     1      39.082 -11.559   3.426  1.00  0.00     0.146 C 
HETATM   29  C   UNL     1      40.614  -9.668   3.730  1.00  0.00     0.146 C 
HETATM   30  C   UNL     1      39.377 -12.054   4.846  1.00  0.00     0.148 C 
HETATM   31  N   UNL     1      39.858 -10.987   5.724  1.00  0.00    -0.325 N 
HETATM   32  C   UNL     1      39.725 -11.174   7.091  1.00  0.00     0.362 C 
HETATM   33  C   UNL     1      40.898 -10.108   5.173  1.00  0.00     0.148 C 
HETATM   34  O   UNL     1      39.082 -12.088   7.592  1.00  0.00    -0.238 OA
HETATM   35  O   UNL     1      41.333  -9.930   1.066  1.00  0.00    -0.267 OA
BRANCH  32  36
HETATM   36  O   UNL     1      40.396 -10.235   7.810  1.00  0.00    -0.304 OA
BRANCH  36  37
HETATM   37  C   UNL     1      40.979 -10.674   9.044  1.00  0.00     0.176 C 
HETATM   38  C   UNL     1      42.492 -10.634   8.940  1.00  0.00     0.034 C 
ENDBRANCH  36  37
ENDBRANCH  32  36
ENDBRANCH   1  26
TORSDOF 7
ENDMDL
MODEL 3
REMARK VINA RESULT:      -8.9      5.301      8.924
REMARK  7 active torsions:
REMARK  status: ('A' for Active; 'I' for Inactive)
REMARK    1  A    between atoms: C_2  and  O_3 
REMARK    2  A    between atoms: O_3  and  C_4 
REMARK       I    between atoms: C_4  and  N_5 
REMARK       I    between atoms: N_8  and  C_9 
REMARK    3  A    between atoms: C_9  and  C_10 
REMARK    4  A    between atoms: C_11  and  N_12 
REMARK       I    between atoms: N_12  and  C_13 
REMARK    5  A    between atoms: C_13  and  C_14 
REMARK    6  A    between atoms: N_16  and  C_17 
REMARK    7  A    between atoms: C_18  and  O_19 
ROOT
HETATM    1  C   UNL     1      39.962 -11.985   3.663  1.00  0.00     0.059 A 
HETATM    2  C   UNL     1      40.255 -13.267   4.183  1.00  0.00     0.050 A 
HETATM    3  C   UNL     1      41.088 -13.346   5.302  1.00  0.00     0.030 A 
HETATM    4  C   UNL     1      41.621 -12.189   5.885  1.00  0.00     0.002 A 
HETATM    5  C   UNL     1      41.354 -10.935   5.342  1.00  0.00     0.001 A 
HETATM    6  C   UNL     1      40.537 -10.833   4.222  1.00  0.00     0.019 A 
ENDROOT
BRANCH   2   7
HETATM    7  N   UNL     1      39.783 -14.405   3.493  1.00  0.00    -0.326 N 
HETATM    8  C   UNL     1      40.376 -15.420   2.805  1.00  0.00     0.228 C 
HETATM    9  O   UNL     1      39.659 -16.127   2.092  1.00  0.00    -0.273 OA
HETATM   10  H   UNL     1      38.762 -14.465   3.434  1.00  0.00     0.169 HD
BRANCH   8  11
HETATM   11  C   UNL     1      41.844 -15.741   2.979  1.00  0.00     0.105 C 
HETATM   12  C   UNL     1      41.997 -17.157   3.531  1.00  0.00     0.147 C 
HETATM   13  N   UNL     1      43.239 -17.635   2.974  1.00  0.00    -0.315 N 
HETATM   14  C   UNL     1      43.643 -16.859   1.886  1.00  0.00     0.225 C 
HETATM   15  O   UNL     1      44.676 -16.919   1.234  1.00  0.00    -0.273 OA
HETATM   16  C   UNL     1      42.586 -15.809   1.651  1.00  0.00     0.119 C 
BRANCH  13  17
HETATM   17  C   UNL     1      43.773 -18.902   3.337  1.00  0.00     0.071 A 
HETATM   18  C   UNL     1      44.275 -19.178   4.626  1.00  0.00     0.095 A 
HETATM   19  C   UNL     1      44.755 -20.460   4.926  1.00  0.00     0.039 A 
HETATM   20  C   UNL     1      44.763 -21.464   3.956  1.00  0.00     0.009 A 
HETATM   21  C   UNL     1      44.320 -21.195   2.661  1.00  0.00    -0.060 A 
HETATM   22  C   UNL     1      44.333 -22.260   1.605  1.00  0.00     0.048 C 
HETATM   23  C   UNL     1      43.824 -19.917   2.365  1.00  0.00     0.039 A 
BRANCH  18  24
HETATM   24  O   UNL     1      44.429 -18.123   5.490  1.00  0.00    -0.354 OA
HETATM   25  C   UNL     1      44.191 -18.388   6.866  1.00  0.00     0.210 C 
ENDBRANCH  18  24
ENDBRANCH  13  17
ENDBRANCH   8  11
ENDBRANCH   2   7
BRANCH   1  26
HETATM   26  C   UNL     1      39.069 -11.841   2.485  1.00  0.00     0.256 C 
HETATM   27  N   UNL     1      39.571 -12.068   1.206  1.00  0.00    -0.345 N 
HETATM   28  C   UNL     1      40.987 -12.012   0.822  1.00  0.00     0.146 C 
HETATM   29  C   UNL     1      38.654 -11.956   0.069  1.00  0.00     0.146 C 
HETATM   30  C   UNL     1      41.317 -13.095  -0.211  1.00  0.00     0.148 C 
HETATM   31  N   UNL     1      40.387 -13.096  -1.340  1.00  0.00    -0.325 N 
HETATM   32  C   UNL     1      40.815 -13.680  -2.522  1.00  0.00     0.362 C 
HETATM   33  C   UNL     1      38.959 -13.006  -1.009  1.00  0.00     0.148 C 
HETATM   34  O   UNL     1      41.971 -14.035  -2.725  1.00  0.00    -0.238 OA
HETATM   35  O   UNL     1      37.902 -11.517   2.700  1.00  0.00    -0.267 OA
BRANCH  32  36
HETATM   36  O   UNL     1      39.808 -13.822  -3.425  1.00  0.00    -0.304 OA
BRANCH  36  37
HETATM   37  C   UNL     1      39.446 -15.167  -3.767  1.00  0.00     0.176 C 
HETATM   38  C   UNL     1      37.936 -15.280  -3.875  1.00  0.00     0.034 C 
ENDBRANCH  36  37
ENDBRANCH  32  36
ENDBRANCH   1  26
TORSDOF 7
ENDMDL
MODEL 4
REMARK VINA RESULT:      -8.8      4.776      7.676
REMARK  7 active torsions:
REMARK  status: ('A' for Active; 'I' for Inactive)
REMARK    1  A    between atoms: C_2  and  O_3 
REMARK    2  A    between atoms: O_3  and  C_4 
REMARK       I    between atoms: C_4  and  N_5 
REMARK       I    between atoms: N_8  and  C_9 
REMARK    3  A    between atoms: C_9  and  C_10 
REMARK    4  A    between atoms: C_11  and  N_12 
REMARK       I    between atoms: N_12  and  C_13 
REMARK    5  A    between atoms: C_13  and  C_14 
REMARK    6  A    between atoms: N_16  and  C_17 
REMARK    7  A    between atoms: C_18  and  O_19 
ROOT
HETATM    1  C   UNL     1      40.227 -13.221  -1.526  1.00  0.00     0.059 A 
HETATM    2  C   UNL     1      41.205 -14.111  -1.026  1.00  0.00     0.050 A 
HETATM    3  C   UNL     1      41.270 -15.392  -1.582  1.00  0.00     0.030 A 
HETATM    4  C   UNL     1      40.388 -15.781  -2.598  1.00  0.00     0.002 A 
HETATM    5  C   UNL     1      39.407 -14.907  -3.057  1.00  0.00     0.001 A 
HETATM    6  C   UNL     1      39.315 -13.631  -2.512  1.00  0.00     0.019 A 
ENDROOT
BRANCH   2   7
HETATM    7  N   UNL     1      41.994 -13.708   0.073  1.00  0.00    -0.326 N 
HETATM    8  C   UNL     1      42.111 -14.115   1.367  1.00  0.00     0.228 C 
HETATM    9  O   UNL     1      42.714 -13.377   2.150  1.00  0.00    -0.273 OA
HETATM   10  H   UNL     1      42.575 -12.884  -0.109  1.00  0.00     0.169 HD
BRANCH   8  11
HETATM   11  C   UNL     1      41.607 -15.468   1.818  1.00  0.00     0.105 C 
HETATM   12  C   UNL     1      42.767 -16.462   1.850  1.00  0.00     0.147 C 
HETATM   13  N   UNL     1      42.441 -17.373   2.920  1.00  0.00    -0.315 N 
HETATM   14  C   UNL     1      41.461 -16.843   3.760  1.00  0.00     0.225 C 
HETATM   15  O   UNL     1      40.887 -17.365   4.705  1.00  0.00    -0.273 OA
HETATM   16  C   UNL     1      41.126 -15.458   3.263  1.00  0.00     0.119 C 
BRANCH  13  17
HETATM   17  C   UNL     1      43.252 -18.508   3.197  1.00  0.00     0.071 A 
HETATM   18  C   UNL     1      44.055 -18.607   4.352  1.00  0.00     0.095 A 
HETATM   19  C   UNL     1      44.805 -19.770   4.581  1.00  0.00     0.039 A 
HETATM   20  C   UNL     1      44.781 -20.824   3.667  1.00  0.00     0.009 A 
HETATM   21  C   UNL     1      44.034 -20.722   2.494  1.00  0.00    -0.060 A 
HETATM   22  C   UNL     1      44.008 -21.843   1.496  1.00  0.00     0.048 C 
HETATM   23  C   UNL     1      43.271 -19.566   2.272  1.00  0.00     0.039 A 
BRANCH  18  24
HETATM   24  O   UNL     1      44.203 -17.483   5.125  1.00  0.00    -0.354 OA
HETATM   25  C   UNL     1      44.184 -17.674   6.534  1.00  0.00     0.210 C 
ENDBRANCH  18  24
ENDBRANCH  13  17
ENDBRANCH   8  11
ENDBRANCH   2   7
BRANCH   1  26
HETATM   26  C   UNL     1      40.123 -11.842  -0.984  1.00  0.00     0.256 C 
HETATM   27  N   UNL     1      39.564 -11.634   0.274  1.00  0.00    -0.345 N 
HETATM   28  C   UNL     1      38.660 -12.559   0.970  1.00  0.00     0.146 C 
HETATM   29  C   UNL     1      39.513 -10.266   0.796  1.00  0.00     0.146 C 
HETATM   30  C   UNL     1      38.944 -12.574   2.475  1.00  0.00     0.148 C 
HETATM   31  N   UNL     1      38.990 -11.230   3.051  1.00  0.00    -0.325 N 
HETATM   32  C   UNL     1      38.782 -11.111   4.417  1.00  0.00     0.362 C 
HETATM   33  C   UNL     1      39.767 -10.229   2.309  1.00  0.00     0.148 C 
HETATM   34  O   UNL     1      38.396 -12.031   5.127  1.00  0.00    -0.238 OA
HETATM   35  O   UNL     1      40.544 -10.927  -1.691  1.00  0.00    -0.267 OA
BRANCH  32  36
HETATM   36  O   UNL     1      39.062  -9.862   4.876  1.00  0.00    -0.304 OA
BRANCH  36  37
HETATM   37  C   UNL     1      39.874  -9.786   6.056  1.00  0.00     0.176 C 
HETATM   38  C   UNL     1      41.297 -10.197   5.726  1.00  0.00     0.034 C 
ENDBRANCH  36  37
ENDBRANCH  32  36
ENDBRANCH   1  26
TORSDOF 7
ENDMDL
MODEL 5
REMARK VINA RESULT:      -8.5      5.368      9.578
REMARK  7 active torsions:
REMARK  status: ('A' for Active; 'I' for Inactive)
REMARK    1  A    between atoms: C_2  and  O_3 
REMARK    2  A    between atoms: O_3  and  C_4 
REMARK       I    between atoms: C_4  and  N_5 
REMARK       I    between atoms: N_8  and  C_9 
REMARK    3  A    between atoms: C_9  and  C_10 
REMARK    4  A    between atoms: C_11  and  N_12 
REMARK       I    between atoms: N_12  and  C_13 
REMARK    5  A    between atoms: C_13  and  C_14 
REMARK    6  A    between atoms: N_16  and  C_17 
REMARK    7  A    between atoms: C_18  and  O_19 
ROOT
HETATM    1  C   UNL     1      41.679 -13.517   4.370  1.00  0.00     0.059 A 
HETATM    2  C   UNL     1      40.296 -13.810   4.341  1.00  0.00     0.050 A 
HETATM    3  C   UNL     1      39.472 -13.176   5.274  1.00  0.00     0.030 A 
HETATM    4  C   UNL     1      40.003 -12.283   6.213  1.00  0.00     0.002 A 
HETATM    5  C   UNL     1      41.371 -12.030   6.256  1.00  0.00     0.001 A 
HETATM    6  C   UNL     1      42.213 -12.658   5.344  1.00  0.00     0.019 A 
ENDROOT
BRANCH   2   7
HETATM    7  N   UNL     1      39.829 -14.800   3.449  1.00  0.00    -0.326 N 
HETATM    8  C   UNL     1      39.118 -14.781   2.287  1.00  0.00     0.228 C 
HETATM    9  O   UNL     1      38.646 -15.848   1.885  1.00  0.00    -0.273 OA
HETATM   10  H   UNL     1      40.005 -15.760   3.760  1.00  0.00     0.169 HD
BRANCH   8  11
HETATM   11  C   UNL     1      38.988 -13.522   1.460  1.00  0.00     0.105 C 
HETATM   12  C   UNL     1      40.208 -13.377   0.553  1.00  0.00     0.147 C 
HETATM   13  N   UNL     1      39.712 -12.710  -0.627  1.00  0.00    -0.315 N 
HETATM   14  C   UNL     1      38.320 -12.783  -0.706  1.00  0.00     0.225 C 
HETATM   15  O   UNL     1      37.564 -12.261  -1.512  1.00  0.00    -0.273 OA
HETATM   16  C   UNL     1      37.833 -13.592   0.470  1.00  0.00     0.119 C 
BRANCH  13  17
HETATM   17  C   UNL     1      40.587 -12.315  -1.676  1.00  0.00     0.071 A 
HETATM   18  C   UNL     1      40.690 -13.023  -2.891  1.00  0.00     0.095 A 
HETATM   19  C   UNL     1      41.548 -12.558  -3.897  1.00  0.00     0.039 A 
HETATM   20  C   UNL     1      42.320 -11.411  -3.702  1.00  0.00     0.009 A 
HETATM   21  C   UNL     1      42.270 -10.728  -2.488  1.00  0.00    -0.060 A 
HETATM   22  C   UNL     1      43.102  -9.500  -2.259  1.00  0.00     0.048 C 
HETATM   23  C   UNL     1      41.399 -11.183  -1.487  1.00  0.00     0.039 A 
BRANCH  18  24
HETATM   24  O   UNL     1      40.067 -14.244  -2.973  1.00  0.00    -0.354 OA
HETATM   25  C   UNL     1      40.896 -15.390  -2.827  1.00  0.00     0.210 C 
ENDBRANCH  18  24
ENDBRANCH  13  17
ENDBRANCH   8  11
ENDBRANCH   2   7
BRANCH   1  26
HETATM   26  C   UNL     1      42.599 -14.150   3.392  1.00  0.00     0.256 C 
HETATM   27  N   UNL     1      43.192 -15.374   3.692  1.00  0.00    -0.345 N 
HETATM   28  C   UNL     1      43.372 -15.928   5.040  1.00  0.00     0.146 C 
HETATM   29  C   UNL     1      44.064 -15.990   2.688  1.00  0.00     0.146 C 
HETATM   30  C   UNL     1      43.161 -17.445   5.041  1.00  0.00     0.148 C 
HETATM   31  N   UNL     1      43.941 -18.121   4.004  1.00  0.00    -0.325 N 
HETATM   32  C   UNL     1      44.202 -19.472   4.176  1.00  0.00     0.362 C 
HETATM   33  C   UNL     1      43.908 -17.517   2.665  1.00  0.00     0.148 C 
HETATM   34  O   UNL     1      43.970 -20.081   5.214  1.00  0.00    -0.238 OA
HETATM   35  O   UNL     1      42.801 -13.548   2.338  1.00  0.00    -0.267 OA
BRANCH  32  36
HETATM   36  O   UNL     1      44.736 -20.043   3.064  1.00  0.00    -0.304 OA
BRANCH  36  37
HETATM   37  C   UNL     1      44.514 -21.450   2.902  1.00  0.00     0.176 C 
HETATM   38  C   UNL     1      43.650 -21.697   1.680  1.00  0.00     0.034 C 
ENDBRANCH  36  37
ENDBRANCH  32  36
ENDBRANCH   1  26
TORSDOF 7
ENDMDL
MODEL 6
REMARK VINA RESULT:      -8.3      3.309      5.988
REMARK  7 active torsions:
REMARK  status: ('A' for Active; 'I' for Inactive)
REMARK    1  A    between atoms: C_2  and  O_3 
REMARK    2  A    between atoms: O_3  and  C_4 
REMARK       I    between atoms: C_4  and  N_5 
REMARK       I    between atoms: N_8  and  C_9 
REMARK    3  A    between atoms: C_9  and  C_10 
REMARK    4  A    between atoms: C_11  and  N_12 
REMARK       I    between atoms: N_12  and  C_13 
REMARK    5  A    between atoms: C_13  and  C_14 
REMARK    6  A    between atoms: N_16  and  C_17 
REMARK    7  A    between atoms: C_18  and  O_19 
ROOT
HETATM    1  C   UNL     1      40.695 -13.587   1.347  1.00  0.00     0.059 A 
HETATM    2  C   UNL     1      41.009 -14.602   0.415  1.00  0.00     0.050 A 
HETATM    3  C   UNL     1      41.689 -14.236  -0.749  1.00  0.00     0.030 A 
HETATM    4  C   UNL     1      42.044 -12.901  -0.985  1.00  0.00     0.002 A 
HETATM    5  C   UNL     1      41.699 -11.905  -0.077  1.00  0.00     0.001 A 
HETATM    6  C   UNL     1      41.011 -12.244   1.084  1.00  0.00     0.019 A 
ENDROOT
BRANCH   2   7
HETATM    7  N   UNL     1      40.532 -15.910   0.648  1.00  0.00    -0.326 N 
HETATM    8  C   UNL     1      41.099 -17.074   1.071  1.00  0.00     0.228 C 
HETATM    9  O   UNL     1      40.455 -18.116   0.920  1.00  0.00    -0.273 OA
HETATM   10  H   UNL     1      39.550 -16.050   0.390  1.00  0.00     0.169 HD
BRANCH   8  11
HETATM   11  C   UNL     1      42.430 -17.089   1.790  1.00  0.00     0.105 C 
HETATM   12  C   UNL     1      42.196 -17.161   3.297  1.00  0.00     0.147 C 
HETATM   13  N   UNL     1      43.325 -17.901   3.809  1.00  0.00    -0.315 N 
HETATM   14  C   UNL     1      43.983 -18.594   2.792  1.00  0.00     0.225 C 
HETATM   15  O   UNL     1      45.017 -19.245   2.843  1.00  0.00    -0.273 OA
HETATM   16  C   UNL     1      43.230 -18.353   1.506  1.00  0.00     0.119 C 
BRANCH  13  17
HETATM   17  C   UNL     1      43.509 -18.097   5.205  1.00  0.00     0.071 A 
HETATM   18  C   UNL     1      43.731 -17.031   6.102  1.00  0.00     0.095 A 
HETATM   19  C   UNL     1      43.872 -17.293   7.472  1.00  0.00     0.039 A 
HETATM   20  C   UNL     1      43.815 -18.600   7.958  1.00  0.00     0.009 A 
HETATM   21  C   UNL     1      43.649 -19.671   7.079  1.00  0.00    -0.060 A 
HETATM   22  C   UNL     1      43.598 -21.082   7.585  1.00  0.00     0.048 C 
HETATM   23  C   UNL     1      43.492 -19.409   5.710  1.00  0.00     0.039 A 
BRANCH  18  24
HETATM   24  O   UNL     1      43.972 -15.789   5.570  1.00  0.00    -0.354 OA
HETATM   25  C   UNL     1      43.750 -14.677   6.428  1.00  0.00     0.210 C 
ENDBRANCH  18  24
ENDBRANCH  13  17
ENDBRANCH   8  11
ENDBRANCH   2   7
BRANCH   1  26
HETATM   26  C   UNL     1      39.987 -13.921   2.609  1.00  0.00     0.256 C 
HETATM   27  N   UNL     1      40.437 -13.393   3.816  1.00  0.00    -0.345 N 
HETATM   28  C   UNL     1      41.792 -12.887   4.074  1.00  0.00     0.146 C 
HETATM   29  C   UNL     1      39.692 -13.711   5.036  1.00  0.00     0.146 C 
HETATM   30  C   UNL     1      41.752 -11.656   4.984  1.00  0.00     0.148 C 
HETATM   31  N   UNL     1      40.952 -11.875   6.189  1.00  0.00    -0.325 N 
HETATM   32  C   UNL     1      41.196 -11.052   7.279  1.00  0.00     0.362 C 
HETATM   33  C   UNL     1      39.644 -12.514   5.997  1.00  0.00     0.148 C 
HETATM   34  O   UNL     1      42.146 -10.282   7.349  1.00  0.00    -0.238 OA
HETATM   35  O   UNL     1      39.014 -14.669   2.526  1.00  0.00    -0.267 OA
BRANCH  32  36
HETATM   36  O   UNL     1      40.260 -11.193   8.255  1.00  0.00    -0.304 OA
BRANCH  36  37
HETATM   37  C   UNL     1      39.796  -9.984   8.871  1.00  0.00     0.176 C 
HETATM   38  C   UNL     1      38.987  -9.177   7.873  1.00  0.00     0.034 C 
ENDBRANCH  36  37
ENDBRANCH  32  36
ENDBRANCH   1  26
TORSDOF 7
ENDMDL
MODEL 7
REMARK VINA RESULT:      -8.3      3.005      4.970
REMARK  7 active torsions:
REMARK  status: ('A' for Active; 'I' for Inactive)
REMARK    1  A    between atoms: C_2  and  O_3 
REMARK    2  A    between atoms: O_3  and  C_4 
REMARK       I    between atoms: C_4  and  N_5 
REMARK       I    between atoms: N_8  and  C_9 
REMARK    3  A    between atoms: C_9  and  C_10 
REMARK    4  A    between atoms: C_11  and  N_12 
REMARK       I    between atoms: N_12  and  C_13 
REMARK    5  A    between atoms: C_13  and  C_14 
REMARK    6  A    between atoms: N_16  and  C_17 
REMARK    7  A    between atoms: C_18  and  O_19 
ROOT
HETATM    1  C   UNL     1      40.364 -11.955   1.887  1.00  0.00     0.059 A 
HETATM    2  C   UNL     1      40.656 -13.167   1.221  1.00  0.00     0.050 A 
HETATM    3  C   UNL     1      41.499 -13.117   0.108  1.00  0.00     0.030 A 
HETATM    4  C   UNL     1      42.033 -11.900  -0.336  1.00  0.00     0.002 A 
HETATM    5  C   UNL     1      41.709 -10.708   0.306  1.00  0.00     0.001 A 
HETATM    6  C   UNL     1      40.863 -10.732   1.410  1.00  0.00     0.019 A 
ENDROOT
BRANCH   2   7
HETATM    7  N   UNL     1      40.006 -14.348   1.642  1.00  0.00    -0.326 N 
HETATM    8  C   UNL     1      40.425 -15.588   2.019  1.00  0.00     0.228 C 
HETATM    9  O   UNL     1      39.581 -16.486   2.081  1.00  0.00    -0.273 OA
HETATM   10  H   UNL     1      38.983 -14.298   1.604  1.00  0.00     0.169 HD
BRANCH   8  11
HETATM   11  C   UNL     1      41.853 -15.844   2.444  1.00  0.00     0.105 C 
HETATM   12  C   UNL     1      41.949 -17.210   3.121  1.00  0.00     0.147 C 
HETATM   13  N   UNL     1      43.274 -17.685   2.804  1.00  0.00    -0.315 N 
HETATM   14  C   UNL     1      43.828 -16.977   1.736  1.00  0.00     0.225 C 
HETATM   15  O   UNL     1      44.951 -17.048   1.261  1.00  0.00    -0.273 OA
HETATM   16  C   UNL     1      42.798 -15.983   1.258  1.00  0.00     0.119 C 
BRANCH  13  17
HETATM   17  C   UNL     1      43.772 -18.903   3.344  1.00  0.00     0.071 A 
HETATM   18  C   UNL     1      44.120 -19.050   4.703  1.00  0.00     0.095 A 
HETATM   19  C   UNL     1      44.573 -20.290   5.175  1.00  0.00     0.039 A 
HETATM   20  C   UNL     1      44.704 -21.377   4.310  1.00  0.00     0.009 A 
HETATM   21  C   UNL     1      44.414 -21.237   2.953  1.00  0.00    -0.060 A 
HETATM   22  C   UNL     1      44.560 -22.394   2.009  1.00  0.00     0.048 C 
HETATM   23  C   UNL     1      43.945 -20.001   2.483  1.00  0.00     0.039 A 
BRANCH  18  24
HETATM   24  O   UNL     1      44.163 -17.917   5.476  1.00  0.00    -0.354 OA
HETATM   25  C   UNL     1      45.173 -17.868   6.475  1.00  0.00     0.210 C 
ENDBRANCH  18  24
ENDBRANCH  13  17
ENDBRANCH   8  11
ENDBRANCH   2   7
BRANCH   1  26
HETATM   26  C   UNL     1      39.487 -11.951   3.086  1.00  0.00     0.256 C 
HETATM   27  N   UNL     1      40.053 -11.899   4.357  1.00  0.00    -0.345 N 
HETATM   28  C   UNL     1      41.430 -12.283   4.695  1.00  0.00     0.146 C 
HETATM   29  C   UNL     1      39.159 -11.856   5.516  1.00  0.00     0.146 C 
HETATM   30  C   UNL     1      42.014 -11.348   5.758  1.00  0.00     0.148 C 
HETATM   31  N   UNL     1      41.131 -11.192   6.915  1.00  0.00    -0.325 N 
HETATM   32  C   UNL     1      41.704 -10.771   8.105  1.00  0.00     0.362 C 
HETATM   33  C   UNL     1      39.712 -10.949   6.624  1.00  0.00     0.148 C 
HETATM   34  O   UNL     1      42.913 -10.690   8.287  1.00  0.00    -0.238 OA
HETATM   35  O   UNL     1      38.273 -11.999   2.894  1.00  0.00    -0.267 OA
BRANCH  32  36
HETATM   36  O   UNL     1      40.772 -10.451   9.043  1.00  0.00    -0.304 OA
BRANCH  36  37
HETATM   37  C   UNL     1      40.942  -9.189   9.703  1.00  0.00     0.176 C 
HETATM   38  C   UNL     1      40.716  -8.059   8.716  1.00  0.00     0.034 C 
ENDBRANCH  36  37
ENDBRANCH  32  36
ENDBRANCH   1  26
TORSDOF 7
ENDMDL
MODEL 8
REMARK VINA RESULT:      -8.3      5.321      9.027
REMARK  7 active torsions:
REMARK  status: ('A' for Active; 'I' for Inactive)
REMARK    1  A    between atoms: C_2  and  O_3 
REMARK    2  A    between atoms: O_3  and  C_4 
REMARK       I    between atoms: C_4  and  N_5 
REMARK       I    between atoms: N_8  and  C_9 
REMARK    3  A    between atoms: C_9  and  C_10 
REMARK    4  A    between atoms: C_11  and  N_12 
REMARK       I    between atoms: N_12  and  C_13 
REMARK    5  A    between atoms: C_13  and  C_14 
REMARK    6  A    between atoms: N_16  and  C_17 
REMARK    7  A    between atoms: C_18  and  O_19 
ROOT
HETATM    1  C   UNL     1      40.244 -11.703   3.498  1.00  0.00     0.059 A 
HETATM    2  C   UNL     1      41.118 -12.469   4.303  1.00  0.00     0.050 A 
HETATM    3  C   UNL     1      40.671 -12.861   5.567  1.00  0.00     0.030 A 
HETATM    4  C   UNL     1      39.397 -12.499   6.024  1.00  0.00     0.002 A 
HETATM    5  C   UNL     1      38.559 -11.714   5.237  1.00  0.00     0.001 A 
HETATM    6  C   UNL     1      38.988 -11.302   3.979  1.00  0.00     0.019 A 
ENDROOT
BRANCH   2   7
HETATM    7  N   UNL     1      42.430 -12.712   3.841  1.00  0.00    -0.326 N 
HETATM    8  C   UNL     1      43.158 -13.833   3.573  1.00  0.00     0.228 C 
HETATM    9  O   UNL     1      44.376 -13.705   3.429  1.00  0.00    -0.273 OA
HETATM   10  H   UNL     1      42.999 -11.867   3.733  1.00  0.00     0.169 HD
BRANCH   8  11
HETATM   11  C   UNL     1      42.493 -15.175   3.362  1.00  0.00     0.105 C 
HETATM   12  C   UNL     1      43.561 -16.258   3.225  1.00  0.00     0.147 C 
HETATM   13  N   UNL     1      42.952 -17.445   3.777  1.00  0.00    -0.315 N 
HETATM   14  C   UNL     1      41.837 -17.131   4.556  1.00  0.00     0.225 C 
HETATM   15  O   UNL     1      41.037 -17.879   5.099  1.00  0.00    -0.273 OA
HETATM   16  C   UNL     1      41.699 -15.629   4.580  1.00  0.00     0.119 C 
BRANCH  13  17
HETATM   17  C   UNL     1      43.617 -18.702   3.742  1.00  0.00     0.071 A 
HETATM   18  C   UNL     1      44.488 -19.133   4.764  1.00  0.00     0.095 A 
HETATM   19  C   UNL     1      45.085 -20.399   4.682  1.00  0.00     0.039 A 
HETATM   20  C   UNL     1      44.842 -21.231   3.588  1.00  0.00     0.009 A 
HETATM   21  C   UNL     1      44.025 -20.801   2.544  1.00  0.00    -0.060 A 
HETATM   22  C   UNL     1      43.764 -21.680   1.356  1.00  0.00     0.048 C 
HETATM   23  C   UNL     1      43.415 -19.541   2.632  1.00  0.00     0.039 A 
BRANCH  18  24
HETATM   24  O   UNL     1      44.852 -18.218   5.720  1.00  0.00    -0.354 OA
HETATM   25  C   UNL     1      44.423 -18.484   7.050  1.00  0.00     0.210 C 
ENDBRANCH  18  24
ENDBRANCH  13  17
ENDBRANCH   8  11
ENDBRANCH   2   7
BRANCH   1  26
HETATM   26  C   UNL     1      40.661 -11.272   2.140  1.00  0.00     0.256 C 
HETATM   27  N   UNL     1      40.259 -12.007   1.027  1.00  0.00    -0.345 N 
HETATM   28  C   UNL     1      39.830 -13.412   1.042  1.00  0.00     0.146 C 
HETATM   29  C   UNL     1      40.655 -11.533  -0.301  1.00  0.00     0.146 C 
HETATM   30  C   UNL     1      38.683 -13.644   0.053  1.00  0.00     0.148 C 
HETATM   31  N   UNL     1      38.977 -13.118  -1.280  1.00  0.00    -0.325 N 
HETATM   32  C   UNL     1      38.264 -13.644  -2.348  1.00  0.00     0.362 C 
HETATM   33  C   UNL     1      39.546 -11.766  -1.337  1.00  0.00     0.148 C 
HETATM   34  O   UNL     1      37.540 -14.628  -2.261  1.00  0.00    -0.238 OA
HETATM   35  O   UNL     1      41.361 -10.264   2.059  1.00  0.00    -0.267 OA
BRANCH  32  36
HETATM   36  O   UNL     1      38.455 -12.939  -3.495  1.00  0.00    -0.304 OA
BRANCH  36  37
HETATM   37  C   UNL     1      37.271 -12.489  -4.169  1.00  0.00     0.176 C 
HETATM   38  C   UNL     1      36.446 -11.624  -3.235  1.00  0.00     0.034 C 
ENDBRANCH  36  37
ENDBRANCH  32  36
ENDBRANCH   1  26
TORSDOF 7
ENDMDL
MODEL 9
REMARK VINA RESULT:      -8.2      4.199     11.036
REMARK  7 active torsions:
REMARK  status: ('A' for Active; 'I' for Inactive)
REMARK    1  A    between atoms: C_2  and  O_3 
REMARK    2  A    between atoms: O_3  and  C_4 
REMARK       I    between atoms: C_4  and  N_5 
REMARK       I    between atoms: N_8  and  C_9 
REMARK    3  A    between atoms: C_9  and  C_10 
REMARK    4  A    between atoms: C_11  and  N_12 
REMARK       I    between atoms: N_12  and  C_13 
REMARK    5  A    between atoms: C_13  and  C_14 
REMARK    6  A    between atoms: N_16  and  C_17 
REMARK    7  A    between atoms: C_18  and  O_19 
ROOT
HETATM    1  C   UNL     1      41.232 -14.372   3.405  1.00  0.00     0.059 A 
HETATM    2  C   UNL     1      42.190 -13.600   4.103  1.00  0.00     0.050 A 
HETATM    3  C   UNL     1      43.142 -14.276   4.871  1.00  0.00     0.030 A 
HETATM    4  C   UNL     1      43.141 -15.674   4.951  1.00  0.00     0.002 A 
HETATM    5  C   UNL     1      42.171 -16.421   4.288  1.00  0.00     0.001 A 
HETATM    6  C   UNL     1      41.206 -15.770   3.527  1.00  0.00     0.019 A 
ENDROOT
BRANCH   2   7
HETATM    7  N   UNL     1      42.078 -12.193   4.078  1.00  0.00    -0.326 N 
HETATM    8  C   UNL     1      41.535 -11.262   4.911  1.00  0.00     0.228 C 
HETATM    9  O   UNL     1      41.374 -10.121   4.470  1.00  0.00    -0.273 OA
HETATM   10  H   UNL     1      42.428 -11.761   3.217  1.00  0.00     0.169 HD
BRANCH   8  11
HETATM   11  C   UNL     1      41.228 -11.578   6.357  1.00  0.00     0.105 C 
HETATM   12  C   UNL     1      41.887 -10.538   7.260  1.00  0.00     0.147 C 
HETATM   13  N   UNL     1      41.004 -10.427   8.397  1.00  0.00    -0.315 N 
HETATM   14  C   UNL     1      39.745 -10.961   8.119  1.00  0.00     0.225 C 
HETATM   15  O   UNL     1      38.789 -11.116   8.865  1.00  0.00    -0.273 OA
HETATM   16  C   UNL     1      39.748 -11.427   6.684  1.00  0.00     0.119 C 
BRANCH  13  17
HETATM   17  C   UNL     1      41.334  -9.608   9.512  1.00  0.00     0.071 A 
HETATM   18  C   UNL     1      40.835  -8.299   9.673  1.00  0.00     0.095 A 
HETATM   19  C   UNL     1      41.174  -7.560  10.814  1.00  0.00     0.039 A 
HETATM   20  C   UNL     1      42.019  -8.097  11.786  1.00  0.00     0.009 A 
HETATM   21  C   UNL     1      42.565  -9.370  11.619  1.00  0.00    -0.060 A 
HETATM   22  C   UNL     1      43.484  -9.956  12.650  1.00  0.00     0.048 C 
HETATM   23  C   UNL     1      42.213 -10.117  10.485  1.00  0.00     0.039 A 
BRANCH  18  24
HETATM   24  O   UNL     1      40.168  -7.737   8.613  1.00  0.00    -0.354 OA
HETATM   25  C   UNL     1      38.824  -7.338   8.848  1.00  0.00     0.210 C 
ENDBRANCH  18  24
ENDBRANCH  13  17
ENDBRANCH   8  11
ENDBRANCH   2   7
BRANCH   1  26
HETATM   26  C   UNL     1      40.207 -13.707   2.561  1.00  0.00     0.256 C 
HETATM   27  N   UNL     1      40.342 -13.714   1.175  1.00  0.00    -0.345 N 
HETATM   28  C   UNL     1      41.598 -13.920   0.441  1.00  0.00     0.146 C 
HETATM   29  C   UNL     1      39.293 -13.085   0.370  1.00  0.00     0.146 C 
HETATM   30  C   UNL     1      41.361 -14.746  -0.827  1.00  0.00     0.148 C 
HETATM   31  N   UNL     1      40.266 -14.220  -1.643  1.00  0.00    -0.325 N 
HETATM   32  C   UNL     1      40.244 -14.567  -2.986  1.00  0.00     0.362 C 
HETATM   33  C   UNL     1      39.034 -13.862  -0.929  1.00  0.00     0.148 C 
HETATM   34  O   UNL     1      41.167 -15.136  -3.556  1.00  0.00    -0.238 OA
HETATM   35  O   UNL     1      39.265 -13.167   3.140  1.00  0.00    -0.267 OA
BRANCH  32  36
HETATM   36  O   UNL     1      39.080 -14.212  -3.593  1.00  0.00    -0.304 OA
BRANCH  36  37
HETATM   37  C   UNL     1      38.218 -15.286  -3.993  1.00  0.00     0.176 C 
HETATM   38  C   UNL     1      36.820 -14.753  -4.250  1.00  0.00     0.034 C 
ENDBRANCH  36  37
ENDBRANCH  32  36
ENDBRANCH   1  26
TORSDOF 7
ENDMDL
MODEL 10
REMARK VINA RESULT:      -8.2      5.173      9.462
REMARK  7 active torsions:
REMARK  status: ('A' for Active; 'I' for Inactive)
REMARK    1  A    between atoms: C_2  and  O_3 
REMARK    2  A    between atoms: O_3  and  C_4 
REMARK       I    between atoms: C_4  and  N_5 
REMARK       I    between atoms: N_8  and  C_9 
REMARK    3  A    between atoms: C_9  and  C_10 
REMARK    4  A    between atoms: C_11  and  N_12 
REMARK       I    between atoms: N_12  and  C_13 
REMARK    5  A    between atoms: C_13  and  C_14 
REMARK    6  A    between atoms: N_16  and  C_17 
REMARK    7  A    between atoms: C_18  and  O_19 
ROOT
HETATM    1  C   UNL     1      40.315 -11.367   2.660  1.00  0.00     0.059 A 
HETATM    2  C   UNL     1      40.830 -11.459   3.973  1.00  0.00     0.050 A 
HETATM    3  C   UNL     1      40.059 -10.941   5.018  1.00  0.00     0.030 A 
HETATM    4  C   UNL     1      38.817 -10.344   4.768  1.00  0.00     0.002 A 
HETATM    5  C   UNL     1      38.337 -10.227   3.467  1.00  0.00     0.001 A 
HETATM    6  C   UNL     1      39.091 -10.725   2.410  1.00  0.00     0.019 A 
ENDROOT
BRANCH   2   7
HETATM    7  N   UNL     1      42.134 -11.969   4.158  1.00  0.00    -0.326 N 
HETATM    8  C   UNL     1      42.652 -13.206   4.396  1.00  0.00     0.228 C 
HETATM    9  O   UNL     1      43.826 -13.275   4.769  1.00  0.00    -0.273 OA
HETATM   10  H   UNL     1      42.865 -11.251   4.180  1.00  0.00     0.169 HD
BRANCH   8  11
HETATM   11  C   UNL     1      41.856 -14.462   4.122  1.00  0.00     0.105 C 
HETATM   12  C   UNL     1      42.742 -15.485   3.415  1.00  0.00     0.147 C 
HETATM   13  N   UNL     1      42.250 -16.767   3.860  1.00  0.00    -0.315 N 
HETATM   14  C   UNL     1      41.462 -16.641   5.005  1.00  0.00     0.225 C 
HETATM   15  O   UNL     1      40.819 -17.494   5.599  1.00  0.00    -0.273 OA
HETATM   16  C   UNL     1      41.451 -15.185   5.400  1.00  0.00     0.119 C 
BRANCH  13  17
HETATM   17  C   UNL     1      42.774 -17.982   3.339  1.00  0.00     0.071 A 
HETATM   18  C   UNL     1      42.398 -18.497   2.081  1.00  0.00     0.095 A 
HETATM   19  C   UNL     1      42.979 -19.684   1.613  1.00  0.00     0.039 A 
HETATM   20  C   UNL     1      43.912 -20.375   2.388  1.00  0.00     0.009 A 
HETATM   21  C   UNL     1      44.257 -19.908   3.656  1.00  0.00    -0.060 A 
HETATM   22  C   UNL     1      45.249 -20.646   4.505  1.00  0.00     0.048 C 
HETATM   23  C   UNL     1      43.688 -18.712   4.118  1.00  0.00     0.039 A 
BRANCH  18  24
HETATM   24  O   UNL     1      41.344 -17.900   1.436  1.00  0.00    -0.354 OA
HETATM   25  C   UNL     1      41.671 -16.947   0.432  1.00  0.00     0.210 C 
ENDBRANCH  18  24
ENDBRANCH  13  17
ENDBRANCH   8  11
ENDBRANCH   2   7
BRANCH   1  26
HETATM   26  C   UNL     1      41.084 -11.915   1.514  1.00  0.00     0.256 C 
HETATM   27  N   UNL     1      40.452 -12.746   0.592  1.00  0.00    -0.345 N 
HETATM   28  C   UNL     1      39.223 -13.512   0.835  1.00  0.00     0.146 C 
HETATM   29  C   UNL     1      41.229 -13.237  -0.549  1.00  0.00     0.146 C 
HETATM   30  C   UNL     1      38.338 -13.537  -0.415  1.00  0.00     0.148 C 
HETATM   31  N   UNL     1      39.072 -13.941  -1.615  1.00  0.00    -0.325 N 
HETATM   32  C   UNL     1      38.335 -14.438  -2.679  1.00  0.00     0.362 C 
HETATM   33  C   UNL     1      40.378 -13.305  -1.825  1.00  0.00     0.148 C 
HETATM   34  O   UNL     1      37.144 -14.717  -2.609  1.00  0.00    -0.238 OA
HETATM   35  O   UNL     1      42.271 -11.603   1.432  1.00  0.00    -0.267 OA
BRANCH  32  36
HETATM   36  O   UNL     1      39.081 -14.574  -3.807  1.00  0.00    -0.304 OA
BRANCH  36  37
HETATM   37  C   UNL     1      39.186 -15.899  -4.345  1.00  0.00     0.176 C 
HETATM   38  C   UNL     1      39.930 -16.791  -3.369  1.00  0.00     0.034 C 
ENDBRANCH  36  37
ENDBRANCH  32  36
ENDBRANCH   1  26
TORSDOF 7
ENDMDL
