MODEL 1
REMARK VINA RESULT:      -8.6      0.000      0.000
REMARK  9 active torsions:
REMARK  status: ('A' for Active; 'I' for Inactive)
REMARK    1  A    between atoms: C_6  and  C_7 
REMARK    2  A    between atoms: C_7  and  C_8 
REMARK       I    between atoms: C_8  and  N_9 
REMARK    3  A    between atoms: N_9  and  C_10 
REMARK    4  A    between atoms: C_10  and  C_11 
REMARK    5  A    between atoms: C_11  and  N_12 
REMARK    6  A    between atoms: C_20  and  C_21 
REMARK    7  A    between atoms: C_24  and  C_25 
REMARK    8  A    between atoms: C_32  and  C_33 
REMARK    9  A    between atoms: C_33  and  O_34 
ROOT
HETATM    1  C   UNL     1      40.564 -17.182   6.817  1.00  0.00     0.071 C 
HETATM    2  C   UNL     1      41.335 -16.843   5.567  1.00  0.00     0.048 C 
HETATM    3  N   UNL     1      40.671 -17.195   4.395  1.00  0.00    -0.229 NA
HETATM    4  C   UNL     1      41.094 -16.657   3.301  1.00  0.00     0.170 C 
HETATM    5  N   UNL     1      42.308 -15.699   3.268  1.00  0.00    -0.319 N 
HETATM    6  C   UNL     1      42.102 -14.755   2.416  1.00  0.00     0.011 C 
HETATM    7  C   UNL     1      43.327 -16.108   4.262  1.00  0.00     0.166 C 
HETATM    8  S   UNL     1      40.249 -16.655   1.800  1.00  0.00    -0.086 SA
HETATM    9  C   UNL     1      41.064 -15.082   1.351  1.00  0.00     0.135 C 
HETATM   10  C   UNL     1      42.566 -16.270   5.556  1.00  0.00     0.069 C 
ENDROOT
BRANCH   6  11
HETATM   11  C   UNL     1      42.767 -13.413   2.548  1.00  0.00     0.156 C 
BRANCH  11  12
HETATM   12  C   UNL     1      41.958 -12.554   3.513  1.00  0.00     0.223 C 
HETATM   13  N   UNL     1      42.244 -12.682   4.846  1.00  0.00    -0.359 N 
HETATM   14  H   UNL     1      43.110 -13.132   5.132  1.00  0.00     0.162 HD
HETATM   15  O   UNL     1      40.987 -11.915   3.117  1.00  0.00    -0.273 OA
BRANCH  13  16
HETATM   16  C   UNL     1      41.298 -12.373   5.933  1.00  0.00     0.150 C 
BRANCH  16  17
HETATM   17  C   UNL     1      41.473 -11.037   6.702  1.00  0.00     0.254 C 
BRANCH  17  18
HETATM   18  N   UNL     1      41.526 -11.215   8.205  1.00  0.00    -0.070 N 
HETATM   19  H   UNL     1      41.468 -12.240   8.368  1.00  0.00     0.279 HD
HETATM   20  C   UNL     1      42.803 -10.741   8.858  1.00  0.00     0.235 C 
HETATM   21  C   UNL     1      42.822 -11.202  10.310  1.00  0.00     0.028 C 
HETATM   22  C   UNL     1      41.594 -10.716  11.073  1.00  0.00     0.003 C 
HETATM   23  C   UNL     1      40.304 -11.083  10.349  1.00  0.00     0.028 C 
HETATM   24  C   UNL     1      40.315 -10.627   8.896  1.00  0.00     0.235 C 
ENDBRANCH  17  18
ENDBRANCH  16  17
ENDBRANCH  13  16
ENDBRANCH  11  12
ENDBRANCH   6  11
BRANCH   7  25
HETATM   25  C   UNL     1      43.961 -17.416   3.734  1.00  0.00    -0.030 C 
HETATM   26  C   UNL     1      44.012 -17.674   2.349  1.00  0.00     0.010 C 
HETATM   27  C   UNL     1      44.183 -18.978   1.874  1.00  0.00     0.008 C 
HETATM   28  C   UNL     1      44.356 -20.046   2.762  1.00  0.00    -0.055 C 
HETATM   29  C   UNL     1      44.504 -19.759   4.122  1.00  0.00     0.008 C 
HETATM   30  C   UNL     1      44.326 -18.459   4.601  1.00  0.00     0.010 C 
BRANCH  28  31
HETATM   31  C   UNL     1      44.296 -21.479   2.259  1.00  0.00     0.010 C 
HETATM   32  C   UNL     1      44.549 -22.509   3.358  1.00  0.00     0.015 C 
HETATM   33  C   UNL     1      42.945 -21.740   1.574  1.00  0.00     0.015 C 
ENDBRANCH  28  31
ENDBRANCH   7  25
BRANCH  10  34
HETATM   34  C   UNL     1      43.289 -15.732   6.724  1.00  0.00     0.293 C 
HETATM   35  O   UNL     1      43.428 -16.375   7.750  1.00  0.00    -0.259 OA
BRANCH  34  36
HETATM   36  O   UNL     1      43.934 -14.592   6.390  1.00  0.00    -0.323 OA
HETATM   37  C   UNL     1      44.556 -13.923   7.495  1.00  0.00     0.213 C 
ENDBRANCH  34  36
ENDBRANCH  10  34
TORSDOF 9
ENDMDL
MODEL 2
REMARK VINA RESULT:      -8.4      2.484      4.426
REMARK  9 active torsions:
REMARK  status: ('A' for Active; 'I' for Inactive)
REMARK    1  A    between atoms: C_6  and  C_7 
REMARK    2  A    between atoms: C_7  and  C_8 
REMARK       I    between atoms: C_8  and  N_9 
REMARK    3  A    between atoms: N_9  and  C_10 
REMARK    4  A    between atoms: C_10  and  C_11 
REMARK    5  A    between atoms: C_11  and  N_12 
REMARK    6  A    between atoms: C_20  and  C_21 
REMARK    7  A    between atoms: C_24  and  C_25 
REMARK    8  A    between atoms: C_32  and  C_33 
REMARK    9  A    between atoms: C_33  and  O_34 
ROOT
HETATM    1  C   UNL     1      42.089 -12.746   0.301  1.00  0.00     0.071 C 
HETATM    2  C   UNL     1      41.782 -13.520   1.558  1.00  0.00     0.048 C 
HETATM    3  N   UNL     1      42.866 -13.614   2.426  1.00  0.00    -0.229 NA
HETATM    4  C   UNL     1      42.610 -13.963   3.642  1.00  0.00     0.170 C 
HETATM    5  N   UNL     1      41.179 -14.308   4.119  1.00  0.00    -0.319 N 
HETATM    6  C   UNL     1      40.997 -13.873   5.318  1.00  0.00     0.011 C 
HETATM    7  C   UNL     1      40.417 -14.982   3.043  1.00  0.00     0.166 C 
HETATM    8  S   UNL     1      43.698 -13.820   4.971  1.00  0.00    -0.086 SA
HETATM    9  C   UNL     1      42.278 -13.641   6.107  1.00  0.00     0.135 C 
HETATM   10  C   UNL     1      40.585 -14.097   1.832  1.00  0.00     0.069 C 
ENDROOT
BRANCH   6  11
HETATM   11  C   UNL     1      39.626 -13.531   5.833  1.00  0.00     0.156 C 
BRANCH  11  12
HETATM   12  C   UNL     1      39.649 -12.115   6.394  1.00  0.00     0.223 C 
HETATM   13  N   UNL     1      40.125 -11.960   7.668  1.00  0.00    -0.359 N 
HETATM   14  H   UNL     1      40.659 -12.711   8.098  1.00  0.00     0.162 HD
HETATM   15  O   UNL     1      39.104 -11.194   5.790  1.00  0.00    -0.273 OA
BRANCH  13  16
HETATM   16  C   UNL     1      39.773 -10.839   8.558  1.00  0.00     0.150 C 
BRANCH  16  17
HETATM   17  C   UNL     1      39.996 -11.013  10.083  1.00  0.00     0.254 C 
BRANCH  17  18
HETATM   18  N   UNL     1      41.455 -11.156  10.462  1.00  0.00    -0.070 N 
HETATM   19  H   UNL     1      41.713 -12.133  10.218  1.00  0.00     0.279 HD
HETATM   20  C   UNL     1      42.400 -10.252   9.705  1.00  0.00     0.235 C 
HETATM   21  C   UNL     1      43.835 -10.671  10.002  1.00  0.00     0.028 C 
HETATM   22  C   UNL     1      44.130 -10.656  11.497  1.00  0.00     0.003 C 
HETATM   23  C   UNL     1      43.101 -11.465  12.279  1.00  0.00     0.028 C 
HETATM   24  C   UNL     1      41.675 -11.041  11.954  1.00  0.00     0.235 C 
ENDBRANCH  17  18
ENDBRANCH  16  17
ENDBRANCH  13  16
ENDBRANCH  11  12
ENDBRANCH   6  11
BRANCH   7  25
HETATM   25  C   UNL     1      41.029 -16.393   2.884  1.00  0.00    -0.030 C 
HETATM   26  C   UNL     1      41.396 -17.144   4.021  1.00  0.00     0.010 C 
HETATM   27  C   UNL     1      42.306 -18.199   3.913  1.00  0.00     0.008 C 
HETATM   28  C   UNL     1      42.834 -18.565   2.670  1.00  0.00    -0.055 C 
HETATM   29  C   UNL     1      42.317 -17.952   1.525  1.00  0.00     0.008 C 
HETATM   30  C   UNL     1      41.415 -16.892   1.629  1.00  0.00     0.010 C 
BRANCH  28  31
HETATM   31  C   UNL     1      43.997 -19.541   2.588  1.00  0.00     0.010 C 
HETATM   32  C   UNL     1      44.575 -19.897   3.956  1.00  0.00     0.015 C 
HETATM   33  C   UNL     1      43.567 -20.809   1.836  1.00  0.00     0.015 C 
ENDBRANCH  28  31
ENDBRANCH   7  25
BRANCH  10  34
HETATM   34  C   UNL     1      39.341 -13.938   1.053  1.00  0.00     0.293 C 
HETATM   35  O   UNL     1      39.218 -14.399  -0.067  1.00  0.00    -0.259 OA
BRANCH  34  36
HETATM   36  O   UNL     1      38.356 -13.451   1.841  1.00  0.00    -0.323 OA
HETATM   37  C   UNL     1      38.438 -12.039   2.079  1.00  0.00     0.213 C 
ENDBRANCH  34  36
ENDBRANCH  10  34
TORSDOF 9
ENDMDL
MODEL 3
REMARK VINA RESULT:      -8.1      2.784      5.983
REMARK  9 active torsions:
REMARK  status: ('A' for Active; 'I' for Inactive)
REMARK    1  A    between atoms: C_6  and  C_7 
REMARK    2  A    between atoms: C_7  and  C_8 
REMARK       I    between atoms: C_8  and  N_9 
REMARK    3  A    between atoms: N_9  and  C_10 
REMARK    4  A    between atoms: C_10  and  C_11 
REMARK    5  A    between atoms: C_11  and  N_12 
REMARK    6  A    between atoms: C_20  and  C_21 
REMARK    7  A    between atoms: C_24  and  C_25 
REMARK    8  A    between atoms: C_32  and  C_33 
REMARK    9  A    between atoms: C_33  and  O_34 
ROOT
HETATM    1  C   UNL     1      40.525 -17.182   6.759  1.00  0.00     0.071 C 
HETATM    2  C   UNL     1      41.274 -16.894   5.483  1.00  0.00     0.048 C 
HETATM    3  N   UNL     1      40.637 -17.385   4.346  1.00  0.00    -0.229 NA
HETATM    4  C   UNL     1      41.025 -16.911   3.210  1.00  0.00     0.170 C 
HETATM    5  N   UNL     1      42.172 -15.879   3.094  1.00  0.00    -0.319 N 
HETATM    6  C   UNL     1      41.905 -15.024   2.169  1.00  0.00     0.011 C 
HETATM    7  C   UNL     1      43.214 -16.138   4.114  1.00  0.00     0.166 C 
HETATM    8  S   UNL     1      40.184 -17.086   1.716  1.00  0.00    -0.086 SA
HETATM    9  C   UNL     1      40.893 -15.505   1.138  1.00  0.00     0.135 C 
HETATM   10  C   UNL     1      42.464 -16.244   5.420  1.00  0.00     0.069 C 
ENDROOT
BRANCH   6  11
HETATM   11  C   UNL     1      42.479 -13.634   2.189  1.00  0.00     0.156 C 
BRANCH  11  12
HETATM   12  C   UNL     1      41.960 -12.868   0.979  1.00  0.00     0.223 C 
HETATM   13  N   UNL     1      40.624 -12.571   0.959  1.00  0.00    -0.359 N 
HETATM   14  H   UNL     1      40.082 -12.640   1.817  1.00  0.00     0.162 HD
HETATM   15  O   UNL     1      42.680 -12.684   0.001  1.00  0.00    -0.273 OA
BRANCH  13  16
HETATM   16  C   UNL     1      39.846 -12.322  -0.268  1.00  0.00     0.150 C 
BRANCH  16  17
HETATM   17  C   UNL     1      38.575 -13.176  -0.519  1.00  0.00     0.254 C 
BRANCH  17  18
HETATM   18  N   UNL     1      38.772 -14.244  -1.575  1.00  0.00    -0.070 N 
HETATM   19  H   UNL     1      38.635 -15.151  -1.085  1.00  0.00     0.279 HD
HETATM   20  C   UNL     1      37.777 -14.207  -2.711  1.00  0.00     0.235 C 
HETATM   21  C   UNL     1      37.935 -15.467  -3.553  1.00  0.00     0.028 C 
HETATM   22  C   UNL     1      39.361 -15.627  -4.069  1.00  0.00     0.003 C 
HETATM   23  C   UNL     1      40.379 -15.537  -2.937  1.00  0.00     0.028 C 
HETATM   24  C   UNL     1      40.191 -14.280  -2.099  1.00  0.00     0.235 C 
ENDBRANCH  17  18
ENDBRANCH  16  17
ENDBRANCH  13  16
ENDBRANCH  11  12
ENDBRANCH   6  11
BRANCH   7  25
HETATM   25  C   UNL     1      43.935 -17.439   3.692  1.00  0.00    -0.030 C 
HETATM   26  C   UNL     1      44.051 -17.779   2.328  1.00  0.00     0.010 C 
HETATM   27  C   UNL     1      44.306 -19.099   1.943  1.00  0.00     0.008 C 
HETATM   28  C   UNL     1      44.502 -20.099   2.903  1.00  0.00    -0.055 C 
HETATM   29  C   UNL     1      44.585 -19.720   4.246  1.00  0.00     0.008 C 
HETATM   30  C   UNL     1      44.322 -18.406   4.635  1.00  0.00     0.010 C 
BRANCH  28  31
HETATM   31  C   UNL     1      44.536 -21.562   2.490  1.00  0.00     0.010 C 
HETATM   32  C   UNL     1      44.554 -22.518   3.680  1.00  0.00     0.015 C 
HETATM   33  C   UNL     1      43.351 -21.873   1.563  1.00  0.00     0.015 C 
ENDBRANCH  28  31
ENDBRANCH   7  25
BRANCH  10  34
HETATM   34  C   UNL     1      43.148 -15.566   6.538  1.00  0.00     0.293 C 
HETATM   35  O   UNL     1      43.559 -16.176   7.509  1.00  0.00    -0.259 OA
BRANCH  34  36
HETATM   36  O   UNL     1      43.438 -14.289   6.203  1.00  0.00    -0.323 OA
HETATM   37  C   UNL     1      44.730 -13.846   6.637  1.00  0.00     0.213 C 
ENDBRANCH  34  36
ENDBRANCH  10  34
TORSDOF 9
ENDMDL
MODEL 4
REMARK VINA RESULT:      -7.7      5.353      7.362
REMARK  9 active torsions:
REMARK  status: ('A' for Active; 'I' for Inactive)
REMARK    1  A    between atoms: C_6  and  C_7 
REMARK    2  A    between atoms: C_7  and  C_8 
REMARK       I    between atoms: C_8  and  N_9 
REMARK    3  A    between atoms: N_9  and  C_10 
REMARK    4  A    between atoms: C_10  and  C_11 
REMARK    5  A    between atoms: C_11  and  N_12 
REMARK    6  A    between atoms: C_20  and  C_21 
REMARK    7  A    between atoms: C_24  and  C_25 
REMARK    8  A    between atoms: C_32  and  C_33 
REMARK    9  A    between atoms: C_33  and  O_34 
ROOT
HETATM    1  C   UNL     1      42.659 -12.663  -2.283  1.00  0.00     0.071 C 
HETATM    2  C   UNL     1      41.794 -13.168  -1.157  1.00  0.00     0.048 C 
HETATM    3  N   UNL     1      41.976 -12.471   0.035  1.00  0.00    -0.229 NA
HETATM    4  C   UNL     1      41.065 -12.613   0.938  1.00  0.00     0.170 C 
HETATM    5  N   UNL     1      39.845 -13.543   0.742  1.00  0.00    -0.319 N 
HETATM    6  C   UNL     1      38.795 -13.010   1.264  1.00  0.00     0.011 C 
HETATM    7  C   UNL     1      40.223 -14.745  -0.037  1.00  0.00     0.166 C 
HETATM    8  S   UNL     1      40.877 -11.615   2.330  1.00  0.00    -0.086 SA
HETATM    9  C   UNL     1      39.083 -11.960   2.328  1.00  0.00     0.135 C 
HETATM   10  C   UNL     1      40.932 -14.211  -1.258  1.00  0.00     0.069 C 
ENDROOT
BRANCH   6  11
HETATM   11  C   UNL     1      37.414 -13.340   0.769  1.00  0.00     0.156 C 
BRANCH  11  12
HETATM   12  C   UNL     1      36.723 -12.052   0.340  1.00  0.00     0.223 C 
HETATM   13  N   UNL     1      35.630 -11.662   1.068  1.00  0.00    -0.359 N 
HETATM   14  H   UNL     1      35.462 -12.078   1.981  1.00  0.00     0.162 HD
HETATM   15  O   UNL     1      37.034 -11.495  -0.709  1.00  0.00    -0.273 OA
BRANCH  13  16
HETATM   16  C   UNL     1      34.553 -10.797   0.553  1.00  0.00     0.150 C 
BRANCH  16  17
HETATM   17  C   UNL     1      33.280 -10.614   1.421  1.00  0.00     0.254 C 
BRANCH  17  18
HETATM   18  N   UNL     1      33.578 -10.150   2.831  1.00  0.00    -0.070 N 
HETATM   19  H   UNL     1      34.200 -10.877   3.239  1.00  0.00     0.279 HD
HETATM   20  C   UNL     1      34.320  -8.837   2.925  1.00  0.00     0.235 C 
HETATM   21  C   UNL     1      34.767  -8.619   4.365  1.00  0.00     0.028 C 
HETATM   22  C   UNL     1      33.591  -8.664   5.335  1.00  0.00     0.003 C 
HETATM   23  C   UNL     1      32.764  -9.932   5.154  1.00  0.00     0.028 C 
HETATM   24  C   UNL     1      32.344 -10.138   3.705  1.00  0.00     0.235 C 
ENDBRANCH  17  18
ENDBRANCH  16  17
ENDBRANCH  13  16
ENDBRANCH  11  12
ENDBRANCH   6  11
BRANCH   7  25
HETATM   25  C   UNL     1      41.115 -15.608   0.885  1.00  0.00    -0.030 C 
HETATM   26  C   UNL     1      42.291 -16.203   0.385  1.00  0.00     0.010 C 
HETATM   27  C   UNL     1      42.873 -17.292   1.041  1.00  0.00     0.008 C 
HETATM   28  C   UNL     1      42.329 -17.782   2.234  1.00  0.00    -0.055 C 
HETATM   29  C   UNL     1      41.286 -17.066   2.829  1.00  0.00     0.008 C 
HETATM   30  C   UNL     1      40.697 -15.984   2.172  1.00  0.00     0.010 C 
BRANCH  28  31
HETATM   31  C   UNL     1      42.811 -19.104   2.810  1.00  0.00     0.010 C 
HETATM   32  C   UNL     1      43.585 -19.948   1.801  1.00  0.00     0.015 C 
HETATM   33  C   UNL     1      43.657 -18.852   4.067  1.00  0.00     0.015 C 
ENDBRANCH  28  31
ENDBRANCH   7  25
BRANCH  10  34
HETATM   34  C   UNL     1      40.562 -14.920  -2.499  1.00  0.00     0.293 C 
HETATM   35  O   UNL     1      41.343 -15.651  -3.082  1.00  0.00    -0.259 OA
BRANCH  34  36
HETATM   36  O   UNL     1      39.231 -14.820  -2.715  1.00  0.00    -0.323 OA
HETATM   37  C   UNL     1      38.815 -13.557  -3.249  1.00  0.00     0.213 C 
ENDBRANCH  34  36
ENDBRANCH  10  34
TORSDOF 9
ENDMDL
MODEL 5
REMARK VINA RESULT:      -7.5      5.183      8.327
REMARK  9 active torsions:
REMARK  status: ('A' for Active; 'I' for Inactive)
REMARK    1  A    between atoms: C_6  and  C_7 
REMARK    2  A    between atoms: C_7  and  C_8 
REMARK       I    between atoms: C_8  and  N_9 
REMARK    3  A    between atoms: N_9  and  C_10 
REMARK    4  A    between atoms: C_10  and  C_11 
REMARK    5  A    between atoms: C_11  and  N_12 
REMARK    6  A    between atoms: C_20  and  C_21 
REMARK    7  A    between atoms: C_24  and  C_25 
REMARK    8  A    between atoms: C_32  and  C_33 
REMARK    9  A    between atoms: C_33  and  O_34 
ROOT
HETATM    1  C   UNL     1      42.836 -12.871  -2.423  1.00  0.00     0.071 C 
HETATM    2  C   UNL     1      41.960 -13.322  -1.283  1.00  0.00     0.048 C 
HETATM    3  N   UNL     1      42.154 -12.592  -0.114  1.00  0.00    -0.229 NA
HETATM    4  C   UNL     1      41.239 -12.686   0.791  1.00  0.00     0.170 C 
HETATM    5  N   UNL     1      40.000 -13.596   0.622  1.00  0.00    -0.319 N 
HETATM    6  C   UNL     1      38.960 -13.025   1.124  1.00  0.00     0.011 C 
HETATM    7  C   UNL     1      40.353 -14.829  -0.118  1.00  0.00     0.166 C 
HETATM    8  S   UNL     1      41.070 -11.640   2.150  1.00  0.00    -0.086 SA
HETATM    9  C   UNL     1      39.269 -11.947   2.155  1.00  0.00     0.135 C 
HETATM   10  C   UNL     1      41.076 -14.350  -1.354  1.00  0.00     0.069 C 
ENDROOT
BRANCH   6  11
HETATM   11  C   UNL     1      37.573 -13.340   0.637  1.00  0.00     0.156 C 
BRANCH  11  12
HETATM   12  C   UNL     1      37.194 -12.346  -0.453  1.00  0.00     0.223 C 
HETATM   13  N   UNL     1      37.745 -12.542  -1.691  1.00  0.00    -0.359 N 
HETATM   14  H   UNL     1      38.170 -13.439  -1.913  1.00  0.00     0.162 HD
HETATM   15  O   UNL     1      36.565 -11.327  -0.179  1.00  0.00    -0.273 OA
BRANCH  13  16
HETATM   16  C   UNL     1      37.935 -11.481  -2.695  1.00  0.00     0.150 C 
BRANCH  16  17
HETATM   17  C   UNL     1      38.951 -11.726  -3.842  1.00  0.00     0.254 C 
BRANCH  17  18
HETATM   18  N   UNL     1      40.265 -10.999  -3.643  1.00  0.00    -0.070 N 
HETATM   19  H   UNL     1      40.932 -11.716  -3.296  1.00  0.00     0.279 HD
HETATM   20  C   UNL     1      40.866 -10.416  -4.901  1.00  0.00     0.235 C 
HETATM   21  C   UNL     1      42.282  -9.940  -4.602  1.00  0.00     0.028 C 
HETATM   22  C   UNL     1      42.310  -8.936  -3.455  1.00  0.00     0.003 C 
HETATM   23  C   UNL     1      41.591  -9.473  -2.223  1.00  0.00     0.028 C 
HETATM   24  C   UNL     1      40.185  -9.958  -2.549  1.00  0.00     0.235 C 
ENDBRANCH  17  18
ENDBRANCH  16  17
ENDBRANCH  13  16
ENDBRANCH  11  12
ENDBRANCH   6  11
BRANCH   7  25
HETATM   25  C   UNL     1      41.225 -15.681   0.832  1.00  0.00    -0.030 C 
HETATM   26  C   UNL     1      42.424 -16.263   0.371  1.00  0.00     0.010 C 
HETATM   27  C   UNL     1      42.997 -17.345   1.047  1.00  0.00     0.008 C 
HETATM   28  C   UNL     1      42.421 -17.840   2.222  1.00  0.00    -0.055 C 
HETATM   29  C   UNL     1      41.351 -17.136   2.783  1.00  0.00     0.008 C 
HETATM   30  C   UNL     1      40.771 -16.061   2.107  1.00  0.00     0.010 C 
BRANCH  28  31
HETATM   31  C   UNL     1      42.899 -19.156   2.815  1.00  0.00     0.010 C 
HETATM   32  C   UNL     1      43.491 -20.100   1.772  1.00  0.00     0.015 C 
HETATM   33  C   UNL     1      43.910 -18.888   3.940  1.00  0.00     0.015 C 
ENDBRANCH  28  31
ENDBRANCH   7  25
BRANCH  10  34
HETATM   34  C   UNL     1      40.693 -15.089  -2.572  1.00  0.00     0.293 C 
HETATM   35  O   UNL     1      41.460 -15.853  -3.132  1.00  0.00    -0.259 OA
BRANCH  34  36
HETATM   36  O   UNL     1      39.364 -14.971  -2.793  1.00  0.00    -0.323 OA
HETATM   37  C   UNL     1      38.874 -15.773  -3.876  1.00  0.00     0.213 C 
ENDBRANCH  34  36
ENDBRANCH  10  34
TORSDOF 9
ENDMDL
MODEL 6
REMARK VINA RESULT:      -7.5      3.486      6.725
REMARK  9 active torsions:
REMARK  status: ('A' for Active; 'I' for Inactive)
REMARK    1  A    between atoms: C_6  and  C_7 
REMARK    2  A    between atoms: C_7  and  C_8 
REMARK       I    between atoms: C_8  and  N_9 
REMARK    3  A    between atoms: N_9  and  C_10 
REMARK    4  A    between atoms: C_10  and  C_11 
REMARK    5  A    between atoms: C_11  and  N_12 
REMARK    6  A    between atoms: C_20  and  C_21 
REMARK    7  A    between atoms: C_24  and  C_25 
REMARK    8  A    between atoms: C_32  and  C_33 
REMARK    9  A    between atoms: C_33  and  O_34 
ROOT
HETATM    1  C   UNL     1      40.083 -14.453   6.211  1.00  0.00     0.071 C 
HETATM    2  C   UNL     1      40.631 -14.610   4.816  1.00  0.00     0.048 C 
HETATM    3  N   UNL     1      39.673 -15.002   3.886  1.00  0.00    -0.229 NA
HETATM    4  C   UNL     1      39.970 -14.844   2.640  1.00  0.00     0.170 C 
HETATM    5  N   UNL     1      41.339 -14.288   2.182  1.00  0.00    -0.319 N 
HETATM    6  C   UNL     1      41.185 -13.524   1.156  1.00  0.00     0.011 C 
HETATM    7  C   UNL     1      42.420 -14.746   3.086  1.00  0.00     0.166 C 
HETATM    8  S   UNL     1      38.853 -14.921   1.330  1.00  0.00    -0.086 SA
HETATM    9  C   UNL     1      39.899 -13.766   0.377  1.00  0.00     0.135 C 
HETATM   10  C   UNL     1      41.931 -14.416   4.476  1.00  0.00     0.069 C 
ENDROOT
BRANCH   6  11
HETATM   11  C   UNL     1      42.157 -12.422   0.840  1.00  0.00     0.156 C 
BRANCH  11  12
HETATM   12  C   UNL     1      42.111 -12.137  -0.656  1.00  0.00     0.223 C 
HETATM   13  N   UNL     1      41.094 -11.337  -1.104  1.00  0.00    -0.359 N 
HETATM   14  H   UNL     1      40.568 -10.776  -0.438  1.00  0.00     0.162 HD
HETATM   15  O   UNL     1      42.851 -12.738  -1.430  1.00  0.00    -0.273 OA
BRANCH  13  16
HETATM   16  C   UNL     1      40.567 -11.353  -2.480  1.00  0.00     0.150 C 
BRANCH  16  17
HETATM   17  C   UNL     1      39.090 -11.775  -2.698  1.00  0.00     0.254 C 
BRANCH  17  18
HETATM   18  N   UNL     1      38.919 -13.265  -2.912  1.00  0.00    -0.070 N 
HETATM   19  H   UNL     1      38.856 -13.678  -1.960  1.00  0.00     0.279 HD
HETATM   20  C   UNL     1      37.659 -13.662  -3.644  1.00  0.00     0.235 C 
HETATM   21  C   UNL     1      37.495 -15.174  -3.570  1.00  0.00     0.028 C 
HETATM   22  C   UNL     1      38.713 -15.904  -4.125  1.00  0.00     0.003 C 
HETATM   23  C   UNL     1      40.003 -15.413  -3.475  1.00  0.00     0.028 C 
HETATM   24  C   UNL     1      40.137 -13.898  -3.547  1.00  0.00     0.235 C 
ENDBRANCH  17  18
ENDBRANCH  16  17
ENDBRANCH  13  16
ENDBRANCH  11  12
ENDBRANCH   6  11
BRANCH   7  25
HETATM   25  C   UNL     1      42.605 -16.258   2.824  1.00  0.00    -0.030 C 
HETATM   26  C   UNL     1      42.498 -17.184   3.883  1.00  0.00     0.010 C 
HETATM   27  C   UNL     1      43.057 -18.460   3.771  1.00  0.00     0.008 C 
HETATM   28  C   UNL     1      43.689 -18.864   2.589  1.00  0.00    -0.055 C 
HETATM   29  C   UNL     1      43.616 -18.019   1.478  1.00  0.00     0.008 C 
HETATM   30  C   UNL     1      43.067 -16.741   1.588  1.00  0.00     0.010 C 
BRANCH  28  31
HETATM   31  C   UNL     1      44.502 -20.148   2.555  1.00  0.00     0.010 C 
HETATM   32  C   UNL     1      44.923 -20.626   3.943  1.00  0.00     0.015 C 
HETATM   33  C   UNL     1      43.720 -21.246   1.819  1.00  0.00     0.015 C 
ENDBRANCH  28  31
ENDBRANCH   7  25
BRANCH  10  34
HETATM   34  C   UNL     1      42.989 -13.867   5.346  1.00  0.00     0.293 C 
HETATM   35  O   UNL     1      43.386 -12.721   5.235  1.00  0.00    -0.259 OA
BRANCH  34  36
HETATM   36  O   UNL     1      43.238 -14.714   6.370  1.00  0.00    -0.323 OA
HETATM   37  C   UNL     1      44.623 -15.048   6.533  1.00  0.00     0.213 C 
ENDBRANCH  34  36
ENDBRANCH  10  34
TORSDOF 9
ENDMDL
MODEL 7
REMARK VINA RESULT:      -7.3      2.976      5.657
REMARK  9 active torsions:
REMARK  status: ('A' for Active; 'I' for Inactive)
REMARK    1  A    between atoms: C_6  and  C_7 
REMARK    2  A    between atoms: C_7  and  C_8 
REMARK       I    between atoms: C_8  and  N_9 
REMARK    3  A    between atoms: N_9  and  C_10 
REMARK    4  A    between atoms: C_10  and  C_11 
REMARK    5  A    between atoms: C_11  and  N_12 
REMARK    6  A    between atoms: C_20  and  C_21 
REMARK    7  A    between atoms: C_24  and  C_25 
REMARK    8  A    between atoms: C_32  and  C_33 
REMARK    9  A    between atoms: C_33  and  O_34 
ROOT
HETATM    1  C   UNL     1      40.685 -16.735   6.893  1.00  0.00     0.071 C 
HETATM    2  C   UNL     1      41.400 -16.588   5.575  1.00  0.00     0.048 C 
HETATM    3  N   UNL     1      40.656 -17.044   4.489  1.00  0.00    -0.229 NA
HETATM    4  C   UNL     1      41.042 -16.664   3.318  1.00  0.00     0.170 C 
HETATM    5  N   UNL     1      42.294 -15.781   3.106  1.00  0.00    -0.319 N 
HETATM    6  C   UNL     1      42.084 -14.937   2.156  1.00  0.00     0.011 C 
HETATM    7  C   UNL     1      43.347 -16.121   4.091  1.00  0.00     0.166 C 
HETATM    8  S   UNL     1      40.115 -16.798   1.871  1.00  0.00    -0.086 SA
HETATM    9  C   UNL     1      40.974 -15.335   1.192  1.00  0.00     0.135 C 
HETATM   10  C   UNL     1      42.652 -16.086   5.432  1.00  0.00     0.069 C 
ENDROOT
BRANCH   6  11
HETATM   11  C   UNL     1      42.815 -13.625   2.090  1.00  0.00     0.156 C 
BRANCH  11  12
HETATM   12  C   UNL     1      41.797 -12.496   1.990  1.00  0.00     0.223 C 
HETATM   13  N   UNL     1      41.939 -11.625   0.944  1.00  0.00    -0.359 N 
HETATM   14  H   UNL     1      42.531 -11.878   0.157  1.00  0.00     0.162 HD
HETATM   15  O   UNL     1      41.002 -12.289   2.903  1.00  0.00    -0.273 OA
BRANCH  13  16
HETATM   16  C   UNL     1      41.432 -10.241   0.939  1.00  0.00     0.150 C 
BRANCH  16  17
HETATM   17  C   UNL     1      40.765  -9.706  -0.355  1.00  0.00     0.254 C 
BRANCH  17  18
HETATM   18  N   UNL     1      41.245 -10.407  -1.609  1.00  0.00    -0.070 N 
HETATM   19  H   UNL     1      42.008 -11.041  -1.300  1.00  0.00     0.279 HD
HETATM   20  C   UNL     1      40.209 -11.269  -2.292  1.00  0.00     0.235 C 
HETATM   21  C   UNL     1      40.888 -12.097  -3.377  1.00  0.00     0.028 C 
HETATM   22  C   UNL     1      41.627 -11.217  -4.379  1.00  0.00     0.003 C 
HETATM   23  C   UNL     1      42.582 -10.255  -3.682  1.00  0.00     0.028 C 
HETATM   24  C   UNL     1      41.887  -9.451  -2.591  1.00  0.00     0.235 C 
ENDBRANCH  17  18
ENDBRANCH  16  17
ENDBRANCH  13  16
ENDBRANCH  11  12
ENDBRANCH   6  11
BRANCH   7  25
HETATM   25  C   UNL     1      43.890 -17.513   3.697  1.00  0.00    -0.030 C 
HETATM   26  C   UNL     1      43.909 -17.914   2.345  1.00  0.00     0.010 C 
HETATM   27  C   UNL     1      43.991 -19.268   2.006  1.00  0.00     0.008 C 
HETATM   28  C   UNL     1      44.105 -20.249   2.997  1.00  0.00    -0.055 C 
HETATM   29  C   UNL     1      44.287 -19.835   4.320  1.00  0.00     0.008 C 
HETATM   30  C   UNL     1      44.198 -18.485   4.664  1.00  0.00     0.010 C 
BRANCH  28  31
HETATM   31  C   UNL     1      43.948 -21.719   2.644  1.00  0.00     0.010 C 
HETATM   32  C   UNL     1      44.373 -22.037   1.212  1.00  0.00     0.015 C 
HETATM   33  C   UNL     1      44.726 -22.587   3.644  1.00  0.00     0.015 C 
ENDBRANCH  28  31
ENDBRANCH   7  25
BRANCH  10  34
HETATM   34  C   UNL     1      43.464 -15.450   6.488  1.00  0.00     0.293 C 
HETATM   35  O   UNL     1      43.909 -16.083   7.429  1.00  0.00    -0.259 OA
BRANCH  34  36
HETATM   36  O   UNL     1      43.808 -14.195   6.120  1.00  0.00    -0.323 OA
HETATM   37  C   UNL     1      42.710 -13.277   6.062  1.00  0.00     0.213 C 
ENDBRANCH  34  36
ENDBRANCH  10  34
TORSDOF 9
ENDMDL
MODEL 8
REMARK VINA RESULT:      -7.3      2.587      7.818
REMARK  9 active torsions:
REMARK  status: ('A' for Active; 'I' for Inactive)
REMARK    1  A    between atoms: C_6  and  C_7 
REMARK    2  A    between atoms: C_7  and  C_8 
REMARK       I    between atoms: C_8  and  N_9 
REMARK    3  A    between atoms: N_9  and  C_10 
REMARK    4  A    between atoms: C_10  and  C_11 
REMARK    5  A    between atoms: C_11  and  N_12 
REMARK    6  A    between atoms: C_20  and  C_21 
REMARK    7  A    between atoms: C_24  and  C_25 
REMARK    8  A    between atoms: C_32  and  C_33 
REMARK    9  A    between atoms: C_33  and  O_34 
ROOT
HETATM    1  C   UNL     1      41.113  -9.997   4.319  1.00  0.00     0.071 C 
HETATM    2  C   UNL     1      41.014 -11.487   4.115  1.00  0.00     0.048 C 
HETATM    3  N   UNL     1      42.137 -12.037   3.501  1.00  0.00    -0.229 NA
HETATM    4  C   UNL     1      42.279 -13.317   3.584  1.00  0.00     0.170 C 
HETATM    5  N   UNL     1      41.239 -14.219   4.289  1.00  0.00    -0.319 N 
HETATM    6  C   UNL     1      41.836 -15.169   4.923  1.00  0.00     0.011 C 
HETATM    7  C   UNL     1      39.868 -13.700   4.081  1.00  0.00     0.166 C 
HETATM    8  S   UNL     1      43.722 -14.185   3.221  1.00  0.00    -0.086 SA
HETATM    9  C   UNL     1      43.241 -15.475   4.423  1.00  0.00     0.135 C 
HETATM   10  C   UNL     1      39.941 -12.241   4.464  1.00  0.00     0.069 C 
ENDROOT
BRANCH   6  11
HETATM   11  C   UNL     1      41.214 -15.830   6.121  1.00  0.00     0.156 C 
BRANCH  11  12
HETATM   12  C   UNL     1      41.651 -17.289   6.163  1.00  0.00     0.223 C 
HETATM   13  N   UNL     1      42.626 -17.619   7.064  1.00  0.00    -0.359 N 
HETATM   14  H   UNL     1      42.849 -16.975   7.820  1.00  0.00     0.162 HD
HETATM   15  O   UNL     1      41.264 -18.082   5.308  1.00  0.00    -0.273 OA
BRANCH  13  16
HETATM   16  C   UNL     1      43.527 -18.778   6.929  1.00  0.00     0.150 C 
BRANCH  16  17
HETATM   17  C   UNL     1      44.561 -18.775   5.773  1.00  0.00     0.254 C 
BRANCH  17  18
HETATM   18  N   UNL     1      44.156 -19.650   4.605  1.00  0.00    -0.070 N 
HETATM   19  H   UNL     1      43.222 -20.033   4.854  1.00  0.00     0.279 HD
HETATM   20  C   UNL     1      43.995 -18.923   3.291  1.00  0.00     0.235 C 
HETATM   21  C   UNL     1      43.353 -19.863   2.277  1.00  0.00     0.028 C 
HETATM   22  C   UNL     1      44.159 -21.146   2.108  1.00  0.00     0.003 C 
HETATM   23  C   UNL     1      44.433 -21.817   3.449  1.00  0.00     0.028 C 
HETATM   24  C   UNL     1      45.058 -20.855   4.450  1.00  0.00     0.235 C 
ENDBRANCH  17  18
ENDBRANCH  16  17
ENDBRANCH  13  16
ENDBRANCH  11  12
ENDBRANCH   6  11
BRANCH   7  25
HETATM   25  C   UNL     1      39.522 -13.945   2.594  1.00  0.00    -0.030 C 
HETATM   26  C   UNL     1      40.115 -15.015   1.892  1.00  0.00     0.010 C 
HETATM   27  C   UNL     1      40.154 -15.013   0.494  1.00  0.00     0.008 C 
HETATM   28  C   UNL     1      39.562 -13.977  -0.237  1.00  0.00    -0.055 C 
HETATM   29  C   UNL     1      38.805 -13.028   0.455  1.00  0.00     0.008 C 
HETATM   30  C   UNL     1      38.770 -13.021   1.850  1.00  0.00     0.010 C 
BRANCH  28  31
HETATM   31  C   UNL     1      39.816 -13.851  -1.731  1.00  0.00     0.010 C 
HETATM   32  C   UNL     1      38.558 -13.501  -2.522  1.00  0.00     0.015 C 
HETATM   33  C   UNL     1      40.924 -12.819  -1.991  1.00  0.00     0.015 C 
ENDBRANCH  28  31
ENDBRANCH   7  25
BRANCH  10  34
HETATM   34  C   UNL     1      38.771 -11.787   5.241  1.00  0.00     0.293 C 
HETATM   35  O   UNL     1      37.952 -11.012   4.780  1.00  0.00    -0.259 OA
BRANCH  34  36
HETATM   36  O   UNL     1      38.646 -12.521   6.369  1.00  0.00    -0.323 OA
HETATM   37  C   UNL     1      39.439 -12.051   7.467  1.00  0.00     0.213 C 
ENDBRANCH  34  36
ENDBRANCH  10  34
TORSDOF 9
ENDMDL
MODEL 9
REMARK VINA RESULT:      -7.2      5.316      8.883
REMARK  9 active torsions:
REMARK  status: ('A' for Active; 'I' for Inactive)
REMARK    1  A    between atoms: C_6  and  C_7 
REMARK    2  A    between atoms: C_7  and  C_8 
REMARK       I    between atoms: C_8  and  N_9 
REMARK    3  A    between atoms: N_9  and  C_10 
REMARK    4  A    between atoms: C_10  and  C_11 
REMARK    5  A    between atoms: C_11  and  N_12 
REMARK    6  A    between atoms: C_20  and  C_21 
REMARK    7  A    between atoms: C_24  and  C_25 
REMARK    8  A    between atoms: C_32  and  C_33 
REMARK    9  A    between atoms: C_33  and  O_34 
ROOT
HETATM    1  C   UNL     1      42.766 -12.887  -2.037  1.00  0.00     0.071 C 
HETATM    2  C   UNL     1      41.865 -13.527  -1.013  1.00  0.00     0.048 C 
HETATM    3  N   UNL     1      42.076 -13.056   0.280  1.00  0.00    -0.229 NA
HETATM    4  C   UNL     1      41.151 -13.297   1.147  1.00  0.00     0.170 C 
HETATM    5  N   UNL     1      39.881 -14.109   0.796  1.00  0.00    -0.319 N 
HETATM    6  C   UNL     1      38.859 -13.613   1.403  1.00  0.00     0.011 C 
HETATM    7  C   UNL     1      40.197 -15.179  -0.178  1.00  0.00     0.166 C 
HETATM    8  S   UNL     1      41.008 -12.542   2.689  1.00  0.00    -0.086 SA
HETATM    9  C   UNL     1      39.197 -12.779   2.631  1.00  0.00     0.135 C 
HETATM   10  C   UNL     1      40.946 -14.486  -1.290  1.00  0.00     0.069 C 
ENDROOT
BRANCH   6  11
HETATM   11  C   UNL     1      37.465 -13.773   0.860  1.00  0.00     0.156 C 
BRANCH  11  12
HETATM   12  C   UNL     1      37.158 -12.603  -0.066  1.00  0.00     0.223 C 
HETATM   13  N   UNL     1      37.913 -12.497  -1.203  1.00  0.00    -0.359 N 
HETATM   14  H   UNL     1      38.461 -13.295  -1.517  1.00  0.00     0.162 HD
HETATM   15  O   UNL     1      36.390 -11.712   0.287  1.00  0.00    -0.273 OA
BRANCH  13  16
HETATM   16  C   UNL     1      38.145 -11.239  -1.934  1.00  0.00     0.150 C 
BRANCH  16  17
HETATM   17  C   UNL     1      37.614 -11.124  -3.388  1.00  0.00     0.254 C 
BRANCH  17  18
HETATM   18  N   UNL     1      36.225 -11.703  -3.564  1.00  0.00    -0.070 N 
HETATM   19  H   UNL     1      36.125 -12.422  -2.821  1.00  0.00     0.279 HD
HETATM   20  C   UNL     1      35.096 -10.717  -3.373  1.00  0.00     0.235 C 
HETATM   21  C   UNL     1      33.775 -11.474  -3.333  1.00  0.00     0.028 C 
HETATM   22  C   UNL     1      33.569 -12.319  -4.585  1.00  0.00     0.003 C 
HETATM   23  C   UNL     1      34.765 -13.225  -4.852  1.00  0.00     0.028 C 
HETATM   24  C   UNL     1      36.076 -12.449  -4.872  1.00  0.00     0.235 C 
ENDBRANCH  17  18
ENDBRANCH  16  17
ENDBRANCH  13  16
ENDBRANCH  11  12
ENDBRANCH   6  11
BRANCH   7  25
HETATM   25  C   UNL     1      41.030 -16.237   0.582  1.00  0.00    -0.030 C 
HETATM   26  C   UNL     1      40.601 -16.716   1.837  1.00  0.00     0.010 C 
HETATM   27  C   UNL     1      41.504 -17.327   2.712  1.00  0.00     0.008 C 
HETATM   28  C   UNL     1      42.839 -17.522   2.341  1.00  0.00    -0.055 C 
HETATM   29  C   UNL     1      43.210 -17.228   1.026  1.00  0.00     0.008 C 
HETATM   30  C   UNL     1      42.314 -16.610   0.152  1.00  0.00     0.010 C 
BRANCH  28  31
HETATM   31  C   UNL     1      43.866 -17.958   3.374  1.00  0.00     0.010 C 
HETATM   32  C   UNL     1      43.428 -17.672   4.809  1.00  0.00     0.015 C 
HETATM   33  C   UNL     1      44.191 -19.449   3.194  1.00  0.00     0.015 C 
ENDBRANCH  28  31
ENDBRANCH   7  25
BRANCH  10  34
HETATM   34  C   UNL     1      40.547 -14.950  -2.634  1.00  0.00     0.293 C 
HETATM   35  O   UNL     1      41.081 -15.904  -3.172  1.00  0.00    -0.259 OA
BRANCH  34  36
HETATM   36  O   UNL     1      39.406 -14.336  -3.020  1.00  0.00    -0.323 OA
HETATM   37  C   UNL     1      38.442 -15.211  -3.620  1.00  0.00     0.213 C 
ENDBRANCH  34  36
ENDBRANCH  10  34
TORSDOF 9
ENDMDL
MODEL 10
REMARK VINA RESULT:      -7.1      3.190      5.911
REMARK  9 active torsions:
REMARK  status: ('A' for Active; 'I' for Inactive)
REMARK    1  A    between atoms: C_6  and  C_7 
REMARK    2  A    between atoms: C_7  and  C_8 
REMARK       I    between atoms: C_8  and  N_9 
REMARK    3  A    between atoms: N_9  and  C_10 
REMARK    4  A    between atoms: C_10  and  C_11 
REMARK    5  A    between atoms: C_11  and  N_12 
REMARK    6  A    between atoms: C_20  and  C_21 
REMARK    7  A    between atoms: C_24  and  C_25 
REMARK    8  A    between atoms: C_32  and  C_33 
REMARK    9  A    between atoms: C_33  and  O_34 
ROOT
HETATM    1  C   UNL     1      41.946 -12.839   0.183  1.00  0.00     0.071 C 
HETATM    2  C   UNL     1      41.671 -13.600   1.454  1.00  0.00     0.048 C 
HETATM    3  N   UNL     1      42.764 -13.651   2.315  1.00  0.00    -0.229 NA
HETATM    4  C   UNL     1      42.528 -13.987   3.539  1.00  0.00     0.170 C 
HETATM    5  N   UNL     1      41.111 -14.361   4.034  1.00  0.00    -0.319 N 
HETATM    6  C   UNL     1      40.927 -13.911   5.227  1.00  0.00     0.011 C 
HETATM    7  C   UNL     1      40.358 -15.073   2.976  1.00  0.00     0.166 C 
HETATM    8  S   UNL     1      43.623 -13.793   4.855  1.00  0.00    -0.086 SA
HETATM    9  C   UNL     1      42.209 -13.632   6.000  1.00  0.00     0.135 C 
HETATM   10  C   UNL     1      40.492 -14.204   1.749  1.00  0.00     0.069 C 
ENDROOT
BRANCH   6  11
HETATM   11  C   UNL     1      39.552 -13.597   5.748  1.00  0.00     0.156 C 
BRANCH  11  12
HETATM   12  C   UNL     1      39.415 -12.087   5.900  1.00  0.00     0.223 C 
HETATM   13  N   UNL     1      39.688 -11.326   4.796  1.00  0.00    -0.359 N 
HETATM   14  H   UNL     1      39.729 -11.767   3.880  1.00  0.00     0.162 HD
HETATM   15  O   UNL     1      39.236 -11.584   7.006  1.00  0.00    -0.273 OA
BRANCH  13  16
HETATM   16  C   UNL     1      40.111  -9.915   4.842  1.00  0.00     0.150 C 
BRANCH  16  17
HETATM   17  C   UNL     1      39.582  -8.952   3.746  1.00  0.00     0.254 C 
BRANCH  17  18
HETATM   18  N   UNL     1      38.915  -9.669   2.591  1.00  0.00    -0.070 N 
HETATM   19  H   UNL     1      39.042 -10.683   2.780  1.00  0.00     0.279 HD
HETATM   20  C   UNL     1      37.428  -9.431   2.466  1.00  0.00     0.235 C 
HETATM   21  C   UNL     1      36.854 -10.393   1.434  1.00  0.00     0.028 C 
HETATM   22  C   UNL     1      37.554 -10.259   0.086  1.00  0.00     0.003 C 
HETATM   23  C   UNL     1      39.067 -10.372   0.226  1.00  0.00     0.028 C 
HETATM   24  C   UNL     1      39.616  -9.413   1.275  1.00  0.00     0.235 C 
ENDBRANCH  17  18
ENDBRANCH  16  17
ENDBRANCH  13  16
ENDBRANCH  11  12
ENDBRANCH   6  11
BRANCH   7  25
HETATM   25  C   UNL     1      41.006 -16.469   2.834  1.00  0.00    -0.030 C 
HETATM   26  C   UNL     1      41.378 -17.202   3.981  1.00  0.00     0.010 C 
HETATM   27  C   UNL     1      42.315 -18.236   3.891  1.00  0.00     0.008 C 
HETATM   28  C   UNL     1      42.865 -18.598   2.656  1.00  0.00    -0.055 C 
HETATM   29  C   UNL     1      42.346 -18.006   1.501  1.00  0.00     0.008 C 
HETATM   30  C   UNL     1      41.417 -16.968   1.587  1.00  0.00     0.010 C 
BRANCH  28  31
HETATM   31  C   UNL     1      44.052 -19.546   2.594  1.00  0.00     0.010 C 
HETATM   32  C   UNL     1      44.596 -19.913   3.973  1.00  0.00     0.015 C 
HETATM   33  C   UNL     1      43.675 -20.810   1.807  1.00  0.00     0.015 C 
ENDBRANCH  28  31
ENDBRANCH   7  25
BRANCH  10  34
HETATM   34  C   UNL     1      39.237 -14.091   0.979  1.00  0.00     0.293 C 
HETATM   35  O   UNL     1      38.259 -13.514   1.421  1.00  0.00    -0.259 OA
BRANCH  34  36
HETATM   36  O   UNL     1      39.435 -14.487  -0.298  1.00  0.00    -0.323 OA
HETATM   37  C   UNL     1      38.590 -13.834  -1.254  1.00  0.00     0.213 C 
ENDBRANCH  34  36
ENDBRANCH  10  34
TORSDOF 9
ENDMDL
