MODEL 1
REMARK VINA RESULT:      -7.4      0.000      0.000
REMARK  5 active torsions:
REMARK  status: ('A' for Active; 'I' for Inactive)
REMARK    1  A    between atoms: C_2  and  N_3 
REMARK    2  A    between atoms: N_3  and  C_5 
REMARK    3  A    between atoms: N_3  and  C_21 
REMARK    4  A    between atoms: C_8  and  N_9 
REMARK       I    between atoms: N_9  and  C_10 
REMARK    5  A    between atoms: C_10  and  C_11 
ROOT
HETATM    1  C   UNL     1      44.014 -18.226   4.983  1.00  0.00     0.134 A 
HETATM    2  C   UNL     1      43.374 -17.075   4.526  1.00  0.00     0.039 A 
HETATM    3  C   UNL     1      43.334 -15.928   5.328  1.00  0.00     0.032 A 
HETATM    4  C   UNL     1      43.917 -15.916   6.596  1.00  0.00     0.035 A 
HETATM    5  C   UNL     1      44.543 -17.081   7.054  1.00  0.00     0.032 A 
HETATM    6  C   UNL     1      44.596 -18.230   6.253  1.00  0.00     0.039 A 
ENDROOT
BRANCH   4   7
HETATM    7  N   UNL     1      43.923 -14.795   7.455  1.00  0.00    -0.323 N 
HETATM    8  C   UNL     1      44.842 -13.756   7.460  1.00  0.00     0.257 C 
HETATM    9  O   UNL     1      45.777 -13.626   6.677  1.00  0.00    -0.267 OA
HETATM   10  H   UNL     1      43.151 -14.735   8.105  1.00  0.00     0.169 HD
BRANCH   8  11
HETATM   11  C   UNL     1      44.649 -12.707   8.496  1.00  0.00     0.050 A 
HETATM   12  C   UNL     1      43.576 -11.830   8.355  1.00  0.00     0.135 A 
HETATM   13  N   UNL     1      43.288 -10.832   9.228  1.00  0.00    -0.248 NA
HETATM   14  C   UNL     1      44.119 -10.693  10.278  1.00  0.00     0.125 A 
HETATM   15 CL   UNL     1      43.722  -9.418  11.350  1.00  0.00    -0.063 Cl
HETATM   16  C   UNL     1      45.224 -11.496  10.504  1.00  0.00     0.045 A 
HETATM   17  C   UNL     1      45.497 -12.520   9.592  1.00  0.00     0.022 A 
ENDBRANCH   8  11
ENDBRANCH   4   7
BRANCH   1  18
HETATM   18  N   UNL     1      44.107 -19.456   4.163  1.00  0.00    -0.042 N 
HETATM   19  H   UNL     1      43.287 -20.015   4.430  1.00  0.00     0.286 HD
BRANCH  18  20
HETATM   20  C   UNL     1      45.284 -20.344   4.498  1.00  0.00     0.237 C 
HETATM   21  C   UNL     1      44.824 -21.654   5.115  1.00  0.00     0.035 C 
ENDBRANCH  18  20
BRANCH  18  22
HETATM   22  C   UNL     1      43.906 -19.174   2.691  1.00  0.00     0.237 C 
HETATM   23  C   UNL     1      43.558 -20.401   1.869  1.00  0.00     0.035 C 
ENDBRANCH  18  22
ENDBRANCH   1  18
TORSDOF 5
ENDMDL
MODEL 2
REMARK VINA RESULT:      -6.9      6.155      8.319
REMARK  5 active torsions:
REMARK  status: ('A' for Active; 'I' for Inactive)
REMARK    1  A    between atoms: C_2  and  N_3 
REMARK    2  A    between atoms: N_3  and  C_5 
REMARK    3  A    between atoms: N_3  and  C_21 
REMARK    4  A    between atoms: C_8  and  N_9 
REMARK       I    between atoms: N_9  and  C_10 
REMARK    5  A    between atoms: C_10  and  C_11 
ROOT
HETATM    1  C   UNL     1      43.911 -18.900   3.831  1.00  0.00     0.134 A 
HETATM    2  C   UNL     1      43.808 -19.447   2.554  1.00  0.00     0.039 A 
HETATM    3  C   UNL     1      43.440 -18.639   1.471  1.00  0.00     0.032 A 
HETATM    4  C   UNL     1      43.159 -17.283   1.648  1.00  0.00     0.035 A 
HETATM    5  C   UNL     1      43.250 -16.745   2.938  1.00  0.00     0.032 A 
HETATM    6  C   UNL     1      43.627 -17.546   4.024  1.00  0.00     0.039 A 
ENDROOT
BRANCH   4   7
HETATM    7  N   UNL     1      42.792 -16.406   0.604  1.00  0.00    -0.323 N 
HETATM    8  C   UNL     1      41.522 -15.916   0.337  1.00  0.00     0.257 C 
HETATM    9  O   UNL     1      40.517 -16.136   1.005  1.00  0.00    -0.267 OA
HETATM   10  H   UNL     1      43.548 -16.078   0.019  1.00  0.00     0.169 HD
BRANCH   8  11
HETATM   11  C   UNL     1      41.390 -15.032  -0.852  1.00  0.00     0.050 A 
HETATM   12  C   UNL     1      41.647 -13.673  -0.695  1.00  0.00     0.135 A 
HETATM   13  N   UNL     1      41.565 -12.761  -1.696  1.00  0.00    -0.248 NA
HETATM   14  C   UNL     1      41.192 -13.226  -2.903  1.00  0.00     0.125 A 
HETATM   15 CL   UNL     1      41.094 -12.041  -4.136  1.00  0.00    -0.063 Cl
HETATM   16  C   UNL     1      40.894 -14.553  -3.166  1.00  0.00     0.045 A 
HETATM   17  C   UNL     1      40.991 -15.473  -2.118  1.00  0.00     0.022 A 
ENDBRANCH   8  11
ENDBRANCH   4   7
BRANCH   1  18
HETATM   18  N   UNL     1      44.323 -19.707   5.003  1.00  0.00    -0.042 N 
HETATM   19  H   UNL     1      43.464 -20.180   5.314  1.00  0.00     0.286 HD
BRANCH  18  20
HETATM   20  C   UNL     1      44.751 -18.893   6.204  1.00  0.00     0.237 C 
HETATM   21  C   UNL     1      43.848 -19.161   7.397  1.00  0.00     0.035 C 
ENDBRANCH  18  20
BRANCH  18  22
HETATM   22  C   UNL     1      45.254 -20.834   4.620  1.00  0.00     0.237 C 
HETATM   23  C   UNL     1      44.809 -22.199   5.111  1.00  0.00     0.035 C 
ENDBRANCH  18  22
ENDBRANCH   1  18
TORSDOF 5
ENDMDL
MODEL 3
REMARK VINA RESULT:      -6.9      6.316      8.725
REMARK  5 active torsions:
REMARK  status: ('A' for Active; 'I' for Inactive)
REMARK    1  A    between atoms: C_2  and  N_3 
REMARK    2  A    between atoms: N_3  and  C_5 
REMARK    3  A    between atoms: N_3  and  C_21 
REMARK    4  A    between atoms: C_8  and  N_9 
REMARK       I    between atoms: N_9  and  C_10 
REMARK    5  A    between atoms: C_10  and  C_11 
ROOT
HETATM    1  C   UNL     1      43.661 -18.566   3.284  1.00  0.00     0.134 A 
HETATM    2  C   UNL     1      42.422 -18.054   3.665  1.00  0.00     0.039 A 
HETATM    3  C   UNL     1      41.614 -17.397   2.727  1.00  0.00     0.032 A 
HETATM    4  C   UNL     1      42.034 -17.232   1.407  1.00  0.00     0.035 A 
HETATM    5  C   UNL     1      43.288 -17.736   1.037  1.00  0.00     0.032 A 
HETATM    6  C   UNL     1      44.096 -18.402   1.966  1.00  0.00     0.039 A 
ENDROOT
BRANCH   4   7
HETATM    7  N   UNL     1      41.271 -16.590   0.406  1.00  0.00    -0.323 N 
HETATM    8  C   UNL     1      41.308 -15.246   0.066  1.00  0.00     0.257 C 
HETATM    9  O   UNL     1      42.053 -14.405   0.558  1.00  0.00    -0.267 OA
HETATM   10  H   UNL     1      40.666 -17.190  -0.138  1.00  0.00     0.169 HD
BRANCH   8  11
HETATM   11  C   UNL     1      40.372 -14.809  -1.004  1.00  0.00     0.050 A 
HETATM   12  C   UNL     1      39.253 -14.065  -0.638  1.00  0.00     0.135 A 
HETATM   13  N   UNL     1      38.325 -13.604  -1.512  1.00  0.00    -0.248 NA
HETATM   14  C   UNL     1      38.513 -13.917  -2.809  1.00  0.00     0.125 A 
HETATM   15 CL   UNL     1      37.314 -13.321  -3.877  1.00  0.00    -0.063 Cl
HETATM   16  C   UNL     1      39.578 -14.666  -3.279  1.00  0.00     0.045 A 
HETATM   17  C   UNL     1      40.523 -15.126  -2.358  1.00  0.00     0.022 A 
ENDBRANCH   8  11
ENDBRANCH   4   7
BRANCH   1  18
HETATM   18  N   UNL     1      44.539 -19.291   4.230  1.00  0.00    -0.042 N 
HETATM   19  H   UNL     1      45.459 -18.844   4.134  1.00  0.00     0.286 HD
BRANCH  18  20
HETATM   20  C   UNL     1      44.792 -20.737   3.867  1.00  0.00     0.237 C 
HETATM   21  C   UNL     1      44.834 -21.614   5.108  1.00  0.00     0.035 C 
ENDBRANCH  18  20
BRANCH  18  22
HETATM   22  C   UNL     1      44.151 -19.044   5.671  1.00  0.00     0.237 C 
HETATM   23  C   UNL     1      45.093 -18.118   6.415  1.00  0.00     0.035 C 
ENDBRANCH  18  22
ENDBRANCH   1  18
TORSDOF 5
ENDMDL
MODEL 4
REMARK VINA RESULT:      -6.8      6.410      9.242
REMARK  5 active torsions:
REMARK  status: ('A' for Active; 'I' for Inactive)
REMARK    1  A    between atoms: C_2  and  N_3 
REMARK    2  A    between atoms: N_3  and  C_5 
REMARK    3  A    between atoms: N_3  and  C_21 
REMARK    4  A    between atoms: C_8  and  N_9 
REMARK       I    between atoms: N_9  and  C_10 
REMARK    5  A    between atoms: C_10  and  C_11 
ROOT
HETATM    1  C   UNL     1      39.713 -14.532   0.385  1.00  0.00     0.134 A 
HETATM    2  C   UNL     1      40.832 -15.014  -0.291  1.00  0.00     0.039 A 
HETATM    3  C   UNL     1      41.583 -16.064   0.251  1.00  0.00     0.032 A 
HETATM    4  C   UNL     1      41.237 -16.638   1.476  1.00  0.00     0.035 A 
HETATM    5  C   UNL     1      40.120 -16.137   2.156  1.00  0.00     0.032 A 
HETATM    6  C   UNL     1      39.359 -15.093   1.615  1.00  0.00     0.039 A 
ENDROOT
BRANCH   4   7
HETATM    7  N   UNL     1      41.941 -17.704   2.079  1.00  0.00    -0.323 N 
HETATM    8  C   UNL     1      43.287 -17.730   2.412  1.00  0.00     0.257 C 
HETATM    9  O   UNL     1      44.074 -16.800   2.274  1.00  0.00    -0.267 OA
HETATM   10  H   UNL     1      41.387 -18.513   2.324  1.00  0.00     0.169 HD
BRANCH   8  11
HETATM   11  C   UNL     1      43.797 -18.994   3.006  1.00  0.00     0.050 A 
HETATM   12  C   UNL     1      44.158 -18.992   4.351  1.00  0.00     0.135 A 
HETATM   13  N   UNL     1      44.634 -20.075   5.014  1.00  0.00    -0.248 NA
HETATM   14  C   UNL     1      44.775 -21.206   4.295  1.00  0.00     0.125 A 
HETATM   15 CL   UNL     1      45.386 -22.546   5.169  1.00  0.00    -0.063 Cl
HETATM   16  C   UNL     1      44.466 -21.313   2.950  1.00  0.00     0.045 A 
HETATM   17  C   UNL     1      43.972 -20.183   2.291  1.00  0.00     0.022 A 
ENDBRANCH   8  11
ENDBRANCH   4   7
BRANCH   1  18
HETATM   18  N   UNL     1      38.872 -13.442  -0.159  1.00  0.00    -0.042 N 
HETATM   19  H   UNL     1      39.315 -12.575   0.170  1.00  0.00     0.286 HD
BRANCH  18  20
HETATM   20  C   UNL     1      37.474 -13.382   0.416  1.00  0.00     0.237 C 
HETATM   21  C   UNL     1      36.959 -11.953   0.459  1.00  0.00     0.035 C 
ENDBRANCH  18  20
BRANCH  18  22
HETATM   22  C   UNL     1      38.955 -13.357  -1.666  1.00  0.00     0.237 C 
HETATM   23  C   UNL     1      37.932 -14.210  -2.391  1.00  0.00     0.035 C 
ENDBRANCH  18  22
ENDBRANCH   1  18
TORSDOF 5
ENDMDL
MODEL 5
REMARK VINA RESULT:      -6.6      5.859      8.113
REMARK  5 active torsions:
REMARK  status: ('A' for Active; 'I' for Inactive)
REMARK    1  A    between atoms: C_2  and  N_3 
REMARK    2  A    between atoms: N_3  and  C_5 
REMARK    3  A    between atoms: N_3  and  C_21 
REMARK    4  A    between atoms: C_8  and  N_9 
REMARK       I    between atoms: N_9  and  C_10 
REMARK    5  A    between atoms: C_10  and  C_11 
ROOT
HETATM    1  C   UNL     1      43.177 -18.905   4.455  1.00  0.00     0.134 A 
HETATM    2  C   UNL     1      42.096 -18.114   4.839  1.00  0.00     0.039 A 
HETATM    3  C   UNL     1      41.396 -17.369   3.882  1.00  0.00     0.032 A 
HETATM    4  C   UNL     1      41.771 -17.392   2.537  1.00  0.00     0.035 A 
HETATM    5  C   UNL     1      42.868 -18.177   2.163  1.00  0.00     0.032 A 
HETATM    6  C   UNL     1      43.567 -18.933   3.114  1.00  0.00     0.039 A 
ENDROOT
BRANCH   4   7
HETATM    7  N   UNL     1      41.107 -16.675   1.517  1.00  0.00    -0.323 N 
HETATM    8  C   UNL     1      41.308 -15.348   1.167  1.00  0.00     0.257 C 
HETATM    9  O   UNL     1      42.137 -14.595   1.668  1.00  0.00    -0.267 OA
HETATM   10  H   UNL     1      40.447 -17.206   0.965  1.00  0.00     0.169 HD
BRANCH   8  11
HETATM   11  C   UNL     1      40.450 -14.815   0.076  1.00  0.00     0.050 A 
HETATM   12  C   UNL     1      40.878 -14.979  -1.239  1.00  0.00     0.135 A 
HETATM   13  N   UNL     1      40.192 -14.542  -2.324  1.00  0.00    -0.248 NA
HETATM   14  C   UNL     1      39.035 -13.896  -2.084  1.00  0.00     0.125 A 
HETATM   15 CL   UNL     1      38.205 -13.356  -3.481  1.00  0.00    -0.063 Cl
HETATM   16  C   UNL     1      38.527 -13.661  -0.818  1.00  0.00     0.045 A 
HETATM   17  C   UNL     1      39.251 -14.125   0.284  1.00  0.00     0.022 A 
ENDBRANCH   8  11
ENDBRANCH   4   7
BRANCH   1  18
HETATM   18  N   UNL     1      43.933 -19.732   5.425  1.00  0.00    -0.042 N 
HETATM   19  H   UNL     1      43.261 -20.438   5.750  1.00  0.00     0.286 HD
BRANCH  18  20
HETATM   20  C   UNL     1      44.341 -19.002   6.686  1.00  0.00     0.237 C 
HETATM   21  C   UNL     1      45.439 -17.991   6.403  1.00  0.00     0.035 C 
ENDBRANCH  18  20
BRANCH  18  22
HETATM   22  C   UNL     1      45.027 -20.533   4.758  1.00  0.00     0.237 C 
HETATM   23  C   UNL     1      44.998 -22.013   5.089  1.00  0.00     0.035 C 
ENDBRANCH  18  22
ENDBRANCH   1  18
TORSDOF 5
ENDMDL
MODEL 6
REMARK VINA RESULT:      -6.4      5.755      8.994
REMARK  5 active torsions:
REMARK  status: ('A' for Active; 'I' for Inactive)
REMARK    1  A    between atoms: C_2  and  N_3 
REMARK    2  A    between atoms: N_3  and  C_5 
REMARK    3  A    between atoms: N_3  and  C_21 
REMARK    4  A    between atoms: C_8  and  N_9 
REMARK       I    between atoms: N_9  and  C_10 
REMARK    5  A    between atoms: C_10  and  C_11 
ROOT
HETATM    1  C   UNL     1      39.385 -13.903   2.569  1.00  0.00     0.134 A 
HETATM    2  C   UNL     1      39.361 -14.970   1.675  1.00  0.00     0.039 A 
HETATM    3  C   UNL     1      40.125 -16.117   1.927  1.00  0.00     0.032 A 
HETATM    4  C   UNL     1      40.930 -16.209   3.064  1.00  0.00     0.035 A 
HETATM    5  C   UNL     1      40.960 -15.125   3.950  1.00  0.00     0.032 A 
HETATM    6  C   UNL     1      40.191 -13.979   3.709  1.00  0.00     0.039 A 
ENDROOT
BRANCH   4   7
HETATM    7  N   UNL     1      41.718 -17.335   3.388  1.00  0.00    -0.323 N 
HETATM    8  C   UNL     1      43.055 -17.531   3.076  1.00  0.00     0.257 C 
HETATM    9  O   UNL     1      43.780 -16.726   2.502  1.00  0.00    -0.267 OA
HETATM   10  H   UNL     1      41.260 -18.048   3.939  1.00  0.00     0.169 HD
BRANCH   8  11
HETATM   11  C   UNL     1      43.650 -18.827   3.500  1.00  0.00     0.050 A 
HETATM   12  C   UNL     1      43.847 -19.048   4.861  1.00  0.00     0.135 A 
HETATM   13  N   UNL     1      44.378 -20.183   5.379  1.00  0.00    -0.248 NA
HETATM   14  C   UNL     1      44.744 -21.133   4.497  1.00  0.00     0.125 A 
HETATM   15 CL   UNL     1      45.415 -22.546   5.194  1.00  0.00    -0.063 Cl
HETATM   16  C   UNL     1      44.610 -21.010   3.125  1.00  0.00     0.045 A 
HETATM   17  C   UNL     1      44.057 -19.831   2.616  1.00  0.00     0.022 A 
ENDBRANCH   8  11
ENDBRANCH   4   7
BRANCH   1  18
HETATM   18  N   UNL     1      38.575 -12.681   2.361  1.00  0.00    -0.042 N 
HETATM   19  H   UNL     1      37.630 -12.932   2.679  1.00  0.00     0.286 HD
BRANCH  18  20
HETATM   20  C   UNL     1      38.386 -12.294   0.911  1.00  0.00     0.237 C 
HETATM   21  C   UNL     1      36.919 -12.348   0.516  1.00  0.00     0.035 C 
ENDBRANCH  18  20
BRANCH  18  22
HETATM   22  C   UNL     1      38.994 -11.556   3.281  1.00  0.00     0.237 C 
HETATM   23  C   UNL     1      39.363 -10.273   2.560  1.00  0.00     0.035 C 
ENDBRANCH  18  22
ENDBRANCH   1  18
TORSDOF 5
ENDMDL
MODEL 7
REMARK VINA RESULT:      -6.4      5.853      7.945
REMARK  5 active torsions:
REMARK  status: ('A' for Active; 'I' for Inactive)
REMARK    1  A    between atoms: C_2  and  N_3 
REMARK    2  A    between atoms: N_3  and  C_5 
REMARK    3  A    between atoms: N_3  and  C_21 
REMARK    4  A    between atoms: C_8  and  N_9 
REMARK       I    between atoms: N_9  and  C_10 
REMARK    5  A    between atoms: C_10  and  C_11 
ROOT
HETATM    1  C   UNL     1      43.495 -18.590   4.343  1.00  0.00     0.134 A 
HETATM    2  C   UNL     1      42.238 -18.176   4.781  1.00  0.00     0.039 A 
HETATM    3  C   UNL     1      41.396 -17.456   3.925  1.00  0.00     0.032 A 
HETATM    4  C   UNL     1      41.798 -17.130   2.628  1.00  0.00     0.035 A 
HETATM    5  C   UNL     1      43.068 -17.537   2.201  1.00  0.00     0.032 A 
HETATM    6  C   UNL     1      43.912 -18.265   3.049  1.00  0.00     0.039 A 
ENDROOT
BRANCH   4   7
HETATM    7  N   UNL     1      41.000 -16.416   1.707  1.00  0.00    -0.323 N 
HETATM    8  C   UNL     1      40.660 -15.073   1.767  1.00  0.00     0.257 C 
HETATM    9  O   UNL     1      41.044 -14.277   2.617  1.00  0.00    -0.267 OA
HETATM   10  H   UNL     1      40.681 -16.941   0.904  1.00  0.00     0.169 HD
BRANCH   8  11
HETATM   11  C   UNL     1      39.771 -14.567   0.687  1.00  0.00     0.050 A 
HETATM   12  C   UNL     1      40.273 -14.514  -0.610  1.00  0.00     0.135 A 
HETATM   13  N   UNL     1      39.569 -14.076  -1.683  1.00  0.00    -0.248 NA
HETATM   14  C   UNL     1      38.312 -13.655  -1.445  1.00  0.00     0.125 A 
HETATM   15 CL   UNL     1      37.460 -13.104  -2.826  1.00  0.00    -0.063 Cl
HETATM   16  C   UNL     1      37.720 -13.647  -0.193  1.00  0.00     0.045 A 
HETATM   17  C   UNL     1      38.467 -14.107   0.895  1.00  0.00     0.022 A 
ENDBRANCH   8  11
ENDBRANCH   4   7
BRANCH   1  18
HETATM   18  N   UNL     1      44.410 -19.376   5.201  1.00  0.00    -0.042 N 
HETATM   19  H   UNL     1      45.228 -18.769   5.341  1.00  0.00     0.286 HD
BRANCH  18  20
HETATM   20  C   UNL     1      44.978 -20.614   4.543  1.00  0.00     0.237 C 
HETATM   21  C   UNL     1      44.757 -21.844   5.407  1.00  0.00     0.035 C 
ENDBRANCH  18  20
BRANCH  18  22
HETATM   22  C   UNL     1      43.853 -19.580   6.591  1.00  0.00     0.237 C 
HETATM   23  C   UNL     1      44.391 -18.607   7.623  1.00  0.00     0.035 C 
ENDBRANCH  18  22
ENDBRANCH   1  18
TORSDOF 5
ENDMDL
MODEL 8
REMARK VINA RESULT:      -6.4      4.818      8.956
REMARK  5 active torsions:
REMARK  status: ('A' for Active; 'I' for Inactive)
REMARK    1  A    between atoms: C_2  and  N_3 
REMARK    2  A    between atoms: N_3  and  C_5 
REMARK    3  A    between atoms: N_3  and  C_21 
REMARK    4  A    between atoms: C_8  and  N_9 
REMARK       I    between atoms: N_9  and  C_10 
REMARK    5  A    between atoms: C_10  and  C_11 
ROOT
HETATM    1  C   UNL     1      40.895 -12.671   5.626  1.00  0.00     0.134 A 
HETATM    2  C   UNL     1      42.011 -12.664   4.793  1.00  0.00     0.039 A 
HETATM    3  C   UNL     1      42.486 -13.862   4.244  1.00  0.00     0.032 A 
HETATM    4  C   UNL     1      41.865 -15.079   4.528  1.00  0.00     0.035 A 
HETATM    5  C   UNL     1      40.753 -15.078   5.379  1.00  0.00     0.032 A 
HETATM    6  C   UNL     1      40.266 -13.883   5.924  1.00  0.00     0.039 A 
ENDROOT
BRANCH   4   7
HETATM    7  N   UNL     1      42.281 -16.323   4.005  1.00  0.00    -0.323 N 
HETATM    8  C   UNL     1      43.226 -17.180   4.549  1.00  0.00     0.257 C 
HETATM    9  O   UNL     1      43.820 -17.008   5.609  1.00  0.00    -0.267 OA
HETATM   10  H   UNL     1      41.807 -16.628   3.166  1.00  0.00     0.169 HD
BRANCH   8  11
HETATM   11  C   UNL     1      43.515 -18.420   3.780  1.00  0.00     0.050 A 
HETATM   12  C   UNL     1      44.366 -19.364   4.348  1.00  0.00     0.135 A 
HETATM   13  N   UNL     1      44.710 -20.535   3.755  1.00  0.00    -0.248 NA
HETATM   14  C   UNL     1      44.196 -20.763   2.532  1.00  0.00     0.125 A 
HETATM   15 CL   UNL     1      44.661 -22.248   1.817  1.00  0.00    -0.063 Cl
HETATM   16  C   UNL     1      43.356 -19.884   1.868  1.00  0.00     0.045 A 
HETATM   17  C   UNL     1      43.013 -18.687   2.502  1.00  0.00     0.022 A 
ENDBRANCH   8  11
ENDBRANCH   4   7
BRANCH   1  18
HETATM   18  N   UNL     1      40.338 -11.428   6.209  1.00  0.00    -0.042 N 
HETATM   19  H   UNL     1      41.156 -10.904   6.546  1.00  0.00     0.286 HD
BRANCH  18  20
HETATM   20  C   UNL     1      39.499 -11.639   7.450  1.00  0.00     0.237 C 
HETATM   21  C   UNL     1      39.717 -10.521   8.456  1.00  0.00     0.035 C 
ENDBRANCH  18  20
BRANCH  18  22
HETATM   22  C   UNL     1      39.724 -10.531   5.158  1.00  0.00     0.237 C 
HETATM   23  C   UNL     1      38.644 -11.200   4.329  1.00  0.00     0.035 C 
ENDBRANCH  18  22
ENDBRANCH   1  18
TORSDOF 5
ENDMDL
MODEL 9
REMARK VINA RESULT:      -6.3      4.565      5.040
REMARK  5 active torsions:
REMARK  status: ('A' for Active; 'I' for Inactive)
REMARK    1  A    between atoms: C_2  and  N_3 
REMARK    2  A    between atoms: N_3  and  C_5 
REMARK    3  A    between atoms: N_3  and  C_21 
REMARK    4  A    between atoms: C_8  and  N_9 
REMARK       I    between atoms: N_9  and  C_10 
REMARK    5  A    between atoms: C_10  and  C_11 
ROOT
HETATM    1  C   UNL     1      43.600 -19.032   3.411  1.00  0.00     0.134 A 
HETATM    2  C   UNL     1      43.815 -18.320   2.232  1.00  0.00     0.039 A 
HETATM    3  C   UNL     1      43.325 -17.015   2.100  1.00  0.00     0.032 A 
HETATM    4  C   UNL     1      42.605 -16.409   3.132  1.00  0.00     0.035 A 
HETATM    5  C   UNL     1      42.381 -17.138   4.306  1.00  0.00     0.032 A 
HETATM    6  C   UNL     1      42.876 -18.440   4.449  1.00  0.00     0.039 A 
ENDROOT
BRANCH   4   7
HETATM    7  N   UNL     1      42.089 -15.096   3.073  1.00  0.00    -0.323 N 
HETATM    8  C   UNL     1      42.806 -13.914   3.194  1.00  0.00     0.257 C 
HETATM    9  O   UNL     1      44.022 -13.827   3.325  1.00  0.00    -0.267 OA
HETATM   10  H   UNL     1      41.099 -15.021   2.886  1.00  0.00     0.169 HD
BRANCH   8  11
HETATM   11  C   UNL     1      42.019 -12.654   3.135  1.00  0.00     0.050 A 
HETATM   12  C   UNL     1      41.689 -12.140   1.883  1.00  0.00     0.135 A 
HETATM   13  N   UNL     1      40.976 -11.003   1.690  1.00  0.00    -0.248 NA
HETATM   14  C   UNL     1      40.591 -10.340   2.796  1.00  0.00     0.125 A 
HETATM   15 CL   UNL     1      39.699  -8.906   2.506  1.00  0.00    -0.063 Cl
HETATM   16  C   UNL     1      40.880 -10.750   4.087  1.00  0.00     0.045 A 
HETATM   17  C   UNL     1      41.613 -11.928   4.259  1.00  0.00     0.022 A 
ENDBRANCH   8  11
ENDBRANCH   4   7
BRANCH   1  18
HETATM   18  N   UNL     1      44.121 -20.404   3.609  1.00  0.00    -0.042 N 
HETATM   19  H   UNL     1      43.284 -20.997   3.688  1.00  0.00     0.286 HD
BRANCH  18  20
HETATM   20  C   UNL     1      44.846 -20.615   4.920  1.00  0.00     0.237 C 
HETATM   21  C   UNL     1      44.955 -22.094   5.254  1.00  0.00     0.035 C 
ENDBRANCH  18  20
BRANCH  18  22
HETATM   22  C   UNL     1      44.836 -20.925   2.383  1.00  0.00     0.237 C 
HETATM   23  C   UNL     1      44.036 -21.936   1.584  1.00  0.00     0.035 C 
ENDBRANCH  18  22
ENDBRANCH   1  18
TORSDOF 5
ENDMDL
MODEL 10
REMARK VINA RESULT:      -6.3      6.425      7.627
REMARK  5 active torsions:
REMARK  status: ('A' for Active; 'I' for Inactive)
REMARK    1  A    between atoms: C_2  and  N_3 
REMARK    2  A    between atoms: N_3  and  C_5 
REMARK    3  A    between atoms: N_3  and  C_21 
REMARK    4  A    between atoms: C_8  and  N_9 
REMARK       I    between atoms: N_9  and  C_10 
REMARK    5  A    between atoms: C_10  and  C_11 
ROOT
HETATM    1  C   UNL     1      43.574 -18.748   3.052  1.00  0.00     0.134 A 
HETATM    2  C   UNL     1      44.229 -18.270   1.918  1.00  0.00     0.039 A 
HETATM    3  C   UNL     1      43.767 -17.115   1.275  1.00  0.00     0.032 A 
HETATM    4  C   UNL     1      42.645 -16.430   1.744  1.00  0.00     0.035 A 
HETATM    5  C   UNL     1      41.984 -16.926   2.875  1.00  0.00     0.032 A 
HETATM    6  C   UNL     1      42.446 -18.076   3.529  1.00  0.00     0.039 A 
ENDROOT
BRANCH   4   7
HETATM    7  N   UNL     1      42.129 -15.255   1.153  1.00  0.00    -0.323 N 
HETATM    8  C   UNL     1      41.491 -15.152  -0.074  1.00  0.00     0.257 C 
HETATM    9  O   UNL     1      41.232 -16.087  -0.825  1.00  0.00    -0.267 OA
HETATM   10  H   UNL     1      42.205 -14.415   1.709  1.00  0.00     0.169 HD
BRANCH   8  11
HETATM   11  C   UNL     1      41.072 -13.787  -0.489  1.00  0.00     0.050 A 
HETATM   12  C   UNL     1      39.740 -13.423  -0.312  1.00  0.00     0.135 A 
HETATM   13  N   UNL     1      39.230 -12.212  -0.646  1.00  0.00    -0.248 NA
HETATM   14  C   UNL     1      40.086 -11.331  -1.199  1.00  0.00     0.125 A 
HETATM   15 CL   UNL     1      39.398  -9.817  -1.612  1.00  0.00    -0.063 Cl
HETATM   16  C   UNL     1      41.424 -11.595  -1.438  1.00  0.00     0.045 A 
HETATM   17  C   UNL     1      41.926 -12.850  -1.081  1.00  0.00     0.022 A 
ENDBRANCH   8  11
ENDBRANCH   4   7
BRANCH   1  18
HETATM   18  N   UNL     1      44.038 -19.950   3.783  1.00  0.00    -0.042 N 
HETATM   19  H   UNL     1      43.183 -20.480   3.991  1.00  0.00     0.286 HD
BRANCH  18  20
HETATM   20  C   UNL     1      44.634 -19.664   5.144  1.00  0.00     0.237 C 
HETATM   21  C   UNL     1      44.075 -20.607   6.196  1.00  0.00     0.035 C 
ENDBRANCH  18  20
BRANCH  18  22
HETATM   22  C   UNL     1      44.849 -20.874   2.903  1.00  0.00     0.237 C 
HETATM   23  C   UNL     1      44.014 -21.841   2.087  1.00  0.00     0.035 C 
ENDBRANCH  18  22
ENDBRANCH   1  18
TORSDOF 5
ENDMDL
