MODEL 1
REMARK VINA RESULT:      -8.8      0.000      0.000
REMARK  7 active torsions:
REMARK  status: ('A' for Active; 'I' for Inactive)
REMARK    1  A    between atoms: O_2  and  C_3 
REMARK    2  A    between atoms: C_6  and  C_7 
REMARK    3  A    between atoms: C_7  and  N_8 
REMARK    4  A    between atoms: C_7  and  C_25 
REMARK    5  A    between atoms: N_8  and  C_11 
REMARK    6  A    between atoms: C_11  and  C_12 
REMARK       I    between atoms: C_12  and  N_13 
REMARK    7  A    between atoms: N_13  and  C_14 
ROOT
HETATM    1  N   UNL     1      43.611 -18.145   5.475  1.00  0.00    -0.055 N 
HETATM    2  H   UNL     1      42.710 -17.666   5.307  1.00  0.00     0.278 HD
HETATM    3  H   UNL     1      43.350 -18.955   6.047  1.00  0.00     0.278 HD
ENDROOT
BRANCH   1   4
HETATM    4  C   UNL     1      44.190 -18.582   4.170  1.00  0.00     0.252 C 
BRANCH   4   5
HETATM    5  C   UNL     1      43.433 -18.013   2.981  1.00  0.00    -0.023 A 
HETATM    6  C   UNL     1      42.040 -17.833   3.073  1.00  0.00     0.012 A 
HETATM    7  C   UNL     1      41.308 -17.284   2.013  1.00  0.00     0.037 A 
HETATM    8  C   UNL     1      41.954 -16.896   0.843  1.00  0.00     0.068 A 
HETATM    9  C   UNL     1      43.334 -17.074   0.740  1.00  0.00     0.037 A 
HETATM   10  C   UNL     1      44.070 -17.620   1.795  1.00  0.00     0.012 A 
BRANCH   8  11
HETATM   11  O   UNL     1      41.366 -16.341  -0.257  1.00  0.00    -0.356 OA
HETATM   12  C   UNL     1      41.220 -14.925  -0.270  1.00  0.00     0.210 C 
ENDBRANCH   8  11
ENDBRANCH   4   5
BRANCH   4  13
HETATM   13  C   UNL     1      44.380 -20.088   4.097  1.00  0.00    -0.023 A 
HETATM   14  C   UNL     1      44.252 -20.745   2.859  1.00  0.00     0.009 A 
HETATM   15  C   UNL     1      44.443 -22.124   2.761  1.00  0.00     0.001 A 
HETATM   16  C   UNL     1      44.761 -22.867   3.895  1.00  0.00     0.000 A 
HETATM   17  C   UNL     1      44.881 -22.235   5.129  1.00  0.00     0.001 A 
HETATM   18  C   UNL     1      44.688 -20.856   5.234  1.00  0.00     0.009 A 
ENDBRANCH   4  13
ENDBRANCH   1   4
BRANCH   1  19
HETATM   19  C   UNL     1      44.462 -17.217   6.304  1.00  0.00     0.336 C 
BRANCH  19  20
HETATM   20  C   UNL     1      43.786 -15.850   6.403  1.00  0.00     0.248 C 
HETATM   21  N   UNL     1      42.790 -15.638   5.473  1.00  0.00    -0.326 N 
HETATM   22  H   UNL     1      42.602 -16.363   4.788  1.00  0.00     0.169 HD
HETATM   23  O   UNL     1      44.180 -15.078   7.276  1.00  0.00    -0.271 OA
BRANCH  21  24
HETATM   24  C   UNL     1      41.979 -14.485   5.343  1.00  0.00     0.037 A 
HETATM   25  C   UNL     1      42.434 -13.272   4.810  1.00  0.00     0.061 A 
HETATM   26  C   UNL     1      41.531 -12.233   4.754  1.00  0.00     0.065 A 
HETATM   27  C   UNL     1      40.217 -12.357   5.198  1.00  0.00     0.063 A 
HETATM   28  N   UNL     1      41.701 -10.934   4.286  1.00  0.00    -0.306 N 
HETATM   29  N   UNL     1      39.580 -11.139   5.004  1.00  0.00    -0.307 N 
HETATM   30  C   UNL     1      39.736 -13.528   5.725  1.00  0.00     0.034 A 
HETATM   31  C   UNL     1      40.492 -10.238   4.436  1.00  0.00     0.325 A 
HETATM   32  H   UNL     1      38.626 -10.898   5.223  1.00  0.00     0.170 HD
HETATM   33  O   UNL     1      40.280  -9.079   4.132  1.00  0.00    -0.247 OA
HETATM   34  C   UNL     1      40.636 -14.600   5.796  1.00  0.00     0.032 A 
HETATM   35  H   UNL     1      42.534 -10.520   3.900  1.00  0.00     0.170 HD
ENDBRANCH  21  24
ENDBRANCH  19  20
ENDBRANCH   1  19
TORSDOF 7
ENDMDL
MODEL 2
REMARK VINA RESULT:      -8.6      2.655      6.962
REMARK  7 active torsions:
REMARK  status: ('A' for Active; 'I' for Inactive)
REMARK    1  A    between atoms: O_2  and  C_3 
REMARK    2  A    between atoms: C_6  and  C_7 
REMARK    3  A    between atoms: C_7  and  N_8 
REMARK    4  A    between atoms: C_7  and  C_25 
REMARK    5  A    between atoms: N_8  and  C_11 
REMARK    6  A    between atoms: C_11  and  C_12 
REMARK       I    between atoms: C_12  and  N_13 
REMARK    7  A    between atoms: N_13  and  C_14 
ROOT
HETATM    1  N   UNL     1      42.280 -13.927   1.639  1.00  0.00    -0.055 N 
HETATM    2  H   UNL     1      43.210 -14.276   1.927  1.00  0.00     0.278 HD
HETATM    3  H   UNL     1      42.498 -13.121   1.045  1.00  0.00     0.278 HD
ENDROOT
BRANCH   1   4
HETATM    4  C   UNL     1      41.575 -14.986   0.858  1.00  0.00     0.252 C 
BRANCH   4   5
HETATM    5  C   UNL     1      42.105 -16.378   1.160  1.00  0.00    -0.023 A 
HETATM    6  C   UNL     1      43.495 -16.596   1.186  1.00  0.00     0.012 A 
HETATM    7  C   UNL     1      44.027 -17.855   1.490  1.00  0.00     0.037 A 
HETATM    8  C   UNL     1      43.180 -18.920   1.782  1.00  0.00     0.068 A 
HETATM    9  C   UNL     1      41.800 -18.717   1.755  1.00  0.00     0.037 A 
HETATM   10  C   UNL     1      41.263 -17.462   1.454  1.00  0.00     0.012 A 
BRANCH   8  11
HETATM   11  O   UNL     1      43.564 -20.191   2.103  1.00  0.00    -0.356 OA
HETATM   12  C   UNL     1      44.726 -20.333   2.913  1.00  0.00     0.210 C 
ENDBRANCH   8  11
ENDBRANCH   4   5
BRANCH   4  13
HETATM   13  C   UNL     1      41.524 -14.671  -0.628  1.00  0.00    -0.023 A 
HETATM   14  C   UNL     1      41.053 -15.644  -1.528  1.00  0.00     0.009 A 
HETATM   15  C   UNL     1      40.975 -15.373  -2.895  1.00  0.00     0.001 A 
HETATM   16  C   UNL     1      41.369 -14.131  -3.383  1.00  0.00     0.000 A 
HETATM   17  C   UNL     1      41.848 -13.159  -2.508  1.00  0.00     0.001 A 
HETATM   18  C   UNL     1      41.930 -13.426  -1.140  1.00  0.00     0.009 A 
ENDBRANCH   4  13
ENDBRANCH   1   4
BRANCH   1  19
HETATM   19  C   UNL     1      41.581 -13.440   2.883  1.00  0.00     0.336 C 
BRANCH  19  20
HETATM   20  C   UNL     1      41.532 -14.565   3.918  1.00  0.00     0.248 C 
HETATM   21  N   UNL     1      42.769 -14.991   4.355  1.00  0.00    -0.326 N 
HETATM   22  H   UNL     1      43.600 -14.570   3.951  1.00  0.00     0.169 HD
HETATM   23  O   UNL     1      40.426 -14.982   4.259  1.00  0.00    -0.271 OA
BRANCH  21  24
HETATM   24  C   UNL     1      43.030 -15.991   5.322  1.00  0.00     0.037 A 
HETATM   25  C   UNL     1      42.978 -17.365   5.052  1.00  0.00     0.061 A 
HETATM   26  C   UNL     1      43.250 -18.220   6.098  1.00  0.00     0.065 A 
HETATM   27  C   UNL     1      43.568 -17.766   7.374  1.00  0.00     0.063 A 
HETATM   28  N   UNL     1      43.267 -19.611   6.124  1.00  0.00    -0.306 N 
HETATM   29  N   UNL     1      43.782 -18.874   8.184  1.00  0.00    -0.307 N 
HETATM   30  C   UNL     1      43.631 -16.430   7.676  1.00  0.00     0.034 A 
HETATM   31  C   UNL     1      43.597 -20.034   7.420  1.00  0.00     0.325 A 
HETATM   32  H   UNL     1      44.027 -18.886   9.162  1.00  0.00     0.170 HD
HETATM   33  O   UNL     1      43.701 -21.185   7.803  1.00  0.00    -0.247 OA
HETATM   34  C   UNL     1      43.355 -15.538   6.630  1.00  0.00     0.032 A 
HETATM   35  H   UNL     1      43.077 -20.247   5.365  1.00  0.00     0.170 HD
ENDBRANCH  21  24
ENDBRANCH  19  20
ENDBRANCH   1  19
TORSDOF 7
ENDMDL
MODEL 3
REMARK VINA RESULT:      -8.4      2.794      5.461
REMARK  7 active torsions:
REMARK  status: ('A' for Active; 'I' for Inactive)
REMARK    1  A    between atoms: O_2  and  C_3 
REMARK    2  A    between atoms: C_6  and  C_7 
REMARK    3  A    between atoms: C_7  and  N_8 
REMARK    4  A    between atoms: C_7  and  C_25 
REMARK    5  A    between atoms: N_8  and  C_11 
REMARK    6  A    between atoms: C_11  and  C_12 
REMARK       I    between atoms: C_12  and  N_13 
REMARK    7  A    between atoms: N_13  and  C_14 
ROOT
HETATM    1  N   UNL     1      41.549 -17.463   1.338  1.00  0.00    -0.055 N 
HETATM    2  H   UNL     1      41.447 -18.455   1.067  1.00  0.00     0.278 HD
HETATM    3  H   UNL     1      40.667 -17.252   1.815  1.00  0.00     0.278 HD
ENDROOT
BRANCH   1   4
HETATM    4  C   UNL     1      42.705 -17.322   2.273  1.00  0.00     0.252 C 
BRANCH   4   5
HETATM    5  C   UNL     1      43.298 -18.664   2.667  1.00  0.00    -0.023 A 
HETATM    6  C   UNL     1      43.199 -19.750   1.776  1.00  0.00     0.012 A 
HETATM    7  C   UNL     1      43.758 -20.996   2.086  1.00  0.00     0.037 A 
HETATM    8  C   UNL     1      44.434 -21.180   3.289  1.00  0.00     0.068 A 
HETATM    9  C   UNL     1      44.534 -20.112   4.181  1.00  0.00     0.037 A 
HETATM   10  C   UNL     1      43.979 -18.866   3.877  1.00  0.00     0.012 A 
BRANCH   8  11
HETATM   11  O   UNL     1      45.031 -22.334   3.709  1.00  0.00    -0.356 OA
HETATM   12  C   UNL     1      45.096 -22.557   5.114  1.00  0.00     0.210 C 
ENDBRANCH   8  11
ENDBRANCH   4   5
BRANCH   4  13
HETATM   13  C   UNL     1      42.380 -16.435   3.463  1.00  0.00    -0.023 A 
HETATM   14  C   UNL     1      43.222 -15.350   3.770  1.00  0.00     0.009 A 
HETATM   15  C   UNL     1      42.934 -14.506   4.844  1.00  0.00     0.001 A 
HETATM   16  C   UNL     1      41.807 -14.735   5.629  1.00  0.00     0.000 A 
HETATM   17  C   UNL     1      40.969 -15.810   5.346  1.00  0.00     0.001 A 
HETATM   18  C   UNL     1      41.254 -16.659   4.273  1.00  0.00     0.009 A 
ENDBRANCH   4  13
ENDBRANCH   1   4
BRANCH   1  19
HETATM   19  C   UNL     1      41.620 -16.658   0.065  1.00  0.00     0.336 C 
BRANCH  19  20
HETATM   20  C   UNL     1      41.129 -15.234   0.329  1.00  0.00     0.248 C 
HETATM   21  N   UNL     1      39.986 -15.159   1.097  1.00  0.00    -0.326 N 
HETATM   22  H   UNL     1      39.543 -16.022   1.397  1.00  0.00     0.169 HD
HETATM   23  O   UNL     1      41.775 -14.306  -0.156  1.00  0.00    -0.271 OA
BRANCH  21  24
HETATM   24  C   UNL     1      39.323 -13.983   1.521  1.00  0.00     0.037 A 
HETATM   25  C   UNL     1      39.597 -13.329   2.730  1.00  0.00     0.061 A 
HETATM   26  C   UNL     1      38.864 -12.197   3.011  1.00  0.00     0.065 A 
HETATM   27  C   UNL     1      37.890 -11.701   2.149  1.00  0.00     0.063 A 
HETATM   28  N   UNL     1      38.916 -11.360   4.121  1.00  0.00    -0.306 N 
HETATM   29  N   UNL     1      37.345 -10.561   2.725  1.00  0.00    -0.307 N 
HETATM   30  C   UNL     1      37.594 -12.312   0.958  1.00  0.00     0.034 A 
HETATM   31  C   UNL     1      37.973 -10.335   3.958  1.00  0.00     0.325 A 
HETATM   32  H   UNL     1      36.616  -9.970   2.356  1.00  0.00     0.170 HD
HETATM   33  O   UNL     1      37.747  -9.426   4.736  1.00  0.00    -0.247 OA
HETATM   34  C   UNL     1      38.324 -13.469   0.649  1.00  0.00     0.032 A 
HETATM   35  H   UNL     1      39.512 -11.440   4.929  1.00  0.00     0.170 HD
ENDBRANCH  21  24
ENDBRANCH  19  20
ENDBRANCH   1  19
TORSDOF 7
ENDMDL
MODEL 4
REMARK VINA RESULT:      -8.4      2.899      5.672
REMARK  7 active torsions:
REMARK  status: ('A' for Active; 'I' for Inactive)
REMARK    1  A    between atoms: O_2  and  C_3 
REMARK    2  A    between atoms: C_6  and  C_7 
REMARK    3  A    between atoms: C_7  and  N_8 
REMARK    4  A    between atoms: C_7  and  C_25 
REMARK    5  A    between atoms: N_8  and  C_11 
REMARK    6  A    between atoms: C_11  and  C_12 
REMARK       I    between atoms: C_12  and  N_13 
REMARK    7  A    between atoms: N_13  and  C_14 
ROOT
HETATM    1  N   UNL     1      40.758 -17.241   5.054  1.00  0.00    -0.055 N 
HETATM    2  H   UNL     1      40.629 -17.360   4.035  1.00  0.00     0.278 HD
HETATM    3  H   UNL     1      40.065 -17.877   5.460  1.00  0.00     0.278 HD
ENDROOT
BRANCH   1   4
HETATM    4  C   UNL     1      42.143 -17.656   5.428  1.00  0.00     0.252 C 
BRANCH   4   5
HETATM    5  C   UNL     1      42.973 -16.496   5.951  1.00  0.00    -0.023 A 
HETATM    6  C   UNL     1      43.320 -16.454   7.314  1.00  0.00     0.012 A 
HETATM    7  C   UNL     1      44.108 -15.419   7.831  1.00  0.00     0.037 A 
HETATM    8  C   UNL     1      44.574 -14.409   6.994  1.00  0.00     0.068 A 
HETATM    9  C   UNL     1      44.233 -14.438   5.642  1.00  0.00     0.037 A 
HETATM   10  C   UNL     1      43.447 -15.469   5.119  1.00  0.00     0.012 A 
BRANCH   8  11
HETATM   11  O   UNL     1      45.356 -13.352   7.364  1.00  0.00    -0.356 OA
HETATM   12  C   UNL     1      45.026 -12.697   8.584  1.00  0.00     0.210 C 
ENDBRANCH   8  11
ENDBRANCH   4   5
BRANCH   4  13
HETATM   13  C   UNL     1      42.831 -18.439   4.322  1.00  0.00    -0.023 A 
HETATM   14  C   UNL     1      43.887 -19.311   4.642  1.00  0.00     0.009 A 
HETATM   15  C   UNL     1      44.521 -20.058   3.648  1.00  0.00     0.001 A 
HETATM   16  C   UNL     1      44.114 -19.943   2.322  1.00  0.00     0.000 A 
HETATM   17  C   UNL     1      43.077 -19.077   1.986  1.00  0.00     0.001 A 
HETATM   18  C   UNL     1      42.441 -18.325   2.976  1.00  0.00     0.009 A 
ENDBRANCH   4  13
ENDBRANCH   1   4
BRANCH   1  19
HETATM   19  C   UNL     1      40.375 -15.822   5.390  1.00  0.00     0.336 C 
BRANCH  19  20
HETATM   20  C   UNL     1      40.279 -14.997   4.106  1.00  0.00     0.248 C 
HETATM   21  N   UNL     1      40.169 -15.747   2.954  1.00  0.00    -0.326 N 
HETATM   22  H   UNL     1      40.193 -16.759   3.028  1.00  0.00     0.169 HD
HETATM   23  O   UNL     1      40.312 -13.772   4.209  1.00  0.00    -0.271 OA
BRANCH  21  24
HETATM   24  C   UNL     1      40.039 -15.260   1.632  1.00  0.00     0.037 A 
HETATM   25  C   UNL     1      40.994 -15.469   0.629  1.00  0.00     0.061 A 
HETATM   26  C   UNL     1      40.733 -14.926  -0.610  1.00  0.00     0.065 A 
HETATM   27  C   UNL     1      39.577 -14.200  -0.882  1.00  0.00     0.063 A 
HETATM   28  N   UNL     1      41.492 -14.969  -1.775  1.00  0.00    -0.306 N 
HETATM   29  N   UNL     1      39.622 -13.798  -2.210  1.00  0.00    -0.307 N 
HETATM   30  C   UNL     1      38.619 -13.975   0.073  1.00  0.00     0.034 A 
HETATM   31  C   UNL     1      40.812 -14.268  -2.783  1.00  0.00     0.325 A 
HETATM   32  H   UNL     1      38.940 -13.255  -2.715  1.00  0.00     0.170 HD
HETATM   33  O   UNL     1      41.185 -14.103  -3.929  1.00  0.00    -0.247 OA
HETATM   34  C   UNL     1      38.862 -14.514   1.345  1.00  0.00     0.032 A 
HETATM   35  H   UNL     1      42.385 -15.414  -1.916  1.00  0.00     0.170 HD
ENDBRANCH  21  24
ENDBRANCH  19  20
ENDBRANCH   1  19
TORSDOF 7
ENDMDL
MODEL 5
REMARK VINA RESULT:      -8.4      3.307      6.137
REMARK  7 active torsions:
REMARK  status: ('A' for Active; 'I' for Inactive)
REMARK    1  A    between atoms: O_2  and  C_3 
REMARK    2  A    between atoms: C_6  and  C_7 
REMARK    3  A    between atoms: C_7  and  N_8 
REMARK    4  A    between atoms: C_7  and  C_25 
REMARK    5  A    between atoms: N_8  and  C_11 
REMARK    6  A    between atoms: C_11  and  C_12 
REMARK       I    between atoms: C_12  and  N_13 
REMARK    7  A    between atoms: N_13  and  C_14 
ROOT
HETATM    1  N   UNL     1      41.920 -16.831   2.529  1.00  0.00    -0.055 N 
HETATM    2  H   UNL     1      42.396 -15.917   2.618  1.00  0.00     0.278 HD
HETATM    3  H   UNL     1      42.339 -17.241   1.689  1.00  0.00     0.278 HD
ENDROOT
BRANCH   1   4
HETATM    4  C   UNL     1      42.219 -17.664   3.731  1.00  0.00     0.252 C 
BRANCH   4   5
HETATM    5  C   UNL     1      42.760 -16.838   4.887  1.00  0.00    -0.023 A 
HETATM    6  C   UNL     1      42.629 -17.324   6.202  1.00  0.00     0.012 A 
HETATM    7  C   UNL     1      43.139 -16.609   7.293  1.00  0.00     0.037 A 
HETATM    8  C   UNL     1      43.798 -15.400   7.091  1.00  0.00     0.068 A 
HETATM    9  C   UNL     1      43.930 -14.908   5.793  1.00  0.00     0.037 A 
HETATM   10  C   UNL     1      43.424 -15.616   4.699  1.00  0.00     0.012 A 
BRANCH   8  11
HETATM   11  O   UNL     1      44.350 -14.611   8.060  1.00  0.00    -0.356 OA
HETATM   12  C   UNL     1      45.077 -13.466   7.629  1.00  0.00     0.210 C 
ENDBRANCH   8  11
ENDBRANCH   4   5
BRANCH   4  13
HETATM   13  C   UNL     1      43.081 -18.870   3.398  1.00  0.00    -0.023 A 
HETATM   14  C   UNL     1      42.902 -19.534   2.171  1.00  0.00     0.009 A 
HETATM   15  C   UNL     1      43.695 -20.631   1.831  1.00  0.00     0.001 A 
HETATM   16  C   UNL     1      44.674 -21.082   2.710  1.00  0.00     0.000 A 
HETATM   17  C   UNL     1      44.859 -20.444   3.933  1.00  0.00     0.001 A 
HETATM   18  C   UNL     1      44.067 -19.348   4.280  1.00  0.00     0.009 A 
ENDBRANCH   4  13
ENDBRANCH   1   4
BRANCH   1  19
HETATM   19  C   UNL     1      40.463 -16.550   2.259  1.00  0.00     0.336 C 
BRANCH  19  20
HETATM   20  C   UNL     1      40.337 -15.485   1.169  1.00  0.00     0.248 C 
HETATM   21  N   UNL     1      41.313 -15.548   0.196  1.00  0.00    -0.326 N 
HETATM   22  H   UNL     1      42.042 -16.249   0.283  1.00  0.00     0.169 HD
HETATM   23  O   UNL     1      39.406 -14.686   1.254  1.00  0.00    -0.271 OA
BRANCH  21  24
HETATM   24  C   UNL     1      41.434 -14.715  -0.941  1.00  0.00     0.037 A 
HETATM   25  C   UNL     1      41.995 -13.432  -0.908  1.00  0.00     0.061 A 
HETATM   26  C   UNL     1      42.038 -12.735  -2.096  1.00  0.00     0.065 A 
HETATM   27  C   UNL     1      41.555 -13.260  -3.291  1.00  0.00     0.063 A 
HETATM   28  N   UNL     1      42.527 -11.459  -2.357  1.00  0.00    -0.306 N 
HETATM   29  N   UNL     1      41.746 -12.311  -4.287  1.00  0.00    -0.307 N 
HETATM   30  C   UNL     1      41.000 -14.511  -3.363  1.00  0.00     0.034 A 
HETATM   31  C   UNL     1      42.351 -11.180  -3.721  1.00  0.00     0.325 A 
HETATM   32  H   UNL     1      41.503 -12.381  -5.262  1.00  0.00     0.170 HD
HETATM   33  O   UNL     1      42.664 -10.154  -4.298  1.00  0.00    -0.247 OA
HETATM   34  C   UNL     1      40.941 -15.241  -2.167  1.00  0.00     0.032 A 
HETATM   35  H   UNL     1      42.942 -10.810  -1.709  1.00  0.00     0.170 HD
ENDBRANCH  21  24
ENDBRANCH  19  20
ENDBRANCH   1  19
TORSDOF 7
ENDMDL
MODEL 6
REMARK VINA RESULT:      -8.3      5.092      6.184
REMARK  7 active torsions:
REMARK  status: ('A' for Active; 'I' for Inactive)
REMARK    1  A    between atoms: O_2  and  C_3 
REMARK    2  A    between atoms: C_6  and  C_7 
REMARK    3  A    between atoms: C_7  and  N_8 
REMARK    4  A    between atoms: C_7  and  C_25 
REMARK    5  A    between atoms: N_8  and  C_11 
REMARK    6  A    between atoms: C_11  and  C_12 
REMARK       I    between atoms: C_12  and  N_13 
REMARK    7  A    between atoms: N_13  and  C_14 
ROOT
HETATM    1  N   UNL     1      44.346 -13.754   7.944  1.00  0.00    -0.055 N 
HETATM    2  H   UNL     1      43.469 -13.208   7.928  1.00  0.00     0.278 HD
HETATM    3  H   UNL     1      44.223 -14.384   8.742  1.00  0.00     0.278 HD
ENDROOT
BRANCH   1   4
HETATM    4  C   UNL     1      44.469 -14.528   6.672  1.00  0.00     0.252 C 
BRANCH   4   5
HETATM    5  C   UNL     1      43.593 -13.965   5.565  1.00  0.00    -0.023 A 
HETATM    6  C   UNL     1      42.445 -13.226   5.904  1.00  0.00     0.012 A 
HETATM    7  C   UNL     1      41.626 -12.664   4.916  1.00  0.00     0.037 A 
HETATM    8  C   UNL     1      41.944 -12.823   3.570  1.00  0.00     0.068 A 
HETATM    9  C   UNL     1      43.078 -13.558   3.223  1.00  0.00     0.037 A 
HETATM   10  C   UNL     1      43.900 -14.120   4.205  1.00  0.00     0.012 A 
BRANCH   8  11
HETATM   11  O   UNL     1      41.242 -12.323   2.511  1.00  0.00    -0.356 OA
HETATM   12  C   UNL     1      41.905 -12.284   1.252  1.00  0.00     0.210 C 
ENDBRANCH   8  11
ENDBRANCH   4   5
BRANCH   4  13
HETATM   13  C   UNL     1      44.286 -16.021   6.884  1.00  0.00    -0.023 A 
HETATM   14  C   UNL     1      45.088 -16.928   6.167  1.00  0.00     0.009 A 
HETATM   15  C   UNL     1      44.955 -18.304   6.360  1.00  0.00     0.001 A 
HETATM   16  C   UNL     1      44.020 -18.794   7.266  1.00  0.00     0.000 A 
HETATM   17  C   UNL     1      43.211 -17.912   7.977  1.00  0.00     0.001 A 
HETATM   18  C   UNL     1      43.338 -16.535   7.787  1.00  0.00     0.009 A 
ENDBRANCH   4  13
ENDBRANCH   1   4
BRANCH   1  19
HETATM   19  C   UNL     1      45.466 -12.792   8.249  1.00  0.00     0.336 C 
BRANCH  19  20
HETATM   20  C   UNL     1      44.956 -11.686   9.173  1.00  0.00     0.248 C 
HETATM   21  N   UNL     1      43.797 -11.999   9.851  1.00  0.00    -0.326 N 
HETATM   22  H   UNL     1      43.356 -12.896   9.673  1.00  0.00     0.169 HD
HETATM   23  O   UNL     1      45.604 -10.641   9.228  1.00  0.00    -0.271 OA
BRANCH  21  24
HETATM   24  C   UNL     1      43.114 -11.187  10.787  1.00  0.00     0.037 A 
HETATM   25  C   UNL     1      41.764 -10.832  10.669  1.00  0.00     0.061 A 
HETATM   26  C   UNL     1      41.237 -10.028  11.656  1.00  0.00     0.065 A 
HETATM   27  C   UNL     1      41.990  -9.576  12.736  1.00  0.00     0.063 A 
HETATM   28  N   UNL     1      39.949  -9.522  11.794  1.00  0.00    -0.306 N 
HETATM   29  N   UNL     1      41.169  -8.795  13.537  1.00  0.00    -0.307 N 
HETATM   30  C   UNL     1      43.314  -9.902  12.886  1.00  0.00     0.034 A 
HETATM   31  C   UNL     1      39.891  -8.749  12.963  1.00  0.00     0.325 A 
HETATM   32  H   UNL     1      41.410  -8.319  14.393  1.00  0.00     0.170 HD
HETATM   33  O   UNL     1      38.918  -8.156  13.393  1.00  0.00    -0.247 OA
HETATM   34  C   UNL     1      43.875 -10.718  11.893  1.00  0.00     0.032 A 
HETATM   35  H   UNL     1      39.161  -9.658  11.181  1.00  0.00     0.170 HD
ENDBRANCH  21  24
ENDBRANCH  19  20
ENDBRANCH   1  19
TORSDOF 7
ENDMDL
MODEL 7
REMARK VINA RESULT:      -8.3      2.624      4.594
REMARK  7 active torsions:
REMARK  status: ('A' for Active; 'I' for Inactive)
REMARK    1  A    between atoms: O_2  and  C_3 
REMARK    2  A    between atoms: C_6  and  C_7 
REMARK    3  A    between atoms: C_7  and  N_8 
REMARK    4  A    between atoms: C_7  and  C_25 
REMARK    5  A    between atoms: N_8  and  C_11 
REMARK    6  A    between atoms: C_11  and  C_12 
REMARK       I    between atoms: C_12  and  N_13 
REMARK    7  A    between atoms: N_13  and  C_14 
ROOT
HETATM    1  N   UNL     1      42.708 -16.892   0.810  1.00  0.00    -0.055 N 
HETATM    2  H   UNL     1      43.275 -16.028   0.848  1.00  0.00     0.278 HD
HETATM    3  H   UNL     1      43.332 -17.571   0.364  1.00  0.00     0.278 HD
ENDROOT
BRANCH   1   4
HETATM    4  C   UNL     1      42.367 -17.320   2.200  1.00  0.00     0.252 C 
BRANCH   4   5
HETATM    5  C   UNL     1      42.441 -16.173   3.194  1.00  0.00    -0.023 A 
HETATM    6  C   UNL     1      43.408 -15.167   3.015  1.00  0.00     0.012 A 
HETATM    7  C   UNL     1      43.491 -14.076   3.889  1.00  0.00     0.037 A 
HETATM    8  C   UNL     1      42.603 -13.965   4.955  1.00  0.00     0.068 A 
HETATM    9  C   UNL     1      41.643 -14.959   5.145  1.00  0.00     0.037 A 
HETATM   10  C   UNL     1      41.554 -16.049   4.275  1.00  0.00     0.012 A 
BRANCH   8  11
HETATM   11  O   UNL     1      42.568 -12.954   5.873  1.00  0.00    -0.356 OA
HETATM   12  C   UNL     1      41.404 -12.134   5.889  1.00  0.00     0.210 C 
ENDBRANCH   8  11
ENDBRANCH   4   5
BRANCH   4  13
HETATM   13  C   UNL     1      43.152 -18.545   2.636  1.00  0.00    -0.023 A 
HETATM   14  C   UNL     1      43.204 -19.673   1.796  1.00  0.00     0.009 A 
HETATM   15  C   UNL     1      43.936 -20.803   2.163  1.00  0.00     0.001 A 
HETATM   16  C   UNL     1      44.624 -20.826   3.373  1.00  0.00     0.000 A 
HETATM   17  C   UNL     1      44.576 -19.723   4.221  1.00  0.00     0.001 A 
HETATM   18  C   UNL     1      43.843 -18.591   3.860  1.00  0.00     0.009 A 
ENDBRANCH   4  13
ENDBRANCH   1   4
BRANCH   1  19
HETATM   19  C   UNL     1      41.543 -16.622  -0.108  1.00  0.00     0.336 C 
BRANCH  19  20
HETATM   20  C   UNL     1      41.022 -15.203   0.127  1.00  0.00     0.248 C 
HETATM   21  N   UNL     1      39.831 -15.142   0.819  1.00  0.00    -0.326 N 
HETATM   22  H   UNL     1      39.379 -16.009   1.088  1.00  0.00     0.169 HD
HETATM   23  O   UNL     1      41.689 -14.268  -0.314  1.00  0.00    -0.271 OA
BRANCH  21  24
HETATM   24  C   UNL     1      39.131 -13.973   1.202  1.00  0.00     0.037 A 
HETATM   25  C   UNL     1      39.487 -13.177   2.298  1.00  0.00     0.061 A 
HETATM   26  C   UNL     1      38.705 -12.072   2.552  1.00  0.00     0.065 A 
HETATM   27  C   UNL     1      37.604 -11.736   1.769  1.00  0.00     0.063 A 
HETATM   28  N   UNL     1      38.817 -11.119   3.559  1.00  0.00    -0.306 N 
HETATM   29  N   UNL     1      37.040 -10.580   2.291  1.00  0.00    -0.307 N 
HETATM   30  C   UNL     1      37.224 -12.490   0.688  1.00  0.00     0.034 A 
HETATM   31  C   UNL     1      37.784 -10.181   3.410  1.00  0.00     0.325 A 
HETATM   32  H   UNL     1      36.231 -10.081   1.956  1.00  0.00     0.170 HD
HETATM   33  O   UNL     1      37.577  -9.212   4.116  1.00  0.00    -0.247 OA
HETATM   34  C   UNL     1      38.003 -13.623   0.409  1.00  0.00     0.032 A 
HETATM   35  H   UNL     1      39.505 -11.072   4.294  1.00  0.00     0.170 HD
ENDBRANCH  21  24
ENDBRANCH  19  20
ENDBRANCH   1  19
TORSDOF 7
ENDMDL
MODEL 8
REMARK VINA RESULT:      -8.3      3.279      6.018
REMARK  7 active torsions:
REMARK  status: ('A' for Active; 'I' for Inactive)
REMARK    1  A    between atoms: O_2  and  C_3 
REMARK    2  A    between atoms: C_6  and  C_7 
REMARK    3  A    between atoms: C_7  and  N_8 
REMARK    4  A    between atoms: C_7  and  C_25 
REMARK    5  A    between atoms: N_8  and  C_11 
REMARK    6  A    between atoms: C_11  and  C_12 
REMARK       I    between atoms: C_12  and  N_13 
REMARK    7  A    between atoms: N_13  and  C_14 
ROOT
HETATM    1  N   UNL     1      41.556 -17.266   1.560  1.00  0.00    -0.055 N 
HETATM    2  H   UNL     1      41.553 -18.293   1.444  1.00  0.00     0.278 HD
HETATM    3  H   UNL     1      40.673 -17.075   2.044  1.00  0.00     0.278 HD
ENDROOT
BRANCH   1   4
HETATM    4  C   UNL     1      42.721 -16.868   2.406  1.00  0.00     0.252 C 
BRANCH   4   5
HETATM    5  C   UNL     1      43.412 -18.064   3.038  1.00  0.00    -0.023 A 
HETATM    6  C   UNL     1      43.627 -19.222   2.269  1.00  0.00     0.012 A 
HETATM    7  C   UNL     1      44.287 -20.336   2.803  1.00  0.00     0.037 A 
HETATM    8  C   UNL     1      44.753 -20.311   4.114  1.00  0.00     0.068 A 
HETATM    9  C   UNL     1      44.542 -19.170   4.887  1.00  0.00     0.037 A 
HETATM   10  C   UNL     1      43.885 -18.054   4.360  1.00  0.00     0.012 A 
BRANCH   8  11
HETATM   11  O   UNL     1      45.418 -21.319   4.752  1.00  0.00    -0.356 OA
HETATM   12  C   UNL     1      44.792 -22.597   4.776  1.00  0.00     0.210 C 
ENDBRANCH   8  11
ENDBRANCH   4   5
BRANCH   4  13
HETATM   13  C   UNL     1      42.364 -15.781   3.406  1.00  0.00    -0.023 A 
HETATM   14  C   UNL     1      41.221 -15.928   4.214  1.00  0.00     0.009 A 
HETATM   15  C   UNL     1      40.883 -14.955   5.156  1.00  0.00     0.001 A 
HETATM   16  C   UNL     1      41.677 -13.822   5.303  1.00  0.00     0.000 A 
HETATM   17  C   UNL     1      42.806 -13.654   4.505  1.00  0.00     0.001 A 
HETATM   18  C   UNL     1      43.147 -14.623   3.559  1.00  0.00     0.009 A 
ENDBRANCH   4  13
ENDBRANCH   1   4
BRANCH   1  19
HETATM   19  C   UNL     1      41.497 -16.660   0.181  1.00  0.00     0.336 C 
BRANCH  19  20
HETATM   20  C   UNL     1      40.914 -15.249   0.263  1.00  0.00     0.248 C 
HETATM   21  N   UNL     1      39.752 -15.155   0.998  1.00  0.00    -0.326 N 
HETATM   22  H   UNL     1      39.355 -16.002   1.393  1.00  0.00     0.169 HD
HETATM   23  O   UNL     1      41.514 -14.347  -0.320  1.00  0.00    -0.271 OA
BRANCH  21  24
HETATM   24  C   UNL     1      39.009 -13.980   1.266  1.00  0.00     0.037 A 
HETATM   25  C   UNL     1      37.808 -13.656   0.621  1.00  0.00     0.061 A 
HETATM   26  C   UNL     1      37.201 -12.473   0.982  1.00  0.00     0.065 A 
HETATM   27  C   UNL     1      37.733 -11.621   1.945  1.00  0.00     0.063 A 
HETATM   28  N   UNL     1      36.023 -11.902   0.512  1.00  0.00    -0.306 N 
HETATM   29  N   UNL     1      36.885 -10.528   2.069  1.00  0.00    -0.307 N 
HETATM   30  C   UNL     1      38.905 -11.904   2.598  1.00  0.00     0.034 A 
HETATM   31  C   UNL     1      35.812 -10.687   1.181  1.00  0.00     0.325 A 
HETATM   32  H   UNL     1      36.988  -9.732   2.679  1.00  0.00     0.170 HD
HETATM   33  O   UNL     1      34.880  -9.922   1.019  1.00  0.00    -0.247 OA
HETATM   34  C   UNL     1      39.545 -13.101   2.247  1.00  0.00     0.032 A 
HETATM   35  H   UNL     1      35.397 -12.263  -0.190  1.00  0.00     0.170 HD
ENDBRANCH  21  24
ENDBRANCH  19  20
ENDBRANCH   1  19
TORSDOF 7
ENDMDL
MODEL 9
REMARK VINA RESULT:      -8.0      3.610      6.281
REMARK  7 active torsions:
REMARK  status: ('A' for Active; 'I' for Inactive)
REMARK    1  A    between atoms: O_2  and  C_3 
REMARK    2  A    between atoms: C_6  and  C_7 
REMARK    3  A    between atoms: C_7  and  N_8 
REMARK    4  A    between atoms: C_7  and  C_25 
REMARK    5  A    between atoms: N_8  and  C_11 
REMARK    6  A    between atoms: C_11  and  C_12 
REMARK       I    between atoms: C_12  and  N_13 
REMARK    7  A    between atoms: N_13  and  C_14 
ROOT
HETATM    1  N   UNL     1      41.998 -16.684   2.442  1.00  0.00    -0.055 N 
HETATM    2  H   UNL     1      42.486 -15.779   2.551  1.00  0.00     0.278 HD
HETATM    3  H   UNL     1      42.443 -17.100   1.618  1.00  0.00     0.278 HD
ENDROOT
BRANCH   1   4
HETATM    4  C   UNL     1      42.237 -17.523   3.654  1.00  0.00     0.252 C 
BRANCH   4   5
HETATM    5  C   UNL     1      42.776 -16.713   4.822  1.00  0.00    -0.023 A 
HETATM    6  C   UNL     1      42.690 -17.240   6.124  1.00  0.00     0.012 A 
HETATM    7  C   UNL     1      43.201 -16.541   7.225  1.00  0.00     0.037 A 
HETATM    8  C   UNL     1      43.815 -15.305   7.044  1.00  0.00     0.068 A 
HETATM    9  C   UNL     1      43.902 -14.771   5.758  1.00  0.00     0.037 A 
HETATM   10  C   UNL     1      43.395 -15.465   4.656  1.00  0.00     0.012 A 
BRANCH   8  11
HETATM   11  O   UNL     1      44.362 -14.526   8.024  1.00  0.00    -0.356 OA
HETATM   12  C   UNL     1      45.164 -13.426   7.607  1.00  0.00     0.210 C 
ENDBRANCH   8  11
ENDBRANCH   4   5
BRANCH   4  13
HETATM   13  C   UNL     1      43.064 -18.760   3.347  1.00  0.00    -0.023 A 
HETATM   14  C   UNL     1      42.851 -19.456   2.142  1.00  0.00     0.009 A 
HETATM   15  C   UNL     1      43.612 -20.582   1.826  1.00  0.00     0.001 A 
HETATM   16  C   UNL     1      44.592 -21.031   2.706  1.00  0.00     0.000 A 
HETATM   17  C   UNL     1      44.809 -20.361   3.907  1.00  0.00     0.001 A 
HETATM   18  C   UNL     1      44.049 -19.235   4.230  1.00  0.00     0.009 A 
ENDBRANCH   4  13
ENDBRANCH   1   4
BRANCH   1  19
HETATM   19  C   UNL     1      40.558 -16.378   2.117  1.00  0.00     0.336 C 
BRANCH  19  20
HETATM   20  C   UNL     1      40.487 -15.163   1.191  1.00  0.00     0.248 C 
HETATM   21  N   UNL     1      40.259 -15.469  -0.134  1.00  0.00    -0.326 N 
HETATM   22  H   UNL     1      40.190 -16.446  -0.403  1.00  0.00     0.169 HD
HETATM   23  O   UNL     1      40.639 -14.050   1.693  1.00  0.00    -0.271 OA
BRANCH  21  24
HETATM   24  C   UNL     1      40.119 -14.555  -1.206  1.00  0.00     0.037 A 
HETATM   25  C   UNL     1      39.055 -13.652  -1.322  1.00  0.00     0.061 A 
HETATM   26  C   UNL     1      39.050 -12.827  -2.426  1.00  0.00     0.065 A 
HETATM   27  C   UNL     1      40.047 -12.868  -3.397  1.00  0.00     0.063 A 
HETATM   28  N   UNL     1      38.132 -11.851  -2.799  1.00  0.00    -0.306 N 
HETATM   29  N   UNL     1      39.744 -11.919  -4.365  1.00  0.00    -0.307 N 
HETATM   30  C   UNL     1      41.104 -13.738  -3.317  1.00  0.00     0.034 A 
HETATM   31  C   UNL     1      38.551 -11.276  -4.008  1.00  0.00     0.325 A 
HETATM   32  H   UNL     1      40.265 -11.700  -5.200  1.00  0.00     0.170 HD
HETATM   33  O   UNL     1      37.987 -10.391  -4.625  1.00  0.00    -0.247 OA
HETATM   34  C   UNL     1      41.131 -14.590  -2.204  1.00  0.00     0.032 A 
HETATM   35  H   UNL     1      37.293 -11.573  -2.316  1.00  0.00     0.170 HD
ENDBRANCH  21  24
ENDBRANCH  19  20
ENDBRANCH   1  19
TORSDOF 7
ENDMDL
MODEL 10
REMARK VINA RESULT:      -8.0      2.885      6.122
REMARK  7 active torsions:
REMARK  status: ('A' for Active; 'I' for Inactive)
REMARK    1  A    between atoms: O_2  and  C_3 
REMARK    2  A    between atoms: C_6  and  C_7 
REMARK    3  A    between atoms: C_7  and  N_8 
REMARK    4  A    between atoms: C_7  and  C_25 
REMARK    5  A    between atoms: N_8  and  C_11 
REMARK    6  A    between atoms: C_11  and  C_12 
REMARK       I    between atoms: C_12  and  N_13 
REMARK    7  A    between atoms: N_13  and  C_14 
ROOT
HETATM    1  N   UNL     1      41.376 -13.895   2.326  1.00  0.00    -0.055 N 
HETATM    2  H   UNL     1      40.611 -13.220   2.162  1.00  0.00     0.278 HD
HETATM    3  H   UNL     1      40.974 -14.557   2.997  1.00  0.00     0.278 HD
ENDROOT
BRANCH   1   4
HETATM    4  C   UNL     1      41.715 -14.581   1.043  1.00  0.00     0.252 C 
BRANCH   4   5
HETATM    5  C   UNL     1      40.616 -14.437   0.003  1.00  0.00    -0.023 A 
HETATM    6  C   UNL     1      39.343 -13.990   0.402  1.00  0.00     0.012 A 
HETATM    7  C   UNL     1      38.311 -13.815  -0.528  1.00  0.00     0.037 A 
HETATM    8  C   UNL     1      38.534 -14.075  -1.877  1.00  0.00     0.068 A 
HETATM    9  C   UNL     1      39.791 -14.523  -2.283  1.00  0.00     0.037 A 
HETATM   10  C   UNL     1      40.825 -14.699  -1.360  1.00  0.00     0.012 A 
BRANCH   8  11
HETATM   11  O   UNL     1      37.623 -13.937  -2.886  1.00  0.00    -0.356 OA
HETATM   12  C   UNL     1      37.473 -15.034  -3.779  1.00  0.00     0.210 C 
ENDBRANCH   8  11
ENDBRANCH   4   5
BRANCH   4  13
HETATM   13  C   UNL     1      42.157 -16.019   1.256  1.00  0.00    -0.023 A 
HETATM   14  C   UNL     1      43.530 -16.326   1.287  1.00  0.00     0.009 A 
HETATM   15  C   UNL     1      43.964 -17.635   1.503  1.00  0.00     0.001 A 
HETATM   16  C   UNL     1      43.036 -18.655   1.688  1.00  0.00     0.000 A 
HETATM   17  C   UNL     1      41.673 -18.372   1.650  1.00  0.00     0.001 A 
HETATM   18  C   UNL     1      41.234 -17.065   1.432  1.00  0.00     0.009 A 
ENDBRANCH   4  13
ENDBRANCH   1   4
BRANCH   1  19
HETATM   19  C   UNL     1      42.499 -13.143   2.995  1.00  0.00     0.336 C 
BRANCH  19  20
HETATM   20  C   UNL     1      43.155 -14.032   4.053  1.00  0.00     0.248 C 
HETATM   21  N   UNL     1      42.387 -15.107   4.449  1.00  0.00    -0.326 N 
HETATM   22  H   UNL     1      41.459 -15.214   4.053  1.00  0.00     0.169 HD
HETATM   23  O   UNL     1      44.276 -13.717   4.450  1.00  0.00    -0.271 OA
BRANCH  21  24
HETATM   24  C   UNL     1      42.743 -16.106   5.386  1.00  0.00     0.037 A 
HETATM   25  C   UNL     1      42.788 -17.473   5.085  1.00  0.00     0.061 A 
HETATM   26  C   UNL     1      43.146 -18.329   6.103  1.00  0.00     0.065 A 
HETATM   27  C   UNL     1      43.455 -17.882   7.384  1.00  0.00     0.063 A 
HETATM   28  N   UNL     1      43.268 -19.715   6.095  1.00  0.00    -0.306 N 
HETATM   29  N   UNL     1      43.769 -18.988   8.163  1.00  0.00    -0.307 N 
HETATM   30  C   UNL     1      43.423 -16.552   7.717  1.00  0.00     0.034 A 
HETATM   31  C   UNL     1      43.655 -20.141   7.374  1.00  0.00     0.325 A 
HETATM   32  H   UNL     1      44.034 -19.005   9.136  1.00  0.00     0.170 HD
HETATM   33  O   UNL     1      43.854 -21.289   7.727  1.00  0.00    -0.247 OA
HETATM   34  C   UNL     1      43.059 -15.659   6.699  1.00  0.00     0.032 A 
HETATM   35  H   UNL     1      43.111 -20.346   5.325  1.00  0.00     0.170 HD
ENDBRANCH  21  24
ENDBRANCH  19  20
ENDBRANCH   1  19
TORSDOF 7
ENDMDL
