MODEL 1
REMARK VINA RESULT:      -7.4      0.000      0.000
REMARK  5 active torsions:
REMARK  status: ('A' for Active; 'I' for Inactive)
REMARK    1  A    between atoms: C_2  and  O_3 
REMARK    2  A    between atoms: O_3  and  C_4 
REMARK    3  A    between atoms: C_6  and  C_7 
REMARK    4  A    between atoms: C_11  and  N_12 
REMARK       I    between atoms: N_12  and  C_13 
REMARK       I    between atoms: C_13  and  N_14 
REMARK    5  A    between atoms: N_14  and  C_15 
ROOT
HETATM    1  N   UNL     1      40.876 -17.120   3.654  1.00  0.00    -0.308 N 
HETATM    2  C   UNL     1      41.394 -16.680   4.851  1.00  0.00     0.325 C 
HETATM    3  N   UNL     1      42.203 -15.578   4.802  1.00  0.00    -0.305 N 
HETATM    4  O   UNL     1      41.157 -17.355   5.848  1.00  0.00    -0.247 OA
HETATM    5  H   UNL     1      40.582 -18.090   3.738  1.00  0.00     0.170 HD
HETATM    6  H   UNL     1      42.253 -15.072   3.936  1.00  0.00     0.171 HD
ENDROOT
BRANCH   1   7
HETATM    7  C   UNL     1      40.906 -16.538   2.373  1.00  0.00     0.051 C 
HETATM    8  C   UNL     1      41.895 -16.921   1.448  1.00  0.00     0.077 C 
HETATM    9  C   UNL     1      41.988 -16.231   0.223  1.00  0.00     0.055 C 
HETATM   10  C   UNL     1      41.088 -15.214  -0.089  1.00  0.00     0.069 C 
HETATM   11  C   UNL     1      40.028 -14.942   0.764  1.00  0.00     0.039 C 
HETATM   12  C   UNL     1      39.936 -15.602   1.989  1.00  0.00     0.033 C 
BRANCH   8  13
HETATM   13  C   UNL     1      42.932 -17.967   1.767  1.00  0.00     0.419 C 
HETATM   14  F   UNL     1      42.395 -19.175   2.096  1.00  0.00    -0.166 F 
HETATM   15  F   UNL     1      43.765 -18.204   0.717  1.00  0.00    -0.166 F 
HETATM   16  F   UNL     1      43.737 -17.624   2.812  1.00  0.00    -0.166 F 
ENDBRANCH   8  13
BRANCH  10  17
HETATM   17  O   UNL     1      41.161 -14.468  -1.230  1.00  0.00    -0.351 OA
BRANCH  17  18
HETATM   18  C   UNL     1      40.056 -14.678  -2.117  1.00  0.00     0.171 C 
HETATM   19  C   UNL     1      40.457 -15.741  -3.124  1.00  0.00     0.034 C 
ENDBRANCH  17  18
ENDBRANCH  10  17
ENDBRANCH   1   7
BRANCH   3  20
HETATM   20  C   UNL     1      42.986 -15.058   5.817  1.00  0.00     0.086 A 
HETATM   21  C   UNL     1      44.005 -15.599   6.653  1.00  0.00     0.079 A 
HETATM   22  C   UNL     1      44.618 -16.950   6.670  1.00  0.00     0.075 C 
HETATM   23  N   UNL     1      44.488 -14.672   7.496  1.00  0.00    -0.177 NA
HETATM   24  N   UNL     1      43.802 -13.565   7.199  1.00  0.00    -0.280 N 
HETATM   25  H   UNL     1      44.008 -12.724   7.727  1.00  0.00     0.189 HD
HETATM   26  C   UNL     1      42.901 -13.728   6.186  1.00  0.00     0.052 A 
HETATM   27  C   UNL     1      42.045 -12.611   5.719  1.00  0.00     0.072 C 
ENDBRANCH   3  20
TORSDOF 5
ENDMDL
MODEL 2
REMARK VINA RESULT:      -7.3      3.373      6.026
REMARK  5 active torsions:
REMARK  status: ('A' for Active; 'I' for Inactive)
REMARK    1  A    between atoms: C_2  and  O_3 
REMARK    2  A    between atoms: O_3  and  C_4 
REMARK    3  A    between atoms: C_6  and  C_7 
REMARK    4  A    between atoms: C_11  and  N_12 
REMARK       I    between atoms: N_12  and  C_13 
REMARK       I    between atoms: C_13  and  N_14 
REMARK    5  A    between atoms: N_14  and  C_15 
ROOT
HETATM    1  N   UNL     1      40.526 -16.790   3.526  1.00  0.00    -0.308 N 
HETATM    2  C   UNL     1      40.453 -15.631   2.786  1.00  0.00     0.325 C 
HETATM    3  N   UNL     1      41.640 -15.035   2.462  1.00  0.00    -0.305 N 
HETATM    4  O   UNL     1      39.334 -15.186   2.549  1.00  0.00    -0.247 OA
HETATM    5  H   UNL     1      39.636 -16.966   3.985  1.00  0.00     0.170 HD
HETATM    6  H   UNL     1      42.486 -15.543   2.648  1.00  0.00     0.171 HD
ENDROOT
BRANCH   1   7
HETATM    7  C   UNL     1      41.635 -17.576   3.891  1.00  0.00     0.051 C 
HETATM    8  C   UNL     1      42.061 -17.613   5.231  1.00  0.00     0.077 C 
HETATM    9  C   UNL     1      43.250 -18.298   5.551  1.00  0.00     0.055 C 
HETATM   10  C   UNL     1      43.972 -18.966   4.564  1.00  0.00     0.069 C 
HETATM   11  C   UNL     1      43.468 -19.047   3.273  1.00  0.00     0.039 C 
HETATM   12  C   UNL     1      42.304 -18.357   2.938  1.00  0.00     0.033 C 
BRANCH   8  13
HETATM   13  C   UNL     1      41.353 -16.852   6.322  1.00  0.00     0.419 C 
HETATM   14  F   UNL     1      41.921 -17.015   7.549  1.00  0.00    -0.166 F 
HETATM   15  F   UNL     1      41.344 -15.511   6.092  1.00  0.00    -0.166 F 
HETATM   16  F   UNL     1      40.047 -17.215   6.469  1.00  0.00    -0.166 F 
ENDBRANCH   8  13
BRANCH  10  17
HETATM   17  O   UNL     1      45.161 -19.596   4.796  1.00  0.00    -0.351 OA
BRANCH  17  18
HETATM   18  C   UNL     1      45.180 -20.956   4.345  1.00  0.00     0.171 C 
HETATM   19  C   UNL     1      44.668 -21.833   5.473  1.00  0.00     0.034 C 
ENDBRANCH  17  18
ENDBRANCH  10  17
ENDBRANCH   1   7
BRANCH   3  20
HETATM   20  C   UNL     1      41.832 -13.786   1.898  1.00  0.00     0.086 A 
HETATM   21  C   UNL     1      41.900 -13.309   0.557  1.00  0.00     0.079 A 
HETATM   22  C   UNL     1      41.728 -14.028  -0.729  1.00  0.00     0.075 C 
HETATM   23  N   UNL     1      42.090 -11.980   0.522  1.00  0.00    -0.177 NA
HETATM   24  N   UNL     1      42.133 -11.617   1.806  1.00  0.00    -0.280 N 
HETATM   25  H   UNL     1      42.275 -10.635   2.016  1.00  0.00     0.189 HD
HETATM   26  C   UNL     1      41.963 -12.653   2.679  1.00  0.00     0.052 A 
HETATM   27  C   UNL     1      41.984 -12.445   4.147  1.00  0.00     0.072 C 
ENDBRANCH   3  20
TORSDOF 5
ENDMDL
MODEL 3
REMARK VINA RESULT:      -7.3      2.937      5.289
REMARK  5 active torsions:
REMARK  status: ('A' for Active; 'I' for Inactive)
REMARK    1  A    between atoms: C_2  and  O_3 
REMARK    2  A    between atoms: O_3  and  C_4 
REMARK    3  A    between atoms: C_6  and  C_7 
REMARK    4  A    between atoms: C_11  and  N_12 
REMARK       I    between atoms: N_12  and  C_13 
REMARK       I    between atoms: C_13  and  N_14 
REMARK    5  A    between atoms: N_14  and  C_15 
ROOT
HETATM    1  N   UNL     1      40.506 -16.710   3.149  1.00  0.00    -0.308 N 
HETATM    2  C   UNL     1      40.288 -15.360   2.984  1.00  0.00     0.325 C 
HETATM    3  N   UNL     1      41.223 -14.518   3.520  1.00  0.00    -0.305 N 
HETATM    4  O   UNL     1      39.238 -15.023   2.445  1.00  0.00    -0.247 OA
HETATM    5  H   UNL     1      39.636 -17.221   3.024  1.00  0.00     0.170 HD
HETATM    6  H   UNL     1      42.074 -14.922   3.866  1.00  0.00     0.171 HD
ENDROOT
BRANCH   1   7
HETATM    7  C   UNL     1      41.623 -17.403   3.651  1.00  0.00     0.051 C 
HETATM    8  C   UNL     1      42.679 -17.755   2.791  1.00  0.00     0.077 C 
HETATM    9  C   UNL     1      43.722 -18.564   3.285  1.00  0.00     0.055 C 
HETATM   10  C   UNL     1      43.732 -18.974   4.616  1.00  0.00     0.069 C 
HETATM   11  C   UNL     1      42.765 -18.503   5.494  1.00  0.00     0.039 C 
HETATM   12  C   UNL     1      41.716 -17.720   5.014  1.00  0.00     0.033 C 
BRANCH   8  13
HETATM   13  C   UNL     1      42.679 -17.393   1.328  1.00  0.00     0.419 C 
HETATM   14  F   UNL     1      42.863 -16.063   1.103  1.00  0.00    -0.166 F 
HETATM   15  F   UNL     1      43.667 -18.027   0.640  1.00  0.00    -0.166 F 
HETATM   16  F   UNL     1      41.515 -17.717   0.695  1.00  0.00    -0.166 F 
ENDBRANCH   8  13
BRANCH  10  17
HETATM   17  O   UNL     1      44.680 -19.806   5.141  1.00  0.00    -0.351 OA
BRANCH  17  18
HETATM   18  C   UNL     1      44.991 -20.918   4.292  1.00  0.00     0.171 C 
HETATM   19  C   UNL     1      44.941 -22.180   5.135  1.00  0.00     0.034 C 
ENDBRANCH  17  18
ENDBRANCH  10  17
ENDBRANCH   1   7
BRANCH   3  20
HETATM   20  C   UNL     1      41.143 -13.143   3.654  1.00  0.00     0.086 A 
HETATM   21  C   UNL     1      40.769 -12.277   4.722  1.00  0.00     0.079 A 
HETATM   22  C   UNL     1      40.370 -12.586   6.117  1.00  0.00     0.075 C 
HETATM   23  N   UNL     1      40.873 -10.987   4.362  1.00  0.00    -0.177 NA
HETATM   24  N   UNL     1      41.311 -11.029   3.101  1.00  0.00    -0.280 N 
HETATM   25  H   UNL     1      41.460 -10.148   2.622  1.00  0.00     0.189 HD
HETATM   26  C   UNL     1      41.513 -12.294   2.628  1.00  0.00     0.052 A 
HETATM   27  C   UNL     1      41.995 -12.541   1.248  1.00  0.00     0.072 C 
ENDBRANCH   3  20
TORSDOF 5
ENDMDL
MODEL 4
REMARK VINA RESULT:      -7.2      3.241      6.641
REMARK  5 active torsions:
REMARK  status: ('A' for Active; 'I' for Inactive)
REMARK    1  A    between atoms: C_2  and  O_3 
REMARK    2  A    between atoms: O_3  and  C_4 
REMARK    3  A    between atoms: C_6  and  C_7 
REMARK    4  A    between atoms: C_11  and  N_12 
REMARK       I    between atoms: N_12  and  C_13 
REMARK       I    between atoms: C_13  and  N_14 
REMARK    5  A    between atoms: N_14  and  C_15 
ROOT
HETATM    1  N   UNL     1      42.767 -14.792   2.088  1.00  0.00    -0.308 N 
HETATM    2  C   UNL     1      41.822 -14.182   1.293  1.00  0.00     0.325 C 
HETATM    3  N   UNL     1      41.013 -15.006   0.560  1.00  0.00    -0.305 N 
HETATM    4  O   UNL     1      41.836 -12.956   1.244  1.00  0.00    -0.247 OA
HETATM    5  H   UNL     1      43.505 -14.131   2.320  1.00  0.00     0.170 HD
HETATM    6  H   UNL     1      41.052 -15.991   0.751  1.00  0.00     0.171 HD
ENDROOT
BRANCH   1   7
HETATM    7  C   UNL     1      42.958 -16.149   2.408  1.00  0.00     0.051 C 
HETATM    8  C   UNL     1      42.301 -16.710   3.518  1.00  0.00     0.077 C 
HETATM    9  C   UNL     1      42.610 -18.031   3.898  1.00  0.00     0.055 C 
HETATM   10  C   UNL     1      43.520 -18.787   3.163  1.00  0.00     0.069 C 
HETATM   11  C   UNL     1      44.055 -18.277   1.987  1.00  0.00     0.039 C 
HETATM   12  C   UNL     1      43.774 -16.965   1.610  1.00  0.00     0.033 C 
BRANCH   8  13
HETATM   13  C   UNL     1      41.360 -15.913   4.383  1.00  0.00     0.419 C 
HETATM   14  F   UNL     1      40.260 -15.468   3.715  1.00  0.00    -0.166 F 
HETATM   15  F   UNL     1      40.888 -16.636   5.435  1.00  0.00    -0.166 F 
HETATM   16  F   UNL     1      41.939 -14.802   4.922  1.00  0.00    -0.166 F 
ENDBRANCH   8  13
BRANCH  10  17
HETATM   17  O   UNL     1      43.908 -20.049   3.512  1.00  0.00    -0.351 OA
BRANCH  17  18
HETATM   18  C   UNL     1      44.746 -20.677   2.534  1.00  0.00     0.171 C 
HETATM   19  C   UNL     1      43.980 -21.847   1.942  1.00  0.00     0.034 C 
ENDBRANCH  17  18
ENDBRANCH  10  17
ENDBRANCH   1   7
BRANCH   3  20
HETATM   20  C   UNL     1      40.128 -14.649  -0.441  1.00  0.00     0.086 A 
HETATM   21  C   UNL     1      40.206 -14.622  -1.863  1.00  0.00     0.079 A 
HETATM   22  C   UNL     1      41.301 -15.036  -2.774  1.00  0.00     0.075 C 
HETATM   23  N   UNL     1      39.051 -14.205  -2.407  1.00  0.00    -0.177 NA
HETATM   24  N   UNL     1      38.254 -13.980  -1.359  1.00  0.00    -0.280 N 
HETATM   25  H   UNL     1      37.313 -13.648  -1.543  1.00  0.00     0.189 HD
HETATM   26  C   UNL     1      38.836 -14.249  -0.154  1.00  0.00     0.052 A 
HETATM   27  C   UNL     1      38.107 -14.056   1.123  1.00  0.00     0.072 C 
ENDBRANCH   3  20
TORSDOF 5
ENDMDL
MODEL 5
REMARK VINA RESULT:      -7.0      3.199      6.618
REMARK  5 active torsions:
REMARK  status: ('A' for Active; 'I' for Inactive)
REMARK    1  A    between atoms: C_2  and  O_3 
REMARK    2  A    between atoms: O_3  and  C_4 
REMARK    3  A    between atoms: C_6  and  C_7 
REMARK    4  A    between atoms: C_11  and  N_12 
REMARK       I    between atoms: N_12  and  C_13 
REMARK       I    between atoms: C_13  and  N_14 
REMARK    5  A    between atoms: N_14  and  C_15 
ROOT
HETATM    1  N   UNL     1      42.818 -14.829   2.257  1.00  0.00    -0.308 N 
HETATM    2  C   UNL     1      41.815 -14.182   1.570  1.00  0.00     0.325 C 
HETATM    3  N   UNL     1      40.916 -14.973   0.909  1.00  0.00    -0.305 N 
HETATM    4  O   UNL     1      41.857 -12.955   1.538  1.00  0.00    -0.247 OA
HETATM    5  H   UNL     1      43.593 -14.191   2.424  1.00  0.00     0.170 HD
HETATM    6  H   UNL     1      40.947 -15.961   1.080  1.00  0.00     0.171 HD
ENDROOT
BRANCH   1   7
HETATM    7  C   UNL     1      43.004 -16.196   2.536  1.00  0.00     0.051 C 
HETATM    8  C   UNL     1      42.439 -16.761   3.693  1.00  0.00     0.077 C 
HETATM    9  C   UNL     1      42.749 -18.096   4.022  1.00  0.00     0.055 C 
HETATM   10  C   UNL     1      43.567 -18.860   3.193  1.00  0.00     0.069 C 
HETATM   11  C   UNL     1      44.003 -18.341   1.981  1.00  0.00     0.039 C 
HETATM   12  C   UNL     1      43.721 -17.016   1.653  1.00  0.00     0.033 C 
BRANCH   8  13
HETATM   13  C   UNL     1      41.603 -15.958   4.655  1.00  0.00     0.419 C 
HETATM   14  F   UNL     1      40.433 -15.517   4.115  1.00  0.00    -0.166 F 
HETATM   15  F   UNL     1      41.256 -16.674   5.760  1.00  0.00    -0.166 F 
HETATM   16  F   UNL     1      42.239 -14.843   5.117  1.00  0.00    -0.166 F 
ENDBRANCH   8  13
BRANCH  10  17
HETATM   17  O   UNL     1      43.954 -20.136   3.485  1.00  0.00    -0.351 OA
BRANCH  17  18
HETATM   18  C   UNL     1      44.784 -20.723   2.475  1.00  0.00     0.171 C 
HETATM   19  C   UNL     1      44.025 -21.884   1.859  1.00  0.00     0.034 C 
ENDBRANCH  17  18
ENDBRANCH  10  17
ENDBRANCH   1   7
BRANCH   3  20
HETATM   20  C   UNL     1      39.945 -14.576   0.007  1.00  0.00     0.086 A 
HETATM   21  C   UNL     1      38.720 -13.859   0.129  1.00  0.00     0.079 A 
HETATM   22  C   UNL     1      38.085 -13.234   1.315  1.00  0.00     0.075 C 
HETATM   23  N   UNL     1      38.124 -13.706  -1.065  1.00  0.00    -0.177 NA
HETATM   24  N   UNL     1      38.951 -14.302  -1.927  1.00  0.00    -0.280 N 
HETATM   25  H   UNL     1      38.691 -14.307  -2.907  1.00  0.00     0.189 HD
HETATM   26  C   UNL     1      40.072 -14.824  -1.347  1.00  0.00     0.052 A 
HETATM   27  C   UNL     1      41.106 -15.526  -2.145  1.00  0.00     0.072 C 
ENDBRANCH   3  20
TORSDOF 5
ENDMDL
MODEL 6
REMARK VINA RESULT:      -7.0      2.690      5.843
REMARK  5 active torsions:
REMARK  status: ('A' for Active; 'I' for Inactive)
REMARK    1  A    between atoms: C_2  and  O_3 
REMARK    2  A    between atoms: O_3  and  C_4 
REMARK    3  A    between atoms: C_6  and  C_7 
REMARK    4  A    between atoms: C_11  and  N_12 
REMARK       I    between atoms: N_12  and  C_13 
REMARK       I    between atoms: C_13  and  N_14 
REMARK    5  A    between atoms: N_14  and  C_15 
ROOT
HETATM    1  N   UNL     1      40.595 -16.817   3.118  1.00  0.00    -0.308 N 
HETATM    2  C   UNL     1      40.538 -15.686   2.335  1.00  0.00     0.325 C 
HETATM    3  N   UNL     1      41.597 -14.825   2.422  1.00  0.00    -0.305 N 
HETATM    4  O   UNL     1      39.510 -15.501   1.689  1.00  0.00    -0.247 OA
HETATM    5  H   UNL     1      39.662 -17.204   3.239  1.00  0.00     0.170 HD
HETATM    6  H   UNL     1      42.409 -15.131   2.927  1.00  0.00     0.171 HD
ENDROOT
BRANCH   1   7
HETATM    7  C   UNL     1      41.643 -17.338   3.900  1.00  0.00     0.051 C 
HETATM    8  C   UNL     1      42.659 -18.101   3.297  1.00  0.00     0.077 C 
HETATM    9  C   UNL     1      43.622 -18.724   4.116  1.00  0.00     0.055 C 
HETATM   10  C   UNL     1      43.596 -18.553   5.498  1.00  0.00     0.069 C 
HETATM   11  C   UNL     1      42.679 -17.683   6.072  1.00  0.00     0.039 C 
HETATM   12  C   UNL     1      41.708 -17.077   5.276  1.00  0.00     0.033 C 
BRANCH   8  13
HETATM   13  C   UNL     1      42.691 -18.369   1.815  1.00  0.00     0.419 C 
HETATM   14  F   UNL     1      41.466 -18.655   1.293  1.00  0.00    -0.166 F 
HETATM   15  F   UNL     1      43.157 -17.305   1.107  1.00  0.00    -0.166 F 
HETATM   16  F   UNL     1      43.490 -19.422   1.477  1.00  0.00    -0.166 F 
ENDBRANCH   8  13
BRANCH  10  17
HETATM   17  O   UNL     1      44.462 -19.176   6.350  1.00  0.00    -0.351 OA
BRANCH  17  18
HETATM   18  C   UNL     1      43.831 -19.672   7.537  1.00  0.00     0.171 C 
HETATM   19  C   UNL     1      43.550 -21.150   7.337  1.00  0.00     0.034 C 
ENDBRANCH  17  18
ENDBRANCH  10  17
ENDBRANCH   1   7
BRANCH   3  20
HETATM   20  C   UNL     1      41.696 -13.551   1.893  1.00  0.00     0.086 A 
HETATM   21  C   UNL     1      41.773 -13.037   0.566  1.00  0.00     0.079 A 
HETATM   22  C   UNL     1      41.718 -13.737  -0.741  1.00  0.00     0.075 C 
HETATM   23  N   UNL     1      41.841 -11.696   0.565  1.00  0.00    -0.177 NA
HETATM   24  N   UNL     1      41.800 -11.362   1.858  1.00  0.00    -0.280 N 
HETATM   25  H   UNL     1      41.843 -10.376   2.094  1.00  0.00     0.189 HD
HETATM   26  C   UNL     1      41.692 -12.430   2.701  1.00  0.00     0.052 A 
HETATM   27  C   UNL     1      41.636 -12.256   4.173  1.00  0.00     0.072 C 
ENDBRANCH   3  20
TORSDOF 5
ENDMDL
MODEL 7
REMARK VINA RESULT:      -6.9      2.787      4.173
REMARK  5 active torsions:
REMARK  status: ('A' for Active; 'I' for Inactive)
REMARK    1  A    between atoms: C_2  and  O_3 
REMARK    2  A    between atoms: O_3  and  C_4 
REMARK    3  A    between atoms: C_6  and  C_7 
REMARK    4  A    between atoms: C_11  and  N_12 
REMARK       I    between atoms: N_12  and  C_13 
REMARK       I    between atoms: C_13  and  N_14 
REMARK    5  A    between atoms: N_14  and  C_15 
ROOT
HETATM    1  N   UNL     1      41.001 -16.718   3.454  1.00  0.00    -0.308 N 
HETATM    2  C   UNL     1      41.786 -17.622   4.135  1.00  0.00     0.325 C 
HETATM    3  N   UNL     1      42.984 -17.948   3.561  1.00  0.00    -0.305 N 
HETATM    4  O   UNL     1      41.315 -18.120   5.153  1.00  0.00    -0.247 OA
HETATM    5  H   UNL     1      40.036 -16.791   3.766  1.00  0.00     0.170 HD
HETATM    6  H   UNL     1      43.286 -17.411   2.768  1.00  0.00     0.171 HD
ENDROOT
BRANCH   1   7
HETATM    7  C   UNL     1      41.281 -15.932   2.320  1.00  0.00     0.051 C 
HETATM    8  C   UNL     1      41.804 -14.636   2.473  1.00  0.00     0.077 C 
HETATM    9  C   UNL     1      41.950 -13.819   1.334  1.00  0.00     0.055 C 
HETATM   10  C   UNL     1      41.623 -14.302   0.068  1.00  0.00     0.069 C 
HETATM   11  C   UNL     1      41.245 -15.628  -0.091  1.00  0.00     0.039 C 
HETATM   12  C   UNL     1      41.077 -16.440   1.029  1.00  0.00     0.033 C 
BRANCH   8  13
HETATM   13  C   UNL     1      42.110 -14.046   3.826  1.00  0.00     0.419 C 
HETATM   14  F   UNL     1      41.059 -14.110   4.691  1.00  0.00    -0.166 F 
HETATM   15  F   UNL     1      43.140 -14.683   4.446  1.00  0.00    -0.166 F 
HETATM   16  F   UNL     1      42.462 -12.730   3.770  1.00  0.00    -0.166 F 
ENDBRANCH   8  13
BRANCH  10  17
HETATM   17  O   UNL     1      41.684 -13.543  -1.066  1.00  0.00    -0.351 OA
BRANCH  17  18
HETATM   18  C   UNL     1      40.721 -13.925  -2.056  1.00  0.00     0.171 C 
HETATM   19  C   UNL     1      41.376 -13.803  -3.420  1.00  0.00     0.034 C 
ENDBRANCH  17  18
ENDBRANCH  10  17
ENDBRANCH   1   7
BRANCH   3  20
HETATM   20  C   UNL     1      43.855 -18.954   3.938  1.00  0.00     0.086 A 
HETATM   21  C   UNL     1      44.696 -19.157   5.071  1.00  0.00     0.079 A 
HETATM   22  C   UNL     1      44.878 -18.336   6.293  1.00  0.00     0.075 C 
HETATM   23  N   UNL     1      45.355 -20.324   4.986  1.00  0.00    -0.177 NA
HETATM   24  N   UNL     1      44.939 -20.856   3.833  1.00  0.00    -0.280 N 
HETATM   25  H   UNL     1      45.320 -21.757   3.563  1.00  0.00     0.189 HD
HETATM   26  C   UNL     1      44.023 -20.091   3.170  1.00  0.00     0.052 A 
HETATM   27  C   UNL     1      43.449 -20.517   1.871  1.00  0.00     0.072 C 
ENDBRANCH   3  20
TORSDOF 5
ENDMDL
MODEL 8
REMARK VINA RESULT:      -6.9      2.627      3.251
REMARK  5 active torsions:
REMARK  status: ('A' for Active; 'I' for Inactive)
REMARK    1  A    between atoms: C_2  and  O_3 
REMARK    2  A    between atoms: O_3  and  C_4 
REMARK    3  A    between atoms: C_6  and  C_7 
REMARK    4  A    between atoms: C_11  and  N_12 
REMARK       I    between atoms: N_12  and  C_13 
REMARK       I    between atoms: C_13  and  N_14 
REMARK    5  A    between atoms: N_14  and  C_15 
ROOT
HETATM    1  N   UNL     1      40.597 -16.106   3.651  1.00  0.00    -0.308 N 
HETATM    2  C   UNL     1      41.343 -16.923   4.471  1.00  0.00     0.325 C 
HETATM    3  N   UNL     1      42.703 -16.793   4.393  1.00  0.00    -0.305 N 
HETATM    4  O   UNL     1      40.736 -17.754   5.139  1.00  0.00    -0.247 OA
HETATM    5  H   UNL     1      39.663 -16.490   3.534  1.00  0.00     0.170 HD
HETATM    6  H   UNL     1      43.070 -16.023   3.865  1.00  0.00     0.171 HD
ENDROOT
BRANCH   1   7
HETATM    7  C   UNL     1      40.984 -15.026   2.835  1.00  0.00     0.051 C 
HETATM    8  C   UNL     1      41.370 -15.254   1.502  1.00  0.00     0.077 C 
HETATM    9  C   UNL     1      41.880 -14.179   0.746  1.00  0.00     0.055 C 
HETATM   10  C   UNL     1      41.961 -12.901   1.294  1.00  0.00     0.069 C 
HETATM   11  C   UNL     1      41.443 -12.655   2.558  1.00  0.00     0.039 C 
HETATM   12  C   UNL     1      40.955 -13.712   3.325  1.00  0.00     0.033 C 
BRANCH   8  13
HETATM   13  C   UNL     1      41.365 -16.629   0.887  1.00  0.00     0.419 C 
HETATM   14  F   UNL     1      40.300 -17.386   1.270  1.00  0.00    -0.166 F 
HETATM   15  F   UNL     1      41.320 -16.586  -0.473  1.00  0.00    -0.166 F 
HETATM   16  F   UNL     1      42.471 -17.362   1.202  1.00  0.00    -0.166 F 
ENDBRANCH   8  13
BRANCH  10  17
HETATM   17  O   UNL     1      42.500 -11.832   0.637  1.00  0.00    -0.351 OA
BRANCH  17  18
HETATM   18  C   UNL     1      42.438 -11.953  -0.789  1.00  0.00     0.171 C 
HETATM   19  C   UNL     1      43.206 -10.790  -1.393  1.00  0.00     0.034 C 
ENDBRANCH  17  18
ENDBRANCH  10  17
ENDBRANCH   1   7
BRANCH   3  20
HETATM   20  C   UNL     1      43.663 -17.611   4.960  1.00  0.00     0.086 A 
HETATM   21  C   UNL     1      44.312 -18.809   4.540  1.00  0.00     0.079 A 
HETATM   22  C   UNL     1      44.195 -19.573   3.274  1.00  0.00     0.075 C 
HETATM   23  N   UNL     1      45.204 -19.226   5.452  1.00  0.00    -0.177 NA
HETATM   24  N   UNL     1      45.133 -18.314   6.426  1.00  0.00    -0.280 N 
HETATM   25  H   UNL     1      45.734 -18.436   7.234  1.00  0.00     0.189 HD
HETATM   26  C   UNL     1      44.243 -17.309   6.178  1.00  0.00     0.052 A 
HETATM   27  C   UNL     1      44.023 -16.208   7.146  1.00  0.00     0.072 C 
ENDBRANCH   3  20
TORSDOF 5
ENDMDL
MODEL 9
REMARK VINA RESULT:      -6.8      3.368      6.222
REMARK  5 active torsions:
REMARK  status: ('A' for Active; 'I' for Inactive)
REMARK    1  A    between atoms: C_2  and  O_3 
REMARK    2  A    between atoms: O_3  and  C_4 
REMARK    3  A    between atoms: C_6  and  C_7 
REMARK    4  A    between atoms: C_11  and  N_12 
REMARK       I    between atoms: N_12  and  C_13 
REMARK       I    between atoms: C_13  and  N_14 
REMARK    5  A    between atoms: N_14  and  C_15 
ROOT
HETATM    1  N   UNL     1      40.371 -16.472   2.930  1.00  0.00    -0.308 N 
HETATM    2  C   UNL     1      40.088 -15.461   2.039  1.00  0.00     0.325 C 
HETATM    3  N   UNL     1      41.041 -15.190   1.096  1.00  0.00    -0.305 N 
HETATM    4  O   UNL     1      39.047 -14.834   2.213  1.00  0.00    -0.247 OA
HETATM    5  H   UNL     1      39.789 -16.379   3.758  1.00  0.00     0.170 HD
HETATM    6  H   UNL     1      41.812 -15.827   1.012  1.00  0.00     0.171 HD
ENDROOT
BRANCH   1   7
HETATM    7  C   UNL     1      41.426 -17.404   2.954  1.00  0.00     0.051 C 
HETATM    8  C   UNL     1      42.038 -17.743   4.175  1.00  0.00     0.077 C 
HETATM    9  C   UNL     1      43.176 -18.573   4.160  1.00  0.00     0.055 C 
HETATM   10  C   UNL     1      43.664 -19.088   2.961  1.00  0.00     0.069 C 
HETATM   11  C   UNL     1      42.971 -18.867   1.779  1.00  0.00     0.039 C 
HETATM   12  C   UNL     1      41.855 -18.031   1.775  1.00  0.00     0.033 C 
BRANCH   8  13
HETATM   13  C   UNL     1      41.588 -17.159   5.489  1.00  0.00     0.419 C 
HETATM   14  F   UNL     1      41.624 -15.798   5.514  1.00  0.00    -0.166 F 
HETATM   15  F   UNL     1      40.307 -17.503   5.795  1.00  0.00    -0.166 F 
HETATM   16  F   UNL     1      42.348 -17.567   6.545  1.00  0.00    -0.166 F 
ENDBRANCH   8  13
BRANCH  10  17
HETATM   17  O   UNL     1      44.796 -19.847   2.872  1.00  0.00    -0.351 OA
BRANCH  17  18
HETATM   18  C   UNL     1      44.603 -21.203   3.293  1.00  0.00     0.171 C 
HETATM   19  C   UNL     1      44.442 -22.062   2.051  1.00  0.00     0.034 C 
ENDBRANCH  17  18
ENDBRANCH  10  17
ENDBRANCH   1   7
BRANCH   3  20
HETATM   20  C   UNL     1      41.084 -14.119   0.221  1.00  0.00     0.086 A 
HETATM   21  C   UNL     1      41.212 -12.710   0.392  1.00  0.00     0.079 A 
HETATM   22  C   UNL     1      41.402 -11.904   1.623  1.00  0.00     0.075 C 
HETATM   23  N   UNL     1      41.218 -12.074  -0.791  1.00  0.00    -0.177 NA
HETATM   24  N   UNL     1      41.105 -13.052  -1.693  1.00  0.00    -0.280 N 
HETATM   25  H   UNL     1      41.086 -12.792  -2.674  1.00  0.00     0.189 HD
HETATM   26  C   UNL     1      41.042 -14.302  -1.148  1.00  0.00     0.052 A 
HETATM   27  C   UNL     1      40.911 -15.514  -1.994  1.00  0.00     0.072 C 
ENDBRANCH   3  20
TORSDOF 5
ENDMDL
MODEL 10
REMARK VINA RESULT:      -6.8      3.304      6.477
REMARK  5 active torsions:
REMARK  status: ('A' for Active; 'I' for Inactive)
REMARK    1  A    between atoms: C_2  and  O_3 
REMARK    2  A    between atoms: O_3  and  C_4 
REMARK    3  A    between atoms: C_6  and  C_7 
REMARK    4  A    between atoms: C_11  and  N_12 
REMARK       I    between atoms: N_12  and  C_13 
REMARK       I    between atoms: C_13  and  N_14 
REMARK    5  A    between atoms: N_14  and  C_15 
ROOT
HETATM    1  N   UNL     1      43.547 -14.944   2.661  1.00  0.00    -0.308 N 
HETATM    2  C   UNL     1      42.558 -14.158   2.114  1.00  0.00     0.325 C 
HETATM    3  N   UNL     1      41.518 -14.810   1.511  1.00  0.00    -0.305 N 
HETATM    4  O   UNL     1      42.729 -12.942   2.137  1.00  0.00    -0.247 OA
HETATM    5  H   UNL     1      44.398 -14.401   2.778  1.00  0.00     0.170 HD
HETATM    6  H   UNL     1      41.457 -15.805   1.630  1.00  0.00     0.171 HD
ENDROOT
BRANCH   1   7
HETATM    7  C   UNL     1      43.609 -16.337   2.852  1.00  0.00     0.051 C 
HETATM    8  C   UNL     1      43.251 -16.895   4.093  1.00  0.00     0.077 C 
HETATM    9  C   UNL     1      43.449 -18.274   4.304  1.00  0.00     0.055 C 
HETATM   10  C   UNL     1      43.950 -19.083   3.287  1.00  0.00     0.069 C 
HETATM   11  C   UNL     1      44.164 -18.554   2.022  1.00  0.00     0.039 C 
HETATM   12  C   UNL     1      43.993 -17.187   1.804  1.00  0.00     0.033 C 
BRANCH   8  13
HETATM   13  C   UNL     1      42.768 -16.051   5.244  1.00  0.00     0.419 C 
HETATM   14  F   UNL     1      41.609 -15.387   4.976  1.00  0.00    -0.166 F 
HETATM   15  F   UNL     1      42.523 -16.792   6.359  1.00  0.00    -0.166 F 
HETATM   16  F   UNL     1      43.663 -15.094   5.620  1.00  0.00    -0.166 F 
ENDBRANCH   8  13
BRANCH  10  17
HETATM   17  O   UNL     1      44.222 -20.412   3.447  1.00  0.00    -0.351 OA
BRANCH  17  18
HETATM   18  C   UNL     1      45.169 -20.677   4.488  1.00  0.00     0.171 C 
HETATM   19  C   UNL     1      44.711 -21.917   5.235  1.00  0.00     0.034 C 
ENDBRANCH  17  18
ENDBRANCH  10  17
ENDBRANCH   1   7
BRANCH   3  20
HETATM   20  C   UNL     1      40.512 -14.263   0.735  1.00  0.00     0.086 A 
HETATM   21  C   UNL     1      40.186 -14.333  -0.651  1.00  0.00     0.079 A 
HETATM   22  C   UNL     1      40.825 -15.096  -1.751  1.00  0.00     0.075 C 
HETATM   23  N   UNL     1      39.079 -13.625  -0.928  1.00  0.00    -0.177 NA
HETATM   24  N   UNL     1      38.703 -13.124   0.251  1.00  0.00    -0.280 N 
HETATM   25  H   UNL     1      37.873 -12.541   0.275  1.00  0.00     0.189 HD
HETATM   26  C   UNL     1      39.511 -13.488   1.290  1.00  0.00     0.052 A 
HETATM   27  C   UNL     1      39.254 -13.025   2.675  1.00  0.00     0.072 C 
ENDBRANCH   3  20
TORSDOF 5
ENDMDL
