MODEL 1
REMARK VINA RESULT:      -9.4      0.000      0.000
REMARK  7 active torsions:
REMARK  status: ('A' for Active; 'I' for Inactive)
REMARK    1  A    between atoms: O_2  and  C_3 
REMARK    2  A    between atoms: C_6  and  C_7 
REMARK    3  A    between atoms: C_11  and  C_12 
REMARK       I    between atoms: C_12  and  N_13 
REMARK    4  A    between atoms: N_13  and  N_14 
REMARK       I    between atoms: N_14  and  C_15 
REMARK    5  A    between atoms: C_15  and  C_16 
REMARK    6  A    between atoms: C_16  and  C_17 
REMARK    7  A    between atoms: C_17  and  C_18 
ROOT
HETATM    1  C   UNL     1      44.774 -13.200   8.202  1.00  0.00     0.288 C 
HETATM    2  N   UNL     1      44.064 -14.320   7.830  1.00  0.00    -0.262 N 
HETATM    3  O   UNL     1      45.907 -12.975   7.784  1.00  0.00    -0.264 OA
HETATM    4  H   UNL     1      43.115 -14.518   8.142  1.00  0.00     0.190 HD
ENDROOT
BRANCH   1   5
HETATM    5  C   UNL     1      44.090 -12.324   9.113  1.00  0.00     0.121 A 
HETATM    6  N   UNL     1      43.229 -11.354   8.685  1.00  0.00    -0.272 N 
HETATM    7  N   UNL     1      42.698 -10.615   9.671  1.00  0.00    -0.174 NA
HETATM    8  H   UNL     1      42.976 -11.143   7.724  1.00  0.00     0.189 HD
HETATM    9  C   UNL     1      43.205 -11.136  10.799  1.00  0.00     0.089 A 
HETATM   10  C   UNL     1      44.087 -12.209  10.489  1.00  0.00     0.071 A 
BRANCH   9  11
HETATM   11  C   UNL     1      42.869 -10.608  12.124  1.00  0.00    -0.005 A 
HETATM   12  C   UNL     1      41.716 -11.028  12.798  1.00  0.00     0.016 A 
HETATM   13  C   UNL     1      41.422 -10.541  14.076  1.00  0.00     0.037 A 
HETATM   14  C   UNL     1      42.274  -9.633  14.707  1.00  0.00     0.068 A 
HETATM   15  C   UNL     1      43.414  -9.194  14.036  1.00  0.00     0.037 A 
HETATM   16  C   UNL     1      43.707  -9.677  12.754  1.00  0.00     0.016 A 
BRANCH  14  17
HETATM   17  O   UNL     1      41.876  -9.251  15.958  1.00  0.00    -0.356 OA
HETATM   18  C   UNL     1      41.488  -7.893  16.119  1.00  0.00     0.210 C 
ENDBRANCH  14  17
ENDBRANCH   9  11
ENDBRANCH   1   5
BRANCH   2  19
HETATM   19  N   UNL     1      44.607 -15.222   6.914  1.00  0.00    -0.267 N 
HETATM   20  C   UNL     1      44.186 -16.534   6.989  1.00  0.00     0.236 C 
HETATM   21  O   UNL     1      43.400 -16.919   7.852  1.00  0.00    -0.272 OA
HETATM   22  H   UNL     1      45.191 -14.843   6.171  1.00  0.00     0.190 HD
BRANCH  20  23
HETATM   23  C   UNL     1      44.767 -17.418   5.911  1.00  0.00     0.109 C 
BRANCH  23  24
HETATM   24  C   UNL     1      44.048 -18.765   5.863  1.00  0.00     0.049 C 
BRANCH  24  25
HETATM   25  C   UNL     1      43.913 -19.293   4.454  1.00  0.00    -0.036 A 
HETATM   26  C   UNL     1      43.013 -18.756   3.521  1.00  0.00     0.040 A 
HETATM   27 CL   UNL     1      41.972 -17.434   3.912  1.00  0.00    -0.084 Cl
HETATM   28  C   UNL     1      42.928 -19.285   2.228  1.00  0.00     0.024 A 
HETATM   29  C   UNL     1      43.737 -20.356   1.853  1.00  0.00     0.002 A 
HETATM   30  C   UNL     1      44.630 -20.904   2.770  1.00  0.00     0.001 A 
HETATM   31  C   UNL     1      44.716 -20.379   4.061  1.00  0.00     0.009 A 
ENDBRANCH  24  25
ENDBRANCH  23  24
ENDBRANCH  20  23
ENDBRANCH   2  19
TORSDOF 7
ENDMDL
MODEL 2
REMARK VINA RESULT:      -9.3      2.870     11.314
REMARK  7 active torsions:
REMARK  status: ('A' for Active; 'I' for Inactive)
REMARK    1  A    between atoms: O_2  and  C_3 
REMARK    2  A    between atoms: C_6  and  C_7 
REMARK    3  A    between atoms: C_11  and  C_12 
REMARK       I    between atoms: C_12  and  N_13 
REMARK    4  A    between atoms: N_13  and  N_14 
REMARK       I    between atoms: N_14  and  C_15 
REMARK    5  A    between atoms: C_15  and  C_16 
REMARK    6  A    between atoms: C_16  and  C_17 
REMARK    7  A    between atoms: C_17  and  C_18 
ROOT
HETATM    1  C   UNL     1      42.831 -13.261   6.321  1.00  0.00     0.288 C 
HETATM    2  N   UNL     1      43.708 -13.228   7.383  1.00  0.00    -0.262 N 
HETATM    3  O   UNL     1      41.951 -12.417   6.173  1.00  0.00    -0.264 OA
HETATM    4  H   UNL     1      44.461 -13.900   7.516  1.00  0.00     0.190 HD
ENDROOT
BRANCH   1   5
HETATM    5  C   UNL     1      43.027 -14.354   5.409  1.00  0.00     0.121 A 
HETATM    6  N   UNL     1      42.865 -14.217   4.060  1.00  0.00    -0.272 N 
HETATM    7  N   UNL     1      43.065 -15.347   3.363  1.00  0.00    -0.174 NA
HETATM    8  H   UNL     1      42.605 -13.373   3.559  1.00  0.00     0.189 HD
HETATM    9  C   UNL     1      43.400 -16.261   4.287  1.00  0.00     0.089 A 
HETATM   10  C   UNL     1      43.383 -15.677   5.584  1.00  0.00     0.071 A 
BRANCH   9  11
HETATM   11  C   UNL     1      43.706 -17.651   3.935  1.00  0.00    -0.005 A 
HETATM   12  C   UNL     1      43.545 -18.116   2.624  1.00  0.00     0.016 A 
HETATM   13  C   UNL     1      43.869 -19.436   2.294  1.00  0.00     0.037 A 
HETATM   14  C   UNL     1      44.366 -20.312   3.259  1.00  0.00     0.068 A 
HETATM   15  C   UNL     1      44.512 -19.864   4.571  1.00  0.00     0.037 A 
HETATM   16  C   UNL     1      44.183 -18.544   4.905  1.00  0.00     0.016 A 
BRANCH  14  17
HETATM   17  O   UNL     1      44.658 -21.566   2.798  1.00  0.00    -0.356 OA
HETATM   18  C   UNL     1      44.076 -21.940   1.556  1.00  0.00     0.210 C 
ENDBRANCH  14  17
ENDBRANCH   9  11
ENDBRANCH   1   5
BRANCH   2  19
HETATM   19  N   UNL     1      43.646 -12.188   8.311  1.00  0.00    -0.267 N 
HETATM   20  C   UNL     1      44.720 -12.032   9.163  1.00  0.00     0.236 C 
HETATM   21  O   UNL     1      45.681 -12.798   9.149  1.00  0.00    -0.272 OA
HETATM   22  H   UNL     1      42.870 -11.533   8.233  1.00  0.00     0.190 HD
BRANCH  20  23
HETATM   23  C   UNL     1      44.598 -10.836  10.077  1.00  0.00     0.109 C 
BRANCH  23  24
HETATM   24  C   UNL     1      43.139 -10.410  10.230  1.00  0.00     0.049 C 
BRANCH  24  25
HETATM   25  C   UNL     1      42.731 -10.273  11.678  1.00  0.00    -0.036 A 
HETATM   26  C   UNL     1      41.483 -10.693  12.163  1.00  0.00     0.040 A 
HETATM   27 CL   UNL     1      40.297 -11.410  11.131  1.00  0.00    -0.084 Cl
HETATM   28  C   UNL     1      41.156 -10.540  13.514  1.00  0.00     0.024 A 
HETATM   29  C   UNL     1      42.069  -9.964  14.397  1.00  0.00     0.002 A 
HETATM   30  C   UNL     1      43.308  -9.535  13.929  1.00  0.00     0.001 A 
HETATM   31  C   UNL     1      43.637  -9.685  12.580  1.00  0.00     0.009 A 
ENDBRANCH  24  25
ENDBRANCH  23  24
ENDBRANCH  20  23
ENDBRANCH   2  19
TORSDOF 7
ENDMDL
MODEL 3
REMARK VINA RESULT:      -8.5      9.313     12.962
REMARK  7 active torsions:
REMARK  status: ('A' for Active; 'I' for Inactive)
REMARK    1  A    between atoms: O_2  and  C_3 
REMARK    2  A    between atoms: C_6  and  C_7 
REMARK    3  A    between atoms: C_11  and  C_12 
REMARK       I    between atoms: C_12  and  N_13 
REMARK    4  A    between atoms: N_13  and  N_14 
REMARK       I    between atoms: N_14  and  C_15 
REMARK    5  A    between atoms: C_15  and  C_16 
REMARK    6  A    between atoms: C_16  and  C_17 
REMARK    7  A    between atoms: C_17  and  C_18 
ROOT
HETATM    1  C   UNL     1      41.386 -15.064  -0.636  1.00  0.00     0.288 C 
HETATM    2  N   UNL     1      41.806 -16.370  -0.512  1.00  0.00    -0.262 N 
HETATM    3  O   UNL     1      41.789 -14.174   0.109  1.00  0.00    -0.264 OA
HETATM    4  H   UNL     1      41.507 -17.121  -1.132  1.00  0.00     0.190 HD
ENDROOT
BRANCH   1   5
HETATM    5  C   UNL     1      40.444 -14.829  -1.696  1.00  0.00     0.121 A 
HETATM    6  N   UNL     1      40.682 -15.221  -2.983  1.00  0.00    -0.272 N 
HETATM    7  N   UNL     1      39.705 -14.899  -3.845  1.00  0.00    -0.174 NA
HETATM    8  H   UNL     1      41.504 -15.702  -3.332  1.00  0.00     0.189 HD
HETATM    9  C   UNL     1      38.771 -14.296  -3.093  1.00  0.00     0.089 A 
HETATM   10  C   UNL     1      39.201 -14.229  -1.738  1.00  0.00     0.071 A 
BRANCH   9  11
HETATM   11  C   UNL     1      37.521 -13.784  -3.661  1.00  0.00    -0.005 A 
HETATM   12  C   UNL     1      37.168 -12.436  -3.533  1.00  0.00     0.016 A 
HETATM   13  C   UNL     1      35.987 -11.952  -4.106  1.00  0.00     0.037 A 
HETATM   14  C   UNL     1      35.142 -12.801  -4.822  1.00  0.00     0.068 A 
HETATM   15  C   UNL     1      35.475 -14.149  -4.940  1.00  0.00     0.037 A 
HETATM   16  C   UNL     1      36.655 -14.636  -4.362  1.00  0.00     0.016 A 
BRANCH  14  17
HETATM   17  O   UNL     1      34.032 -12.196  -5.343  1.00  0.00    -0.356 OA
HETATM   18  C   UNL     1      33.972 -12.082  -6.759  1.00  0.00     0.210 C 
ENDBRANCH  14  17
ENDBRANCH   9  11
ENDBRANCH   1   5
BRANCH   2  19
HETATM   19  N   UNL     1      42.754 -16.713   0.453  1.00  0.00    -0.267 N 
HETATM   20  C   UNL     1      42.296 -17.311   1.609  1.00  0.00     0.236 C 
HETATM   21  O   UNL     1      41.100 -17.499   1.816  1.00  0.00    -0.272 OA
HETATM   22  H   UNL     1      43.737 -16.612   0.203  1.00  0.00     0.190 HD
BRANCH  20  23
HETATM   23  C   UNL     1      43.399 -17.716   2.558  1.00  0.00     0.109 C 
BRANCH  23  24
HETATM   24  C   UNL     1      44.113 -18.972   2.061  1.00  0.00     0.049 C 
BRANCH  24  25
HETATM   25  C   UNL     1      44.318 -19.988   3.161  1.00  0.00    -0.036 A 
HETATM   26  C   UNL     1      44.387 -21.369   2.921  1.00  0.00     0.040 A 
HETATM   27 CL   UNL     1      44.242 -22.028   1.331  1.00  0.00    -0.084 Cl
HETATM   28  C   UNL     1      44.575 -22.265   3.978  1.00  0.00     0.024 A 
HETATM   29  C   UNL     1      44.694 -21.796   5.285  1.00  0.00     0.002 A 
HETATM   30  C   UNL     1      44.619 -20.429   5.539  1.00  0.00     0.001 A 
HETATM   31  C   UNL     1      44.430 -19.531   4.487  1.00  0.00     0.009 A 
ENDBRANCH  24  25
ENDBRANCH  23  24
ENDBRANCH  20  23
ENDBRANCH   2  19
TORSDOF 7
ENDMDL
MODEL 4
REMARK VINA RESULT:      -8.4      9.488     13.000
REMARK  7 active torsions:
REMARK  status: ('A' for Active; 'I' for Inactive)
REMARK    1  A    between atoms: O_2  and  C_3 
REMARK    2  A    between atoms: C_6  and  C_7 
REMARK    3  A    between atoms: C_11  and  C_12 
REMARK       I    between atoms: C_12  and  N_13 
REMARK    4  A    between atoms: N_13  and  N_14 
REMARK       I    between atoms: N_14  and  C_15 
REMARK    5  A    between atoms: C_15  and  C_16 
REMARK    6  A    between atoms: C_16  and  C_17 
REMARK    7  A    between atoms: C_17  and  C_18 
ROOT
HETATM    1  C   UNL     1      41.096 -14.546  -0.759  1.00  0.00     0.288 C 
HETATM    2  N   UNL     1      41.192 -15.911  -0.598  1.00  0.00    -0.262 N 
HETATM    3  O   UNL     1      42.020 -13.787  -0.478  1.00  0.00    -0.264 OA
HETATM    4  H   UNL     1      40.451 -16.564  -0.846  1.00  0.00     0.190 HD
ENDROOT
BRANCH   1   5
HETATM    5  C   UNL     1      39.836 -14.086  -1.275  1.00  0.00     0.121 A 
HETATM    6  N   UNL     1      38.924 -13.432  -0.497  1.00  0.00    -0.272 N 
HETATM    7  N   UNL     1      37.793 -13.096  -1.137  1.00  0.00    -0.174 NA
HETATM    8  H   UNL     1      39.016 -13.199   0.487  1.00  0.00     0.189 HD
HETATM    9  C   UNL     1      37.977 -13.519  -2.398  1.00  0.00     0.089 A 
HETATM   10  C   UNL     1      39.247 -14.150  -2.522  1.00  0.00     0.071 A 
BRANCH   9  11
HETATM   11  C   UNL     1      36.960 -13.341  -3.438  1.00  0.00    -0.005 A 
HETATM   12  C   UNL     1      36.554 -14.413  -4.242  1.00  0.00     0.016 A 
HETATM   13  C   UNL     1      35.560 -14.238  -5.210  1.00  0.00     0.037 A 
HETATM   14  C   UNL     1      34.950 -12.997  -5.391  1.00  0.00     0.068 A 
HETATM   15  C   UNL     1      35.360 -11.919  -4.608  1.00  0.00     0.037 A 
HETATM   16  C   UNL     1      36.360 -12.090  -3.641  1.00  0.00     0.016 A 
BRANCH  14  17
HETATM   17  O   UNL     1      33.984 -12.970  -6.358  1.00  0.00    -0.356 OA
HETATM   18  C   UNL     1      34.406 -12.630  -7.672  1.00  0.00     0.210 C 
ENDBRANCH  14  17
ENDBRANCH   9  11
ENDBRANCH   1   5
BRANCH   2  19
HETATM   19  N   UNL     1      42.384 -16.481  -0.146  1.00  0.00    -0.267 N 
HETATM   20  C   UNL     1      42.331 -17.229   1.011  1.00  0.00     0.236 C 
HETATM   21  O   UNL     1      41.293 -17.361   1.657  1.00  0.00    -0.272 OA
HETATM   22  H   UNL     1      43.198 -16.411  -0.754  1.00  0.00     0.190 HD
BRANCH  20  23
HETATM   23  C   UNL     1      43.648 -17.869   1.379  1.00  0.00     0.109 C 
BRANCH  23  24
HETATM   24  C   UNL     1      43.672 -18.262   2.855  1.00  0.00     0.049 C 
BRANCH  24  25
HETATM   25  C   UNL     1      44.009 -19.722   3.054  1.00  0.00    -0.036 A 
HETATM   26  C   UNL     1      44.571 -20.221   4.239  1.00  0.00     0.040 A 
HETATM   27 CL   UNL     1      44.928 -19.195   5.583  1.00  0.00    -0.084 Cl
HETATM   28  C   UNL     1      44.866 -21.582   4.369  1.00  0.00     0.024 A 
HETATM   29  C   UNL     1      44.607 -22.460   3.317  1.00  0.00     0.002 A 
HETATM   30  C   UNL     1      44.057 -21.978   2.133  1.00  0.00     0.001 A 
HETATM   31  C   UNL     1      43.762 -20.620   2.000  1.00  0.00     0.009 A 
ENDBRANCH  24  25
ENDBRANCH  23  24
ENDBRANCH  20  23
ENDBRANCH   2  19
TORSDOF 7
ENDMDL
MODEL 5
REMARK VINA RESULT:      -8.4      4.033     11.389
REMARK  7 active torsions:
REMARK  status: ('A' for Active; 'I' for Inactive)
REMARK    1  A    between atoms: O_2  and  C_3 
REMARK    2  A    between atoms: C_6  and  C_7 
REMARK    3  A    between atoms: C_11  and  C_12 
REMARK       I    between atoms: C_12  and  N_13 
REMARK    4  A    between atoms: N_13  and  N_14 
REMARK       I    between atoms: N_14  and  C_15 
REMARK    5  A    between atoms: C_15  and  C_16 
REMARK    6  A    between atoms: C_16  and  C_17 
REMARK    7  A    between atoms: C_17  and  C_18 
ROOT
HETATM    1  C   UNL     1      39.671 -13.655   5.164  1.00  0.00     0.288 C 
HETATM    2  N   UNL     1      39.863 -13.705   6.527  1.00  0.00    -0.262 N 
HETATM    3  O   UNL     1      39.054 -12.741   4.622  1.00  0.00    -0.264 OA
HETATM    4  H   UNL     1      40.392 -14.437   6.997  1.00  0.00     0.190 HD
ENDROOT
BRANCH   1   5
HETATM    5  C   UNL     1      40.242 -14.752   4.432  1.00  0.00     0.121 A 
HETATM    6  N   UNL     1      39.816 -15.096   3.180  1.00  0.00    -0.272 N 
HETATM    7  N   UNL     1      40.445 -16.160   2.657  1.00  0.00    -0.174 NA
HETATM    8  H   UNL     1      39.086 -14.644   2.639  1.00  0.00     0.189 HD
HETATM    9  C   UNL     1      41.343 -16.517   3.588  1.00  0.00     0.089 A 
HETATM   10  C   UNL     1      41.244 -15.659   4.719  1.00  0.00     0.071 A 
BRANCH   9  11
HETATM   11  C   UNL     1      42.250 -17.653   3.404  1.00  0.00    -0.005 A 
HETATM   12  C   UNL     1      42.420 -18.245   2.147  1.00  0.00     0.016 A 
HETATM   13  C   UNL     1      43.311 -19.309   1.977  1.00  0.00     0.037 A 
HETATM   14  C   UNL     1      44.053 -19.798   3.053  1.00  0.00     0.068 A 
HETATM   15  C   UNL     1      43.877 -19.228   4.313  1.00  0.00     0.037 A 
HETATM   16  C   UNL     1      42.981 -18.165   4.486  1.00  0.00     0.016 A 
BRANCH  14  17
HETATM   17  O   UNL     1      44.898 -20.828   2.744  1.00  0.00    -0.356 OA
HETATM   18  C   UNL     1      44.366 -21.870   1.937  1.00  0.00     0.210 C 
ENDBRANCH  14  17
ENDBRANCH   9  11
ENDBRANCH   1   5
BRANCH   2  19
HETATM   19  N   UNL     1      39.393 -12.671   7.339  1.00  0.00    -0.267 N 
HETATM   20  C   UNL     1      40.209 -11.571   7.503  1.00  0.00     0.236 C 
HETATM   21  O   UNL     1      41.328 -11.507   6.998  1.00  0.00    -0.272 OA
HETATM   22  H   UNL     1      38.431 -12.733   7.669  1.00  0.00     0.190 HD
BRANCH  20  23
HETATM   23  C   UNL     1      39.585 -10.474   8.332  1.00  0.00     0.109 C 
BRANCH  23  24
HETATM   24  C   UNL     1      40.657  -9.658   9.053  1.00  0.00     0.049 C 
BRANCH  24  25
HETATM   25  C   UNL     1      41.016 -10.245  10.398  1.00  0.00    -0.036 A 
HETATM   26  C   UNL     1      42.293 -10.744  10.697  1.00  0.00     0.040 A 
HETATM   27 CL   UNL     1      43.574 -10.729   9.537  1.00  0.00    -0.084 Cl
HETATM   28  C   UNL     1      42.570 -11.279  11.959  1.00  0.00     0.024 A 
HETATM   29  C   UNL     1      41.577 -11.324  12.936  1.00  0.00     0.002 A 
HETATM   30  C   UNL     1      40.303 -10.840  12.652  1.00  0.00     0.001 A 
HETATM   31  C   UNL     1      40.023 -10.306  11.393  1.00  0.00     0.009 A 
ENDBRANCH  24  25
ENDBRANCH  23  24
ENDBRANCH  20  23
ENDBRANCH   2  19
TORSDOF 7
ENDMDL
MODEL 6
REMARK VINA RESULT:      -8.1      3.681     11.381
REMARK  7 active torsions:
REMARK  status: ('A' for Active; 'I' for Inactive)
REMARK    1  A    between atoms: O_2  and  C_3 
REMARK    2  A    between atoms: C_6  and  C_7 
REMARK    3  A    between atoms: C_11  and  C_12 
REMARK       I    between atoms: C_12  and  N_13 
REMARK    4  A    between atoms: N_13  and  N_14 
REMARK       I    between atoms: N_14  and  C_15 
REMARK    5  A    between atoms: C_15  and  C_16 
REMARK    6  A    between atoms: C_16  and  C_17 
REMARK    7  A    between atoms: C_17  and  C_18 
ROOT
HETATM    1  C   UNL     1      42.905 -13.574   6.237  1.00  0.00     0.288 C 
HETATM    2  N   UNL     1      41.790 -12.766   6.205  1.00  0.00    -0.262 N 
HETATM    3  O   UNL     1      43.855 -13.348   6.982  1.00  0.00    -0.264 OA
HETATM    4  H   UNL     1      40.978 -12.945   5.616  1.00  0.00     0.190 HD
ENDROOT
BRANCH   1   5
HETATM    5  C   UNL     1      42.868 -14.692   5.335  1.00  0.00     0.121 A 
HETATM    6  N   UNL     1      42.028 -14.734   4.258  1.00  0.00    -0.272 N 
HETATM    7  N   UNL     1      42.111 -15.863   3.539  1.00  0.00    -0.174 NA
HETATM    8  H   UNL     1      41.365 -14.019   3.974  1.00  0.00     0.189 HD
HETATM    9  C   UNL     1      43.064 -16.586   4.147  1.00  0.00     0.089 A 
HETATM   10  C   UNL     1      43.561 -15.886   5.282  1.00  0.00     0.071 A 
BRANCH   9  11
HETATM   11  C   UNL     1      43.468 -17.910   3.665  1.00  0.00    -0.005 A 
HETATM   12  C   UNL     1      44.267 -18.751   4.449  1.00  0.00     0.016 A 
HETATM   13  C   UNL     1      44.620 -20.025   3.993  1.00  0.00     0.037 A 
HETATM   14  C   UNL     1      44.178 -20.486   2.752  1.00  0.00     0.068 A 
HETATM   15  C   UNL     1      43.398 -19.649   1.956  1.00  0.00     0.037 A 
HETATM   16  C   UNL     1      43.048 -18.371   2.409  1.00  0.00     0.016 A 
BRANCH  14  17
HETATM   17  O   UNL     1      44.582 -21.754   2.437  1.00  0.00    -0.356 OA
HETATM   18  C   UNL     1      44.597 -22.701   3.497  1.00  0.00     0.210 C 
ENDBRANCH  14  17
ENDBRANCH   9  11
ENDBRANCH   1   5
BRANCH   2  19
HETATM   19  N   UNL     1      41.690 -11.674   7.068  1.00  0.00    -0.267 N 
HETATM   20  C   UNL     1      40.449 -11.399   7.604  1.00  0.00     0.236 C 
HETATM   21  O   UNL     1      39.451 -12.053   7.308  1.00  0.00    -0.272 OA
HETATM   22  H   UNL     1      42.555 -11.213   7.346  1.00  0.00     0.190 HD
BRANCH  20  23
HETATM   23  C   UNL     1      40.454 -10.251   8.585  1.00  0.00     0.109 C 
BRANCH  23  24
HETATM   24  C   UNL     1      40.220 -10.749  10.010  1.00  0.00     0.049 C 
BRANCH  24  25
HETATM   25  C   UNL     1      41.371 -10.416  10.930  1.00  0.00    -0.036 A 
HETATM   26  C   UNL     1      41.278  -9.460  11.954  1.00  0.00     0.040 A 
HETATM   27 CL   UNL     1      39.823  -8.576  12.249  1.00  0.00    -0.084 Cl
HETATM   28  C   UNL     1      42.377  -9.189  12.776  1.00  0.00     0.024 A 
HETATM   29  C   UNL     1      43.581  -9.865  12.585  1.00  0.00     0.002 A 
HETATM   30  C   UNL     1      43.690 -10.810  11.569  1.00  0.00     0.001 A 
HETATM   31  C   UNL     1      42.595 -11.083  10.746  1.00  0.00     0.009 A 
ENDBRANCH  24  25
ENDBRANCH  23  24
ENDBRANCH  20  23
ENDBRANCH   2  19
TORSDOF 7
ENDMDL
MODEL 7
REMARK VINA RESULT:      -8.1      9.083     12.111
REMARK  7 active torsions:
REMARK  status: ('A' for Active; 'I' for Inactive)
REMARK    1  A    between atoms: O_2  and  C_3 
REMARK    2  A    between atoms: C_6  and  C_7 
REMARK    3  A    between atoms: C_11  and  C_12 
REMARK       I    between atoms: C_12  and  N_13 
REMARK    4  A    between atoms: N_13  and  N_14 
REMARK       I    between atoms: N_14  and  C_15 
REMARK    5  A    between atoms: C_15  and  C_16 
REMARK    6  A    between atoms: C_16  and  C_17 
REMARK    7  A    between atoms: C_17  and  C_18 
ROOT
HETATM    1  C   UNL     1      40.997 -15.700   0.307  1.00  0.00     0.288 C 
HETATM    2  N   UNL     1      42.191 -16.360   0.116  1.00  0.00    -0.262 N 
HETATM    3  O   UNL     1      40.257 -15.947   1.256  1.00  0.00    -0.264 OA
HETATM    4  H   UNL     1      42.834 -16.156  -0.647  1.00  0.00     0.190 HD
ENDROOT
BRANCH   1   5
HETATM    5  C   UNL     1      40.688 -14.708  -0.687  1.00  0.00     0.121 A 
HETATM    6  N   UNL     1      39.405 -14.341  -0.978  1.00  0.00    -0.272 N 
HETATM    7  N   UNL     1      39.302 -13.420  -1.949  1.00  0.00    -0.174 NA
HETATM    8  H   UNL     1      38.556 -14.700  -0.552  1.00  0.00     0.189 HD
HETATM    9  C   UNL     1      40.570 -13.144  -2.293  1.00  0.00     0.089 A 
HETATM   10  C   UNL     1      41.469 -13.937  -1.525  1.00  0.00     0.071 A 
BRANCH   9  11
HETATM   11  C   UNL     1      40.902 -12.170  -3.335  1.00  0.00    -0.005 A 
HETATM   12  C   UNL     1      42.233 -11.919  -3.692  1.00  0.00     0.016 A 
HETATM   13  C   UNL     1      42.537 -11.010  -4.710  1.00  0.00     0.037 A 
HETATM   14  C   UNL     1      41.522 -10.340  -5.395  1.00  0.00     0.068 A 
HETATM   15  C   UNL     1      40.195 -10.569  -5.035  1.00  0.00     0.037 A 
HETATM   16  C   UNL     1      39.889 -11.476  -4.012  1.00  0.00     0.016 A 
BRANCH  14  17
HETATM   17  O   UNL     1      41.958  -9.494  -6.377  1.00  0.00    -0.356 OA
HETATM   18  C   UNL     1      42.565  -8.282  -5.951  1.00  0.00     0.210 C 
ENDBRANCH  14  17
ENDBRANCH   9  11
ENDBRANCH   1   5
BRANCH   2  19
HETATM   19  N   UNL     1      42.620 -17.313   1.040  1.00  0.00    -0.267 N 
HETATM   20  C   UNL     1      43.371 -16.869   2.108  1.00  0.00     0.236 C 
HETATM   21  O   UNL     1      43.697 -15.690   2.232  1.00  0.00    -0.272 OA
HETATM   22  H   UNL     1      42.260 -18.261   0.940  1.00  0.00     0.190 HD
BRANCH  20  23
HETATM   23  C   UNL     1      43.723 -17.957   3.095  1.00  0.00     0.109 C 
BRANCH  23  24
HETATM   24  C   UNL     1      44.259 -19.194   2.376  1.00  0.00     0.049 C 
BRANCH  24  25
HETATM   25  C   UNL     1      44.438 -20.367   3.312  1.00  0.00    -0.036 A 
HETATM   26  C   UNL     1      44.418 -21.701   2.876  1.00  0.00     0.040 A 
HETATM   27 CL   UNL     1      44.183 -22.116   1.215  1.00  0.00    -0.084 Cl
HETATM   28  C   UNL     1      44.587 -22.749   3.786  1.00  0.00     0.024 A 
HETATM   29  C   UNL     1      44.775 -22.480   5.141  1.00  0.00     0.002 A 
HETATM   30  C   UNL     1      44.790 -21.162   5.589  1.00  0.00     0.001 A 
HETATM   31  C   UNL     1      44.621 -20.113   4.683  1.00  0.00     0.009 A 
ENDBRANCH  24  25
ENDBRANCH  23  24
ENDBRANCH  20  23
ENDBRANCH   2  19
TORSDOF 7
ENDMDL
MODEL 8
REMARK VINA RESULT:      -8.0      7.644      9.107
REMARK  7 active torsions:
REMARK  status: ('A' for Active; 'I' for Inactive)
REMARK    1  A    between atoms: O_2  and  C_3 
REMARK    2  A    between atoms: C_6  and  C_7 
REMARK    3  A    between atoms: C_11  and  C_12 
REMARK       I    between atoms: C_12  and  N_13 
REMARK    4  A    between atoms: N_13  and  N_14 
REMARK       I    between atoms: N_14  and  C_15 
REMARK    5  A    between atoms: C_15  and  C_16 
REMARK    6  A    between atoms: C_16  and  C_17 
REMARK    7  A    between atoms: C_17  and  C_18 
ROOT
HETATM    1  C   UNL     1      40.905 -16.481   2.256  1.00  0.00     0.288 C 
HETATM    2  N   UNL     1      40.718 -16.767   3.591  1.00  0.00    -0.262 N 
HETATM    3  O   UNL     1      41.699 -17.106   1.558  1.00  0.00    -0.264 OA
HETATM    4  H   UNL     1      40.049 -16.282   4.185  1.00  0.00     0.190 HD
ENDROOT
BRANCH   1   5
HETATM    5  C   UNL     1      40.103 -15.400   1.752  1.00  0.00     0.121 A 
HETATM    6  N   UNL     1      39.940 -15.174   0.415  1.00  0.00    -0.272 N 
HETATM    7  N   UNL     1      39.179 -14.108   0.125  1.00  0.00    -0.174 NA
HETATM    8  H   UNL     1      40.338 -15.713  -0.348  1.00  0.00     0.189 HD
HETATM    9  C   UNL     1      38.799 -13.625   1.318  1.00  0.00     0.089 A 
HETATM   10  C   UNL     1      39.364 -14.407   2.365  1.00  0.00     0.071 A 
BRANCH   9  11
HETATM   11  C   UNL     1      37.943 -12.443   1.447  1.00  0.00    -0.005 A 
HETATM   12  C   UNL     1      38.221 -11.449   2.393  1.00  0.00     0.016 A 
HETATM   13  C   UNL     1      37.414 -10.310   2.486  1.00  0.00     0.037 A 
HETATM   14  C   UNL     1      36.323 -10.138   1.634  1.00  0.00     0.068 A 
HETATM   15  C   UNL     1      36.026 -11.130   0.701  1.00  0.00     0.037 A 
HETATM   16  C   UNL     1      36.830 -12.274   0.611  1.00  0.00     0.016 A 
BRANCH  14  17
HETATM   17  O   UNL     1      35.631  -8.973   1.821  1.00  0.00    -0.356 OA
HETATM   18  C   UNL     1      36.188  -7.800   1.244  1.00  0.00     0.210 C 
ENDBRANCH  14  17
ENDBRANCH   9  11
ENDBRANCH   1   5
BRANCH   2  19
HETATM   19  N   UNL     1      41.408 -17.826   4.183  1.00  0.00    -0.267 N 
HETATM   20  C   UNL     1      42.444 -17.510   5.037  1.00  0.00     0.236 C 
HETATM   21  O   UNL     1      42.789 -16.349   5.243  1.00  0.00    -0.272 OA
HETATM   22  H   UNL     1      41.036 -18.765   4.046  1.00  0.00     0.190 HD
BRANCH  20  23
HETATM   23  C   UNL     1      43.079 -18.715   5.690  1.00  0.00     0.109 C 
BRANCH  23  24
HETATM   24  C   UNL     1      44.435 -19.028   5.060  1.00  0.00     0.049 C 
BRANCH  24  25
HETATM   25  C   UNL     1      44.327 -20.035   3.939  1.00  0.00    -0.036 A 
HETATM   26  C   UNL     1      44.570 -21.406   4.118  1.00  0.00     0.040 A 
HETATM   27 CL   UNL     1      45.017 -22.061   5.653  1.00  0.00    -0.084 Cl
HETATM   28  C   UNL     1      44.457 -22.295   3.044  1.00  0.00     0.024 A 
HETATM   29  C   UNL     1      44.105 -21.827   1.779  1.00  0.00     0.002 A 
HETATM   30  C   UNL     1      43.869 -20.469   1.584  1.00  0.00     0.001 A 
HETATM   31  C   UNL     1      43.981 -19.579   2.654  1.00  0.00     0.009 A 
ENDBRANCH  24  25
ENDBRANCH  23  24
ENDBRANCH  20  23
ENDBRANCH   2  19
TORSDOF 7
ENDMDL
MODEL 9
REMARK VINA RESULT:      -7.9      8.450     11.674
REMARK  7 active torsions:
REMARK  status: ('A' for Active; 'I' for Inactive)
REMARK    1  A    between atoms: O_2  and  C_3 
REMARK    2  A    between atoms: C_6  and  C_7 
REMARK    3  A    between atoms: C_11  and  C_12 
REMARK       I    between atoms: C_12  and  N_13 
REMARK    4  A    between atoms: N_13  and  N_14 
REMARK       I    between atoms: N_14  and  C_15 
REMARK    5  A    between atoms: C_15  and  C_16 
REMARK    6  A    between atoms: C_16  and  C_17 
REMARK    7  A    between atoms: C_17  and  C_18 
ROOT
HETATM    1  C   UNL     1      39.670 -15.232   1.199  1.00  0.00     0.288 C 
HETATM    2  N   UNL     1      40.182 -15.163  -0.078  1.00  0.00    -0.262 N 
HETATM    3  O   UNL     1      38.637 -14.652   1.522  1.00  0.00    -0.264 OA
HETATM    4  H   UNL     1      41.022 -15.654  -0.378  1.00  0.00     0.190 HD
ENDROOT
BRANCH   1   5
HETATM    5  C   UNL     1      40.437 -16.030   2.115  1.00  0.00     0.121 A 
HETATM    6  N   UNL     1      40.299 -15.922   3.470  1.00  0.00    -0.272 N 
HETATM    7  N   UNL     1      41.111 -16.726   4.173  1.00  0.00    -0.174 NA
HETATM    8  H   UNL     1      39.670 -15.301   3.971  1.00  0.00     0.189 HD
HETATM    9  C   UNL     1      41.794 -17.415   3.246  1.00  0.00     0.089 A 
HETATM   10  C   UNL     1      41.401 -17.004   1.941  1.00  0.00     0.071 A 
BRANCH   9  11
HETATM   11  C   UNL     1      42.801 -18.419   3.602  1.00  0.00    -0.005 A 
HETATM   12  C   UNL     1      43.204 -18.597   4.931  1.00  0.00     0.016 A 
HETATM   13  C   UNL     1      44.143 -19.578   5.263  1.00  0.00     0.037 A 
HETATM   14  C   UNL     1      44.691 -20.404   4.281  1.00  0.00     0.068 A 
HETATM   15  C   UNL     1      44.310 -20.222   2.952  1.00  0.00     0.037 A 
HETATM   16  C   UNL     1      43.374 -19.235   2.617  1.00  0.00     0.016 A 
BRANCH  14  17
HETATM   17  O   UNL     1      45.583 -21.331   4.745  1.00  0.00    -0.356 OA
HETATM   18  C   UNL     1      45.055 -22.602   5.100  1.00  0.00     0.210 C 
ENDBRANCH  14  17
ENDBRANCH   9  11
ENDBRANCH   1   5
BRANCH   2  19
HETATM   19  N   UNL     1      39.501 -14.454  -1.069  1.00  0.00    -0.267 N 
HETATM   20  C   UNL     1      39.964 -14.567  -2.363  1.00  0.00     0.236 C 
HETATM   21  O   UNL     1      40.964 -15.226  -2.644  1.00  0.00    -0.272 OA
HETATM   22  H   UNL     1      38.634 -13.989  -0.803  1.00  0.00     0.190 HD
BRANCH  20  23
HETATM   23  C   UNL     1      39.120 -13.830  -3.375  1.00  0.00     0.109 C 
BRANCH  23  24
HETATM   24  C   UNL     1      38.953 -12.363  -2.983  1.00  0.00     0.049 C 
BRANCH  24  25
HETATM   25  C   UNL     1      40.259 -11.605  -3.032  1.00  0.00    -0.036 A 
HETATM   26  C   UNL     1      40.829 -10.994  -1.904  1.00  0.00     0.040 A 
HETATM   27 CL   UNL     1      40.076 -11.058  -0.351  1.00  0.00    -0.084 Cl
HETATM   28  C   UNL     1      42.041 -10.302  -2.007  1.00  0.00     0.024 A 
HETATM   29  C   UNL     1      42.695 -10.210  -3.234  1.00  0.00     0.002 A 
HETATM   30  C   UNL     1      42.138 -10.804  -4.363  1.00  0.00     0.001 A 
HETATM   31  C   UNL     1      40.928 -11.495  -4.264  1.00  0.00     0.009 A 
ENDBRANCH  24  25
ENDBRANCH  23  24
ENDBRANCH  20  23
ENDBRANCH   2  19
TORSDOF 7
ENDMDL
MODEL 10
REMARK VINA RESULT:      -7.9      7.637     10.833
REMARK  7 active torsions:
REMARK  status: ('A' for Active; 'I' for Inactive)
REMARK    1  A    between atoms: O_2  and  C_3 
REMARK    2  A    between atoms: C_6  and  C_7 
REMARK    3  A    between atoms: C_11  and  C_12 
REMARK       I    between atoms: C_12  and  N_13 
REMARK    4  A    between atoms: N_13  and  N_14 
REMARK       I    between atoms: N_14  and  C_15 
REMARK    5  A    between atoms: C_15  and  C_16 
REMARK    6  A    between atoms: C_16  and  C_17 
REMARK    7  A    between atoms: C_17  and  C_18 
ROOT
HETATM    1  C   UNL     1      40.939 -16.001   1.895  1.00  0.00     0.288 C 
HETATM    2  N   UNL     1      40.568 -16.769   2.978  1.00  0.00    -0.262 N 
HETATM    3  O   UNL     1      42.094 -15.972   1.479  1.00  0.00    -0.264 OA
HETATM    4  H   UNL     1      39.613 -16.830   3.326  1.00  0.00     0.190 HD
ENDROOT
BRANCH   1   5
HETATM    5  C   UNL     1      39.874 -15.242   1.299  1.00  0.00     0.121 A 
HETATM    6  N   UNL     1      38.607 -15.237   1.809  1.00  0.00    -0.272 N 
HETATM    7  N   UNL     1      37.736 -14.492   1.111  1.00  0.00    -0.174 NA
HETATM    8  H   UNL     1      38.277 -15.738   2.628  1.00  0.00     0.189 HD
HETATM    9  C   UNL     1      38.462 -13.960   0.116  1.00  0.00     0.089 A 
HETATM   10  C   UNL     1      39.810 -14.411   0.198  1.00  0.00     0.071 A 
BRANCH   9  11
HETATM   11  C   UNL     1      37.877 -13.066  -0.888  1.00  0.00    -0.005 A 
HETATM   12  C   UNL     1      38.146 -13.237  -2.251  1.00  0.00     0.016 A 
HETATM   13  C   UNL     1      37.557 -12.398  -3.202  1.00  0.00     0.037 A 
HETATM   14  C   UNL     1      36.686 -11.380  -2.814  1.00  0.00     0.068 A 
HETATM   15  C   UNL     1      36.427 -11.189  -1.458  1.00  0.00     0.037 A 
HETATM   16  C   UNL     1      37.020 -12.025  -0.503  1.00  0.00     0.016 A 
BRANCH  14  17
HETATM   17  O   UNL     1      36.169 -10.646  -3.845  1.00  0.00    -0.356 OA
HETATM   18  C   UNL     1      35.484  -9.450  -3.497  1.00  0.00     0.210 C 
ENDBRANCH  14  17
ENDBRANCH   9  11
ENDBRANCH   1   5
BRANCH   2  19
HETATM   19  N   UNL     1      41.505 -17.584   3.613  1.00  0.00    -0.267 N 
HETATM   20  C   UNL     1      41.958 -17.185   4.853  1.00  0.00     0.236 C 
HETATM   21  O   UNL     1      41.594 -16.132   5.373  1.00  0.00    -0.272 OA
HETATM   22  H   UNL     1      41.715 -18.483   3.182  1.00  0.00     0.190 HD
BRANCH  20  23
HETATM   23  C   UNL     1      42.908 -18.167   5.496  1.00  0.00     0.109 C 
BRANCH  23  24
HETATM   24  C   UNL     1      44.154 -18.365   4.635  1.00  0.00     0.049 C 
BRANCH  24  25
HETATM   25  C   UNL     1      44.318 -19.798   4.185  1.00  0.00    -0.036 A 
HETATM   26  C   UNL     1      44.158 -20.202   2.850  1.00  0.00     0.040 A 
HETATM   27 CL   UNL     1      43.756 -19.081   1.598  1.00  0.00    -0.084 Cl
HETATM   28  C   UNL     1      44.319 -21.544   2.489  1.00  0.00     0.024 A 
HETATM   29  C   UNL     1      44.638 -22.498   3.454  1.00  0.00     0.002 A 
HETATM   30  C   UNL     1      44.792 -22.113   4.783  1.00  0.00     0.001 A 
HETATM   31  C   UNL     1      44.631 -20.775   5.147  1.00  0.00     0.009 A 
ENDBRANCH  24  25
ENDBRANCH  23  24
ENDBRANCH  20  23
ENDBRANCH   2  19
TORSDOF 7
ENDMDL
