MODEL 1
REMARK VINA RESULT:      -8.9      0.000      0.000
REMARK  5 active torsions:
REMARK  status: ('A' for Active; 'I' for Inactive)
REMARK    1  A    between atoms: C_2  and  N_3 
REMARK    2  A    between atoms: N_7  and  C_8 
REMARK    3  A    between atoms: N_14  and  C_15 
REMARK    4  A    between atoms: C_19  and  C_20 
REMARK       I    between atoms: C_20  and  N_21 
REMARK    5  A    between atoms: N_21  and  C_22 
ROOT
HETATM    1  C   UNL     1      40.352  -9.276   9.486  1.00  0.00     0.071 A 
HETATM    2  C   UNL     1      39.578  -9.546   8.339  1.00  0.00     0.143 A 
HETATM    3  F   UNL     1      38.337  -9.050   8.217  1.00  0.00    -0.204 F 
HETATM    4  C   UNL     1      40.022 -10.376   7.313  1.00  0.00     0.062 A 
HETATM    5  C   UNL     1      41.276 -10.976   7.409  1.00  0.00     0.045 A 
HETATM    6  C   UNL     1      42.109 -10.732   8.510  1.00  0.00     0.051 A 
HETATM    7  N   UNL     1      43.381 -11.367   8.576  1.00  0.00    -0.350 N 
HETATM    8  C   UNL     1      43.675 -12.371   7.666  1.00  0.00     0.113 C 
HETATM    9  C   UNL     1      42.952 -12.699   6.584  1.00  0.00     0.099 C 
HETATM   10  C   UNL     1      41.721 -11.906   6.343  1.00  0.00     0.201 C 
HETATM   11  O   UNL     1      41.064 -12.033   5.312  1.00  0.00    -0.286 OA
HETATM   12  C   UNL     1      41.635  -9.868   9.518  1.00  0.00     0.063 A 
ENDROOT
BRANCH   9  13
HETATM   13  C   UNL     1      43.399 -13.844   5.732  1.00  0.00     0.275 C 
HETATM   14  N   UNL     1      42.974 -15.069   6.196  1.00  0.00    -0.153 N 
HETATM   15  H   UNL     1      42.365 -15.099   7.010  1.00  0.00     0.187 HD
HETATM   16  O   UNL     1      44.074 -13.624   4.731  1.00  0.00    -0.267 OA
BRANCH  14  17
HETATM   17  C   UNL     1      43.410 -16.254   5.661  1.00  0.00     0.708 A 
HETATM   18  N   UNL     1      43.994 -17.264   6.260  1.00  0.00    -0.062 NA
HETATM   19  C   UNL     1      44.169 -18.225   5.296  1.00  0.00     0.103 A 
HETATM   20  C   UNL     1      43.698 -17.783   4.066  1.00  0.00     0.078 A 
HETATM   21  C   UNL     1      44.722 -19.509   5.395  1.00  0.00     0.034 A 
HETATM   22  N   UNL     1      43.220 -16.524   4.328  1.00  0.00    -0.187 N 
HETATM   23  C   UNL     1      43.754 -18.547   2.900  1.00  0.00     0.032 A 
HETATM   24  H   UNL     1      42.801 -15.902   3.656  1.00  0.00     0.184 HD
HETATM   25  C   UNL     1      44.309 -19.827   3.017  1.00  0.00     0.002 A 
HETATM   26  C   UNL     1      44.783 -20.304   4.243  1.00  0.00     0.002 A 
ENDBRANCH  14  17
ENDBRANCH   9  13
BRANCH   7  27
HETATM   27  C   UNL     1      44.281 -11.207   9.734  1.00  0.00     0.090 A 
HETATM   28  C   UNL     1      44.288 -12.189  10.881  1.00  0.00     0.028 A 
HETATM   29  C   UNL     1      45.461 -12.121   9.954  1.00  0.00     0.028 A 
ENDBRANCH   7  27
BRANCH   1  30
HETATM   30  N   UNL     1      39.944  -8.446  10.542  1.00  0.00    -0.375 N 
HETATM   31  C   UNL     1      40.790  -7.276  10.866  1.00  0.00     0.150 C 
HETATM   32  C   UNL     1      41.844  -7.641  11.934  1.00  0.00     0.254 C 
HETATM   33  N   UNL     1      41.173  -8.215  13.189  1.00  0.00    -0.068 N 
HETATM   34  H   UNL     1      40.547  -7.489  13.563  1.00  0.00     0.280 HD
HETATM   35  C   UNL     1      40.277  -9.413  12.820  1.00  0.00     0.254 C 
HETATM   36  C   UNL     1      39.263  -9.014  11.723  1.00  0.00     0.150 C 
BRANCH  33  37
HETATM   37  C   UNL     1      42.157  -8.591  14.271  1.00  0.00     0.230 C 
HETATM   38  C   UNL     1      43.318  -9.380  13.696  1.00  0.00     0.034 C 
ENDBRANCH  33  37
ENDBRANCH   1  30
TORSDOF 5
ENDMDL
MODEL 2
REMARK VINA RESULT:      -8.8      3.645     10.024
REMARK  5 active torsions:
REMARK  status: ('A' for Active; 'I' for Inactive)
REMARK    1  A    between atoms: C_2  and  N_3 
REMARK    2  A    between atoms: N_7  and  C_8 
REMARK    3  A    between atoms: N_14  and  C_15 
REMARK    4  A    between atoms: C_19  and  C_20 
REMARK       I    between atoms: C_20  and  N_21 
REMARK    5  A    between atoms: N_21  and  C_22 
ROOT
HETATM    1  C   UNL     1      42.139 -15.298   3.454  1.00  0.00     0.071 A 
HETATM    2  C   UNL     1      43.127 -15.689   4.381  1.00  0.00     0.143 A 
HETATM    3  F   UNL     1      43.709 -16.896   4.295  1.00  0.00    -0.204 F 
HETATM    4  C   UNL     1      43.506 -14.889   5.455  1.00  0.00     0.062 A 
HETATM    5  C   UNL     1      42.893 -13.652   5.640  1.00  0.00     0.045 A 
HETATM    6  C   UNL     1      41.920 -13.188   4.742  1.00  0.00     0.051 A 
HETATM    7  N   UNL     1      41.313 -11.921   4.967  1.00  0.00    -0.350 N 
HETATM    8  C   UNL     1      41.537 -11.277   6.174  1.00  0.00     0.113 C 
HETATM    9  C   UNL     1      42.431 -11.631   7.109  1.00  0.00     0.099 C 
HETATM   10  C   UNL     1      43.257 -12.828   6.818  1.00  0.00     0.201 C 
HETATM   11  O   UNL     1      44.195 -13.155   7.542  1.00  0.00    -0.286 OA
HETATM   12  C   UNL     1      41.579 -14.017   3.654  1.00  0.00     0.063 A 
ENDROOT
BRANCH   9  13
HETATM   13  C   UNL     1      42.507 -10.840   8.377  1.00  0.00     0.275 C 
HETATM   14  N   UNL     1      42.833 -11.602   9.477  1.00  0.00    -0.153 N 
HETATM   15  H   UNL     1      43.049 -12.587   9.343  1.00  0.00     0.187 HD
HETATM   16  O   UNL     1      42.288  -9.633   8.349  1.00  0.00    -0.267 OA
BRANCH  14  17
HETATM   17  C   UNL     1      42.792 -11.109  10.756  1.00  0.00     0.708 A 
HETATM   18  N   UNL     1      43.644 -10.318  11.363  1.00  0.00    -0.062 NA
HETATM   19  C   UNL     1      43.114 -10.074  12.605  1.00  0.00     0.103 A 
HETATM   20  C   UNL     1      41.912 -10.751  12.772  1.00  0.00     0.078 A 
HETATM   21  C   UNL     1      43.600  -9.275  13.649  1.00  0.00     0.034 A 
HETATM   22  N   UNL     1      41.732 -11.403  11.579  1.00  0.00    -0.187 N 
HETATM   23  C   UNL     1      41.153 -10.695  13.941  1.00  0.00     0.032 A 
HETATM   24  H   UNL     1      40.954 -11.997  11.345  1.00  0.00     0.184 HD
HETATM   25  C   UNL     1      41.654  -9.894  14.974  1.00  0.00     0.002 A 
HETATM   26  C   UNL     1      42.855  -9.192  14.833  1.00  0.00     0.002 A 
ENDBRANCH  14  17
ENDBRANCH   9  13
BRANCH   7  27
HETATM   27  C   UNL     1      40.237 -11.401   4.101  1.00  0.00     0.090 A 
HETATM   28  C   UNL     1      38.781 -11.696   4.372  1.00  0.00     0.028 A 
HETATM   29  C   UNL     1      39.306 -10.308   4.563  1.00  0.00     0.028 A 
ENDBRANCH   7  27
BRANCH   1  30
HETATM   30  N   UNL     1      41.727 -16.073   2.358  1.00  0.00    -0.375 N 
HETATM   31  C   UNL     1      42.413 -15.858   1.066  1.00  0.00     0.150 C 
HETATM   32  C   UNL     1      41.679 -14.790   0.226  1.00  0.00     0.254 C 
HETATM   33  N   UNL     1      40.207 -15.172   0.025  1.00  0.00    -0.068 N 
HETATM   34  H   UNL     1      40.187 -16.070  -0.476  1.00  0.00     0.280 HD
HETATM   35  C   UNL     1      39.524 -15.417   1.384  1.00  0.00     0.254 C 
HETATM   36  C   UNL     1      40.310 -16.464   2.206  1.00  0.00     0.150 C 
BRANCH  33  37
HETATM   37  C   UNL     1      39.436 -14.161  -0.791  1.00  0.00     0.230 C 
HETATM   38  C   UNL     1      38.130 -13.799  -0.110  1.00  0.00     0.034 C 
ENDBRANCH  33  37
ENDBRANCH   1  30
TORSDOF 5
ENDMDL
MODEL 3
REMARK VINA RESULT:      -8.6      8.307     10.943
REMARK  5 active torsions:
REMARK  status: ('A' for Active; 'I' for Inactive)
REMARK    1  A    between atoms: C_2  and  N_3 
REMARK    2  A    between atoms: N_7  and  C_8 
REMARK    3  A    between atoms: N_14  and  C_15 
REMARK    4  A    between atoms: C_19  and  C_20 
REMARK       I    between atoms: C_20  and  N_21 
REMARK    5  A    between atoms: N_21  and  C_22 
ROOT
HETATM    1  C   UNL     1      41.853 -11.048  -1.661  1.00  0.00     0.071 A 
HETATM    2  C   UNL     1      42.168 -10.928  -0.292  1.00  0.00     0.143 A 
HETATM    3  F   UNL     1      42.593  -9.759   0.214  1.00  0.00    -0.204 F 
HETATM    4  C   UNL     1      42.118 -12.006   0.586  1.00  0.00     0.062 A 
HETATM    5  C   UNL     1      41.748 -13.262   0.111  1.00  0.00     0.045 A 
HETATM    6  C   UNL     1      41.396 -13.449  -1.234  1.00  0.00     0.051 A 
HETATM    7  N   UNL     1      41.028 -14.748  -1.683  1.00  0.00    -0.350 N 
HETATM    8  C   UNL     1      41.233 -15.831  -0.841  1.00  0.00     0.113 C 
HETATM    9  C   UNL     1      41.576 -15.774   0.455  1.00  0.00     0.099 C 
HETATM   10  C   UNL     1      41.752 -14.421   1.037  1.00  0.00     0.201 C 
HETATM   11  O   UNL     1      41.931 -14.256   2.242  1.00  0.00    -0.286 OA
HETATM   12  C   UNL     1      41.437 -12.329  -2.088  1.00  0.00     0.063 A 
ENDROOT
BRANCH   9  13
HETATM   13  C   UNL     1      41.797 -17.050   1.204  1.00  0.00     0.275 C 
HETATM   14  N   UNL     1      43.036 -17.126   1.800  1.00  0.00    -0.153 N 
HETATM   15  H   UNL     1      43.656 -16.323   1.744  1.00  0.00     0.187 HD
HETATM   16  O   UNL     1      40.906 -17.893   1.235  1.00  0.00    -0.267 OA
BRANCH  14  17
HETATM   17  C   UNL     1      43.503 -18.273   2.391  1.00  0.00     0.708 A 
HETATM   18  N   UNL     1      43.951 -18.448   3.611  1.00  0.00    -0.062 NA
HETATM   19  C   UNL     1      44.234 -19.786   3.721  1.00  0.00     0.103 A 
HETATM   20  C   UNL     1      43.972 -20.447   2.527  1.00  0.00     0.078 A 
HETATM   21  C   UNL     1      44.716 -20.517   4.815  1.00  0.00     0.034 A 
HETATM   22  N   UNL     1      43.508 -19.458   1.698  1.00  0.00    -0.187 N 
HETATM   23  C   UNL     1      44.175 -21.815   2.343  1.00  0.00     0.032 A 
HETATM   24  H   UNL     1      43.219 -19.580   0.741  1.00  0.00     0.184 HD
HETATM   25  C   UNL     1      44.658 -22.529   3.446  1.00  0.00     0.002 A 
HETATM   26  C   UNL     1      44.922 -21.895   4.664  1.00  0.00     0.002 A 
ENDBRANCH  14  17
ENDBRANCH   9  13
BRANCH   7  27
HETATM   27  C   UNL     1      40.711 -15.030  -3.097  1.00  0.00     0.090 A 
HETATM   28  C   UNL     1      39.797 -16.163  -3.499  1.00  0.00     0.028 A 
HETATM   29  C   UNL     1      39.346 -14.747  -3.674  1.00  0.00     0.028 A 
ENDBRANCH   7  27
BRANCH   1  30
HETATM   30  N   UNL     1      41.890  -9.987  -2.581  1.00  0.00    -0.375 N 
HETATM   31  C   UNL     1      40.775  -9.015  -2.556  1.00  0.00     0.150 C 
HETATM   32  C   UNL     1      39.652  -9.444  -3.526  1.00  0.00     0.254 C 
HETATM   33  N   UNL     1      40.201  -9.636  -4.946  1.00  0.00    -0.068 N 
HETATM   34  H   UNL     1      40.588  -8.733  -5.251  1.00  0.00     0.280 HD
HETATM   35  C   UNL     1      41.377 -10.631  -4.938  1.00  0.00     0.254 C 
HETATM   36  C   UNL     1      42.460 -10.184  -3.929  1.00  0.00     0.150 C 
BRANCH  33  37
HETATM   37  C   UNL     1      39.145 -10.056  -5.940  1.00  0.00     0.230 C 
HETATM   38  C   UNL     1      39.635  -9.862  -7.363  1.00  0.00     0.034 C 
ENDBRANCH  33  37
ENDBRANCH   1  30
TORSDOF 5
ENDMDL
MODEL 4
REMARK VINA RESULT:      -8.5      6.056      9.999
REMARK  5 active torsions:
REMARK  status: ('A' for Active; 'I' for Inactive)
REMARK    1  A    between atoms: C_2  and  N_3 
REMARK    2  A    between atoms: N_7  and  C_8 
REMARK    3  A    between atoms: N_14  and  C_15 
REMARK    4  A    between atoms: C_19  and  C_20 
REMARK       I    between atoms: C_20  and  N_21 
REMARK    5  A    between atoms: N_21  and  C_22 
ROOT
HETATM    1  C   UNL     1      43.613 -15.761   5.263  1.00  0.00     0.071 A 
HETATM    2  C   UNL     1      43.478 -14.392   4.957  1.00  0.00     0.143 A 
HETATM    3  F   UNL     1      43.720 -13.454   5.887  1.00  0.00    -0.204 F 
HETATM    4  C   UNL     1      43.036 -13.941   3.716  1.00  0.00     0.062 A 
HETATM    5  C   UNL     1      42.705 -14.865   2.728  1.00  0.00     0.045 A 
HETATM    6  C   UNL     1      42.840 -16.242   2.955  1.00  0.00     0.051 A 
HETATM    7  N   UNL     1      42.488 -17.156   1.922  1.00  0.00    -0.350 N 
HETATM    8  C   UNL     1      41.822 -16.678   0.804  1.00  0.00     0.113 C 
HETATM    9  C   UNL     1      41.627 -15.389   0.487  1.00  0.00     0.099 C 
HETATM   10  C   UNL     1      42.180 -14.383   1.428  1.00  0.00     0.201 C 
HETATM   11  O   UNL     1      42.176 -13.183   1.163  1.00  0.00    -0.286 OA
HETATM   12  C   UNL     1      43.311 -16.660   4.216  1.00  0.00     0.063 A 
ENDROOT
BRANCH   9  13
HETATM   13  C   UNL     1      40.845 -15.053  -0.743  1.00  0.00     0.275 C 
HETATM   14  N   UNL     1      39.843 -14.136  -0.520  1.00  0.00    -0.153 N 
HETATM   15  H   UNL     1      39.752 -13.725   0.405  1.00  0.00     0.187 HD
HETATM   16  O   UNL     1      41.137 -15.589  -1.807  1.00  0.00    -0.267 OA
BRANCH  14  17
HETATM   17  C   UNL     1      38.906 -13.818  -1.471  1.00  0.00     0.708 A 
HETATM   18  N   UNL     1      38.397 -12.646  -1.767  1.00  0.00    -0.062 NA
HETATM   19  C   UNL     1      37.554 -12.859  -2.829  1.00  0.00     0.103 A 
HETATM   20  C   UNL     1      37.530 -14.203  -3.180  1.00  0.00     0.078 A 
HETATM   21  C   UNL     1      36.774 -11.948  -3.555  1.00  0.00     0.034 A 
HETATM   22  N   UNL     1      38.401 -14.790  -2.298  1.00  0.00    -0.187 N 
HETATM   23  C   UNL     1      36.753 -14.713  -4.221  1.00  0.00     0.032 A 
HETATM   24  H   UNL     1      38.630 -15.770  -2.262  1.00  0.00     0.184 HD
HETATM   25  C   UNL     1      35.979 -13.790  -4.934  1.00  0.00     0.002 A 
HETATM   26  C   UNL     1      35.989 -12.430  -4.612  1.00  0.00     0.002 A 
ENDBRANCH  14  17
ENDBRANCH   9  13
BRANCH   7  27
HETATM   27  C   UNL     1      42.541 -18.618   2.115  1.00  0.00     0.090 A 
HETATM   28  C   UNL     1      43.605 -19.470   1.466  1.00  0.00     0.028 A 
HETATM   29  C   UNL     1      43.617 -19.269   2.948  1.00  0.00     0.028 A 
ENDBRANCH   7  27
BRANCH   1  30
HETATM   30  N   UNL     1      44.054 -16.259   6.500  1.00  0.00    -0.375 N 
HETATM   31  C   UNL     1      45.281 -17.086   6.512  1.00  0.00     0.150 C 
HETATM   32  C   UNL     1      44.934 -18.583   6.353  1.00  0.00     0.254 C 
HETATM   33  N   UNL     1      43.943 -19.031   7.434  1.00  0.00    -0.068 N 
HETATM   34  H   UNL     1      44.393 -18.881   8.347  1.00  0.00     0.280 HD
HETATM   35  C   UNL     1      42.688 -18.137   7.418  1.00  0.00     0.254 C 
HETATM   36  C   UNL     1      43.082 -16.647   7.543  1.00  0.00     0.150 C 
BRANCH  33  37
HETATM   37  C   UNL     1      43.566 -20.490   7.329  1.00  0.00     0.230 C 
HETATM   38  C   UNL     1      44.218 -21.130   6.117  1.00  0.00     0.034 C 
ENDBRANCH  33  37
ENDBRANCH   1  30
TORSDOF 5
ENDMDL
MODEL 5
REMARK VINA RESULT:      -8.3      2.781     10.415
REMARK  5 active torsions:
REMARK  status: ('A' for Active; 'I' for Inactive)
REMARK    1  A    between atoms: C_2  and  N_3 
REMARK    2  A    between atoms: N_7  and  C_8 
REMARK    3  A    between atoms: N_14  and  C_15 
REMARK    4  A    between atoms: C_19  and  C_20 
REMARK       I    between atoms: C_20  and  N_21 
REMARK    5  A    between atoms: N_21  and  C_22 
ROOT
HETATM    1  C   UNL     1      42.695 -15.371   4.424  1.00  0.00     0.071 A 
HETATM    2  C   UNL     1      43.694 -15.779   5.331  1.00  0.00     0.143 A 
HETATM    3  F   UNL     1      44.275 -16.983   5.215  1.00  0.00    -0.204 F 
HETATM    4  C   UNL     1      44.087 -14.999   6.415  1.00  0.00     0.062 A 
HETATM    5  C   UNL     1      43.476 -13.765   6.630  1.00  0.00     0.045 A 
HETATM    6  C   UNL     1      42.493 -13.285   5.753  1.00  0.00     0.051 A 
HETATM    7  N   UNL     1      41.888 -12.022   6.009  1.00  0.00    -0.350 N 
HETATM    8  C   UNL     1      42.127 -11.400   7.224  1.00  0.00     0.113 C 
HETATM    9  C   UNL     1      43.033 -11.771   8.142  1.00  0.00     0.099 C 
HETATM   10  C   UNL     1      43.856 -12.963   7.818  1.00  0.00     0.201 C 
HETATM   11  O   UNL     1      44.802 -13.304   8.524  1.00  0.00    -0.286 OA
HETATM   12  C   UNL     1      42.137 -14.093   4.654  1.00  0.00     0.063 A 
ENDROOT
BRANCH   9  13
HETATM   13  C   UNL     1      43.125 -11.005   9.423  1.00  0.00     0.275 C 
HETATM   14  N   UNL     1      42.044 -11.197  10.254  1.00  0.00    -0.153 N 
HETATM   15  H   UNL     1      41.327 -11.862   9.978  1.00  0.00     0.187 HD
HETATM   16  O   UNL     1      44.106 -10.298   9.633  1.00  0.00    -0.267 OA
BRANCH  14  17
HETATM   17  C   UNL     1      41.851 -10.463  11.397  1.00  0.00     0.708 A 
HETATM   18  N   UNL     1      40.878  -9.633  11.688  1.00  0.00    -0.062 NA
HETATM   19  C   UNL     1      41.116  -9.209  12.972  1.00  0.00     0.103 A 
HETATM   20  C   UNL     1      42.279  -9.781  13.474  1.00  0.00     0.078 A 
HETATM   21  C   UNL     1      40.377  -8.337  13.783  1.00  0.00     0.034 A 
HETATM   22  N   UNL     1      42.726 -10.574  12.449  1.00  0.00    -0.187 N 
HETATM   23  C   UNL     1      42.772  -9.525  14.754  1.00  0.00     0.032 A 
HETATM   24  H   UNL     1      43.557 -11.143  12.464  1.00  0.00     0.184 HD
HETATM   25  C   UNL     1      42.022  -8.651  15.550  1.00  0.00     0.002 A 
HETATM   26  C   UNL     1      40.843  -8.067  15.077  1.00  0.00     0.002 A 
ENDBRANCH  14  17
ENDBRANCH   9  13
BRANCH   7  27
HETATM   27  C   UNL     1      40.801 -11.487   5.166  1.00  0.00     0.090 A 
HETATM   28  C   UNL     1      39.356 -11.857   5.397  1.00  0.00     0.028 A 
HETATM   29  C   UNL     1      39.822 -10.466   5.690  1.00  0.00     0.028 A 
ENDBRANCH   7  27
BRANCH   1  30
HETATM   30  N   UNL     1      42.269 -16.126   3.319  1.00  0.00    -0.375 N 
HETATM   31  C   UNL     1      41.497 -17.360   3.584  1.00  0.00     0.150 C 
HETATM   32  C   UNL     1      42.437 -18.580   3.699  1.00  0.00     0.254 C 
HETATM   33  N   UNL     1      43.306 -18.719   2.442  1.00  0.00    -0.068 N 
HETATM   34  H   UNL     1      42.673 -18.851   1.642  1.00  0.00     0.280 HD
HETATM   35  C   UNL     1      44.077 -17.412   2.174  1.00  0.00     0.254 C 
HETATM   36  C   UNL     1      43.104 -16.213   2.103  1.00  0.00     0.150 C 
BRANCH  33  37
HETATM   37  C   UNL     1      44.248 -19.899   2.497  1.00  0.00     0.230 C 
HETATM   38  C   UNL     1      43.632 -21.113   1.827  1.00  0.00     0.034 C 
ENDBRANCH  33  37
ENDBRANCH   1  30
TORSDOF 5
ENDMDL
MODEL 6
REMARK VINA RESULT:      -8.3      5.293      7.381
REMARK  5 active torsions:
REMARK  status: ('A' for Active; 'I' for Inactive)
REMARK    1  A    between atoms: C_2  and  N_3 
REMARK    2  A    between atoms: N_7  and  C_8 
REMARK    3  A    between atoms: N_14  and  C_15 
REMARK    4  A    between atoms: C_19  and  C_20 
REMARK       I    between atoms: C_20  and  N_21 
REMARK    5  A    between atoms: N_21  and  C_22 
ROOT
HETATM    1  C   UNL     1      36.969 -10.616   1.768  1.00  0.00     0.071 A 
HETATM    2  C   UNL     1      36.800 -11.722   0.909  1.00  0.00     0.143 A 
HETATM    3  F   UNL     1      35.802 -11.747   0.012  1.00  0.00    -0.204 F 
HETATM    4  C   UNL     1      37.604 -12.856   0.981  1.00  0.00     0.062 A 
HETATM    5  C   UNL     1      38.617 -12.921   1.935  1.00  0.00     0.045 A 
HETATM    6  C   UNL     1      38.858 -11.847   2.804  1.00  0.00     0.051 A 
HETATM    7  N   UNL     1      39.899 -11.952   3.769  1.00  0.00    -0.350 N 
HETATM    8  C   UNL     1      40.503 -13.184   3.970  1.00  0.00     0.113 C 
HETATM    9  C   UNL     1      40.344 -14.279   3.212  1.00  0.00     0.099 C 
HETATM   10  C   UNL     1      39.433 -14.154   2.047  1.00  0.00     0.201 C 
HETATM   11  O   UNL     1      39.325 -15.052   1.214  1.00  0.00    -0.286 OA
HETATM   12  C   UNL     1      38.038 -10.707   2.687  1.00  0.00     0.063 A 
ENDROOT
BRANCH   9  13
HETATM   13  C   UNL     1      41.045 -15.542   3.603  1.00  0.00     0.275 C 
HETATM   14  N   UNL     1      41.803 -16.082   2.588  1.00  0.00    -0.153 N 
HETATM   15  H   UNL     1      41.878 -15.575   1.710  1.00  0.00     0.187 HD
HETATM   16  O   UNL     1      40.904 -15.982   4.739  1.00  0.00    -0.267 OA
BRANCH  14  17
HETATM   17  C   UNL     1      42.389 -17.319   2.682  1.00  0.00     0.708 A 
HETATM   18  N   UNL     1      42.370 -18.308   1.821  1.00  0.00    -0.062 NA
HETATM   19  C   UNL     1      43.157 -19.294   2.362  1.00  0.00     0.103 A 
HETATM   20  C   UNL     1      43.657 -18.906   3.599  1.00  0.00     0.078 A 
HETATM   21  C   UNL     1      43.499 -20.554   1.851  1.00  0.00     0.034 A 
HETATM   22  N   UNL     1      43.151 -17.643   3.777  1.00  0.00    -0.187 N 
HETATM   23  C   UNL     1      44.482 -19.712   4.383  1.00  0.00     0.032 A 
HETATM   24  H   UNL     1      43.312 -17.053   4.578  1.00  0.00     0.184 HD
HETATM   25  C   UNL     1      44.813 -20.967   3.858  1.00  0.00     0.002 A 
HETATM   26  C   UNL     1      44.334 -21.383   2.612  1.00  0.00     0.002 A 
ENDBRANCH  14  17
ENDBRANCH   9  13
BRANCH   7  27
HETATM   27  C   UNL     1      40.164 -10.889   4.758  1.00  0.00     0.090 A 
HETATM   28  C   UNL     1      39.518 -10.889   6.122  1.00  0.00     0.028 A 
HETATM   29  C   UNL     1      40.986 -11.146   5.996  1.00  0.00     0.028 A 
ENDBRANCH   7  27
BRANCH   1  30
HETATM   30  N   UNL     1      36.182  -9.454   1.730  1.00  0.00    -0.375 N 
HETATM   31  C   UNL     1      36.204  -8.567   2.914  1.00  0.00     0.150 C 
HETATM   32  C   UNL     1      35.087  -8.952   3.909  1.00  0.00     0.254 C 
HETATM   33  N   UNL     1      33.716  -8.938   3.220  1.00  0.00    -0.068 N 
HETATM   34  H   UNL     1      33.553  -7.981   2.879  1.00  0.00     0.280 HD
HETATM   35  C   UNL     1      33.728  -9.846   1.977  1.00  0.00     0.254 C 
HETATM   36  C   UNL     1      34.882  -9.451   1.027  1.00  0.00     0.150 C 
BRANCH  33  37
HETATM   37  C   UNL     1      32.581  -9.306   4.147  1.00  0.00     0.230 C 
HETATM   38  C   UNL     1      33.077  -9.469   5.571  1.00  0.00     0.034 C 
ENDBRANCH  33  37
ENDBRANCH   1  30
TORSDOF 5
ENDMDL
MODEL 7
REMARK VINA RESULT:      -8.2      4.361      9.948
REMARK  5 active torsions:
REMARK  status: ('A' for Active; 'I' for Inactive)
REMARK    1  A    between atoms: C_2  and  N_3 
REMARK    2  A    between atoms: N_7  and  C_8 
REMARK    3  A    between atoms: N_14  and  C_15 
REMARK    4  A    between atoms: C_19  and  C_20 
REMARK       I    between atoms: C_20  and  N_21 
REMARK    5  A    between atoms: N_21  and  C_22 
ROOT
HETATM    1  C   UNL     1      38.703 -11.975   1.780  1.00  0.00     0.071 A 
HETATM    2  C   UNL     1      37.967 -11.000   2.484  1.00  0.00     0.143 A 
HETATM    3  F   UNL     1      37.011 -10.286   1.870  1.00  0.00    -0.204 F 
HETATM    4  C   UNL     1      38.223 -10.684   3.816  1.00  0.00     0.062 A 
HETATM    5  C   UNL     1      39.246 -11.344   4.493  1.00  0.00     0.045 A 
HETATM    6  C   UNL     1      40.001 -12.343   3.862  1.00  0.00     0.051 A 
HETATM    7  N   UNL     1      41.042 -12.991   4.586  1.00  0.00    -0.350 N 
HETATM    8  C   UNL     1      41.424 -12.475   5.815  1.00  0.00     0.113 C 
HETATM    9  C   UNL     1      40.787 -11.519   6.507  1.00  0.00     0.099 C 
HETATM   10  C   UNL     1      39.555 -10.963   5.893  1.00  0.00     0.201 C 
HETATM   11  O   UNL     1      38.825 -10.185   6.503  1.00  0.00    -0.286 OA
HETATM   12  C   UNL     1      39.698 -12.651   2.521  1.00  0.00     0.063 A 
ENDROOT
BRANCH   9  13
HETATM   13  C   UNL     1      41.367 -11.052   7.804  1.00  0.00     0.275 C 
HETATM   14  N   UNL     1      40.574 -11.339   8.892  1.00  0.00    -0.153 N 
HETATM   15  H   UNL     1      39.724 -11.877   8.749  1.00  0.00     0.187 HD
HETATM   16  O   UNL     1      42.452 -10.478   7.807  1.00  0.00    -0.267 OA
BRANCH  14  17
HETATM   17  C   UNL     1      40.839 -10.854  10.148  1.00  0.00     0.708 A 
HETATM   18  N   UNL     1      40.169  -9.971  10.848  1.00  0.00    -0.062 NA
HETATM   19  C   UNL     1      40.812  -9.882  12.058  1.00  0.00     0.103 A 
HETATM   20  C   UNL     1      41.920 -10.721  12.092  1.00  0.00     0.078 A 
HETATM   21  C   UNL     1      40.506  -9.108  13.185  1.00  0.00     0.034 A 
HETATM   22  N   UNL     1      41.912 -11.327  10.862  1.00  0.00    -0.187 N 
HETATM   23  C   UNL     1      42.768 -10.831  13.194  1.00  0.00     0.032 A 
HETATM   24  H   UNL     1      42.582 -12.005  10.536  1.00  0.00     0.184 HD
HETATM   25  C   UNL     1      42.447 -10.050  14.311  1.00  0.00     0.002 A 
HETATM   26  C   UNL     1      41.334  -9.204  14.311  1.00  0.00     0.002 A 
ENDBRANCH  14  17
ENDBRANCH   9  13
BRANCH   7  27
HETATM   27  C   UNL     1      41.918 -14.003   3.965  1.00  0.00     0.090 A 
HETATM   28  C   UNL     1      43.224 -13.631   3.304  1.00  0.00     0.028 A 
HETATM   29  C   UNL     1      43.233 -14.402   4.587  1.00  0.00     0.028 A 
ENDBRANCH   7  27
BRANCH   1  30
HETATM   30  N   UNL     1      38.477 -12.324   0.439  1.00  0.00    -0.375 N 
HETATM   31  C   UNL     1      38.437 -13.764   0.099  1.00  0.00     0.150 C 
HETATM   32  C   UNL     1      39.840 -14.273  -0.298  1.00  0.00     0.254 C 
HETATM   33  N   UNL     1      40.417 -13.438  -1.449  1.00  0.00    -0.068 N 
HETATM   34  H   UNL     1      39.780 -13.537  -2.251  1.00  0.00     0.280 HD
HETATM   35  C   UNL     1      40.422 -11.943  -1.081  1.00  0.00     0.254 C 
HETATM   36  C   UNL     1      39.008 -11.485  -0.655  1.00  0.00     0.150 C 
BRANCH  33  37
HETATM   37  C   UNL     1      41.792 -13.891  -1.882  1.00  0.00     0.230 C 
HETATM   38  C   UNL     1      42.479 -12.820  -2.708  1.00  0.00     0.034 C 
ENDBRANCH  33  37
ENDBRANCH   1  30
TORSDOF 5
ENDMDL
MODEL 8
REMARK VINA RESULT:      -8.1      6.312     10.342
REMARK  5 active torsions:
REMARK  status: ('A' for Active; 'I' for Inactive)
REMARK    1  A    between atoms: C_2  and  N_3 
REMARK    2  A    between atoms: N_7  and  C_8 
REMARK    3  A    between atoms: N_14  and  C_15 
REMARK    4  A    between atoms: C_19  and  C_20 
REMARK       I    between atoms: C_20  and  N_21 
REMARK    5  A    between atoms: N_21  and  C_22 
ROOT
HETATM    1  C   UNL     1      43.986 -18.663   3.642  1.00  0.00     0.071 A 
HETATM    2  C   UNL     1      43.722 -19.158   2.348  1.00  0.00     0.143 A 
HETATM    3  F   UNL     1      44.185 -20.358   1.966  1.00  0.00    -0.204 F 
HETATM    4  C   UNL     1      43.034 -18.420   1.390  1.00  0.00     0.062 A 
HETATM    5  C   UNL     1      42.583 -17.139   1.701  1.00  0.00     0.045 A 
HETATM    6  C   UNL     1      42.787 -16.594   2.977  1.00  0.00     0.051 A 
HETATM    7  N   UNL     1      42.317 -15.280   3.256  1.00  0.00    -0.350 N 
HETATM    8  C   UNL     1      41.864 -14.495   2.207  1.00  0.00     0.113 C 
HETATM    9  C   UNL     1      41.640 -14.903   0.949  1.00  0.00     0.099 C 
HETATM   10  C   UNL     1      41.902 -16.335   0.659  1.00  0.00     0.201 C 
HETATM   11  O   UNL     1      41.600 -16.839  -0.421  1.00  0.00    -0.286 OA
HETATM   12  C   UNL     1      43.469 -17.379   3.929  1.00  0.00     0.063 A 
ENDROOT
BRANCH   9  13
HETATM   13  C   UNL     1      41.190 -13.904  -0.069  1.00  0.00     0.275 C 
HETATM   14  N   UNL     1      41.897 -13.970  -1.249  1.00  0.00    -0.153 N 
HETATM   15  H   UNL     1      42.596 -14.700  -1.360  1.00  0.00     0.187 HD
HETATM   16  O   UNL     1      40.271 -13.137   0.203  1.00  0.00    -0.267 OA
BRANCH  14  17
HETATM   17  C   UNL     1      41.759 -13.040  -2.247  1.00  0.00     0.708 A 
HETATM   18  N   UNL     1      42.688 -12.463  -2.971  1.00  0.00    -0.062 NA
HETATM   19  C   UNL     1      42.026 -11.662  -3.867  1.00  0.00     0.103 A 
HETATM   20  C   UNL     1      40.651 -11.734  -3.673  1.00  0.00     0.078 A 
HETATM   21  C   UNL     1      42.531 -10.842  -4.886  1.00  0.00     0.034 A 
HETATM   22  N   UNL     1      40.511 -12.619  -2.635  1.00  0.00    -0.187 N 
HETATM   23  C   UNL     1      39.728 -11.018  -4.436  1.00  0.00     0.032 A 
HETATM   24  H   UNL     1      39.638 -12.911  -2.225  1.00  0.00     0.184 HD
HETATM   25  C   UNL     1      40.250 -10.204  -5.448  1.00  0.00     0.002 A 
HETATM   26  C   UNL     1      41.627 -10.118  -5.674  1.00  0.00     0.002 A 
ENDBRANCH  14  17
ENDBRANCH   9  13
BRANCH   7  27
HETATM   27  C   UNL     1      42.555 -14.620   4.555  1.00  0.00     0.090 A 
HETATM   28  C   UNL     1      43.829 -13.863   4.843  1.00  0.00     0.028 A 
HETATM   29  C   UNL     1      42.539 -13.118   4.694  1.00  0.00     0.028 A 
ENDBRANCH   7  27
BRANCH   1  30
HETATM   30  N   UNL     1      44.675 -19.372   4.639  1.00  0.00    -0.375 N 
HETATM   31  C   UNL     1      43.906 -20.335   5.457  1.00  0.00     0.150 C 
HETATM   32  C   UNL     1      43.347 -19.653   6.725  1.00  0.00     0.254 C 
HETATM   33  N   UNL     1      44.475 -19.001   7.535  1.00  0.00    -0.068 N 
HETATM   34  H   UNL     1      45.129 -19.747   7.810  1.00  0.00     0.280 HD
HETATM   35  C   UNL     1      45.277 -18.025   6.653  1.00  0.00     0.254 C 
HETATM   36  C   UNL     1      45.785 -18.738   5.379  1.00  0.00     0.150 C 
BRANCH  33  37
HETATM   37  C   UNL     1      43.988 -18.316   8.791  1.00  0.00     0.230 C 
HETATM   38  C   UNL     1      43.366 -16.971   8.466  1.00  0.00     0.034 C 
ENDBRANCH  33  37
ENDBRANCH   1  30
TORSDOF 5
ENDMDL
MODEL 9
REMARK VINA RESULT:      -8.0      1.782      2.644
REMARK  5 active torsions:
REMARK  status: ('A' for Active; 'I' for Inactive)
REMARK    1  A    between atoms: C_2  and  N_3 
REMARK    2  A    between atoms: N_7  and  C_8 
REMARK    3  A    between atoms: N_14  and  C_15 
REMARK    4  A    between atoms: C_19  and  C_20 
REMARK       I    between atoms: C_20  and  N_21 
REMARK    5  A    between atoms: N_21  and  C_22 
ROOT
HETATM    1  C   UNL     1      40.921 -10.580   7.562  1.00  0.00     0.071 A 
HETATM    2  C   UNL     1      40.189 -10.678   6.361  1.00  0.00     0.143 A 
HETATM    3  F   UNL     1      39.076  -9.951   6.175  1.00  0.00    -0.204 F 
HETATM    4  C   UNL     1      40.536 -11.561   5.342  1.00  0.00     0.062 A 
HETATM    5  C   UNL     1      41.643 -12.391   5.500  1.00  0.00     0.045 A 
HETATM    6  C   UNL     1      42.431 -12.329   6.658  1.00  0.00     0.051 A 
HETATM    7  N   UNL     1      43.552 -13.197   6.785  1.00  0.00    -0.350 N 
HETATM    8  C   UNL     1      43.711 -14.223   5.867  1.00  0.00     0.113 C 
HETATM    9  C   UNL     1      43.014 -14.389   4.733  1.00  0.00     0.099 C 
HETATM   10  C   UNL     1      41.974 -13.371   4.438  1.00  0.00     0.201 C 
HETATM   11  O   UNL     1      41.377 -13.354   3.364  1.00  0.00    -0.286 OA
HETATM   12  C   UNL     1      42.063 -11.407   7.658  1.00  0.00     0.063 A 
ENDROOT
BRANCH   9  13
HETATM   13  C   UNL     1      43.291 -15.584   3.877  1.00  0.00     0.275 C 
HETATM   14  N   UNL     1      42.831 -16.763   4.420  1.00  0.00    -0.153 N 
HETATM   15  H   UNL     1      42.306 -16.729   5.290  1.00  0.00     0.187 HD
HETATM   16  O   UNL     1      43.876 -15.438   2.809  1.00  0.00    -0.267 OA
BRANCH  14  17
HETATM   17  C   UNL     1      43.127 -17.990   3.883  1.00  0.00     0.708 A 
HETATM   18  N   UNL     1      42.774 -18.489   2.722  1.00  0.00    -0.062 NA
HETATM   19  C   UNL     1      43.377 -19.718   2.641  1.00  0.00     0.103 A 
HETATM   20  C   UNL     1      44.105 -19.990   3.794  1.00  0.00     0.078 A 
HETATM   21  C   UNL     1      43.356 -20.665   1.607  1.00  0.00     0.034 A 
HETATM   22  N   UNL     1      43.927 -18.872   4.567  1.00  0.00    -0.187 N 
HETATM   23  C   UNL     1      44.816 -21.174   3.994  1.00  0.00     0.032 A 
HETATM   24  H   UNL     1      44.317 -18.722   5.484  1.00  0.00     0.184 HD
HETATM   25  C   UNL     1      44.783 -22.107   2.951  1.00  0.00     0.002 A 
HETATM   26  C   UNL     1      44.068 -21.859   1.776  1.00  0.00     0.002 A 
ENDBRANCH  14  17
ENDBRANCH   9  13
BRANCH   7  27
HETATM   27  C   UNL     1      44.385 -13.231   8.003  1.00  0.00     0.090 A 
HETATM   28  C   UNL     1      45.839 -12.825   7.987  1.00  0.00     0.028 A 
HETATM   29  C   UNL     1      44.836 -11.966   8.691  1.00  0.00     0.028 A 
ENDBRANCH   7  27
BRANCH   1  30
HETATM   30  N   UNL     1      40.607  -9.704   8.614  1.00  0.00    -0.375 N 
HETATM   31  C   UNL     1      41.721  -8.978   9.262  1.00  0.00     0.150 C 
HETATM   32  C   UNL     1      42.269  -9.777  10.466  1.00  0.00     0.254 C 
HETATM   33  N   UNL     1      41.149 -10.096  11.464  1.00  0.00    -0.068 N 
HETATM   34  H   UNL     1      40.767  -9.200  11.796  1.00  0.00     0.280 HD
HETATM   35  C   UNL     1      39.991 -10.826  10.758  1.00  0.00     0.254 C 
HETATM   36  C   UNL     1      39.497 -10.011   9.540  1.00  0.00     0.150 C 
BRANCH  33  37
HETATM   37  C   UNL     1      41.626 -10.877  12.665  1.00  0.00     0.230 C 
HETATM   38  C   UNL     1      43.136 -11.025  12.648  1.00  0.00     0.034 C 
ENDBRANCH  33  37
ENDBRANCH   1  30
TORSDOF 5
ENDMDL
MODEL 10
REMARK VINA RESULT:      -7.9      4.759     10.098
REMARK  5 active torsions:
REMARK  status: ('A' for Active; 'I' for Inactive)
REMARK    1  A    between atoms: C_2  and  N_3 
REMARK    2  A    between atoms: N_7  and  C_8 
REMARK    3  A    between atoms: N_14  and  C_15 
REMARK    4  A    between atoms: C_19  and  C_20 
REMARK       I    between atoms: C_20  and  N_21 
REMARK    5  A    between atoms: N_21  and  C_22 
ROOT
HETATM    1  C   UNL     1      39.780 -13.869   2.241  1.00  0.00     0.071 A 
HETATM    2  C   UNL     1      40.665 -14.638   3.025  1.00  0.00     0.143 A 
HETATM    3  F   UNL     1      40.872 -15.936   2.752  1.00  0.00    -0.204 F 
HETATM    4  C   UNL     1      41.316 -14.124   4.143  1.00  0.00     0.062 A 
HETATM    5  C   UNL     1      41.094 -12.802   4.520  1.00  0.00     0.045 A 
HETATM    6  C   UNL     1      40.246 -11.972   3.771  1.00  0.00     0.051 A 
HETATM    7  N   UNL     1      40.040 -10.628   4.190  1.00  0.00    -0.350 N 
HETATM    8  C   UNL     1      40.505 -10.237   5.436  1.00  0.00     0.113 C 
HETATM    9  C   UNL     1      41.311 -10.946   6.241  1.00  0.00     0.099 C 
HETATM   10  C   UNL     1      41.743 -12.276   5.745  1.00  0.00     0.201 C 
HETATM   11  O   UNL     1      42.586 -12.943   6.340  1.00  0.00    -0.286 OA
HETATM   12  C   UNL     1      39.622 -12.521   2.633  1.00  0.00     0.063 A 
ENDROOT
BRANCH   9  13
HETATM   13  C   UNL     1      41.681 -10.383   7.578  1.00  0.00     0.275 C 
HETATM   14  N   UNL     1      41.567 -11.294   8.604  1.00  0.00    -0.153 N 
HETATM   15  H   UNL     1      41.314 -12.253   8.381  1.00  0.00     0.187 HD
HETATM   16  O   UNL     1      42.042  -9.213   7.660  1.00  0.00    -0.267 OA
BRANCH  14  17
HETATM   17  C   UNL     1      41.696 -10.941   9.923  1.00  0.00     0.708 A 
HETATM   18  N   UNL     1      40.846 -11.109  10.908  1.00  0.00    -0.062 NA
HETATM   19  C   UNL     1      41.477 -10.641  12.034  1.00  0.00     0.103 A 
HETATM   20  C   UNL     1      42.741 -10.152  11.726  1.00  0.00     0.078 A 
HETATM   21  C   UNL     1      41.034 -10.604  13.363  1.00  0.00     0.034 A 
HETATM   22  N   UNL     1      42.853 -10.356  10.375  1.00  0.00    -0.187 N 
HETATM   23  C   UNL     1      43.606  -9.605  12.674  1.00  0.00     0.032 A 
HETATM   24  H   UNL     1      43.650 -10.116   9.808  1.00  0.00     0.184 HD
HETATM   25  C   UNL     1      43.147  -9.575  13.996  1.00  0.00     0.002 A 
HETATM   26  C   UNL     1      41.885 -10.068  14.339  1.00  0.00     0.002 A 
ENDBRANCH  14  17
ENDBRANCH   9  13
BRANCH   7  27
HETATM   27  C   UNL     1      39.112  -9.720   3.489  1.00  0.00     0.090 A 
HETATM   28  C   UNL     1      37.648  -9.640   3.850  1.00  0.00     0.028 A 
HETATM   29  C   UNL     1      38.553  -8.488   4.156  1.00  0.00     0.028 A 
ENDBRANCH   7  27
BRANCH   1  30
HETATM   30  N   UNL     1      39.104 -14.347   1.107  1.00  0.00    -0.375 N 
HETATM   31  C   UNL     1      39.826 -14.331  -0.184  1.00  0.00     0.150 C 
HETATM   32  C   UNL     1      39.571 -13.007  -0.937  1.00  0.00     0.254 C 
HETATM   33  N   UNL     1      38.067 -12.770  -1.130  1.00  0.00    -0.068 N 
HETATM   34  H   UNL     1      37.701 -13.554  -1.686  1.00  0.00     0.280 HD
HETATM   35  C   UNL     1      37.336 -12.820   0.225  1.00  0.00     0.254 C 
HETATM   36  C   UNL     1      37.648 -14.144   0.961  1.00  0.00     0.150 C 
BRANCH  33  37
HETATM   37  C   UNL     1      37.756 -11.487  -1.864  1.00  0.00     0.230 C 
HETATM   38  C   UNL     1      36.259 -11.241  -1.911  1.00  0.00     0.034 C 
ENDBRANCH  33  37
ENDBRANCH   1  30
TORSDOF 5
ENDMDL
