MODEL 1
REMARK VINA RESULT:      -9.3      0.000      0.000
REMARK  6 active torsions:
REMARK  status: ('A' for Active; 'I' for Inactive)
REMARK    1  A    between atoms: C_4  and  O_5 
REMARK    2  A    between atoms: O_5  and  C_6 
REMARK    3  A    between atoms: C_6  and  C_7 
REMARK       I    between atoms: C_7  and  N_8 
REMARK    4  A    between atoms: N_8  and  C_9 
REMARK    5  A    between atoms: C_9  and  C_10 
REMARK       I    between atoms: C_10  and  N_11 
REMARK    6  A    between atoms: N_11  and  N_12 
ROOT
HETATM    1  C   UNL     1      44.060 -13.859   6.306  1.00  0.00     0.255 C 
HETATM    2  N   UNL     1      43.427 -15.022   6.702  1.00  0.00    -0.245 N 
HETATM    3  O   UNL     1      44.610 -13.696   5.215  1.00  0.00    -0.270 OA
HETATM    4  H   UNL     1      43.038 -15.080   7.644  1.00  0.00     0.192 HD
ENDROOT
BRANCH   1   5
HETATM    5  C   UNL     1      43.944 -12.696   7.298  1.00  0.00     0.227 C 
BRANCH   5   6
HETATM    6  N   UNL     1      44.276 -12.922   8.702  1.00  0.00    -0.350 N 
HETATM    7  C   UNL     1      44.990 -11.952   9.387  1.00  0.00     0.242 C 
HETATM    8  O   UNL     1      45.687 -11.118   8.818  1.00  0.00    -0.271 OA
HETATM    9  H   UNL     1      43.543 -13.359   9.251  1.00  0.00     0.163 HD
BRANCH   7  10
HETATM   10  C   UNL     1      44.847 -12.012  10.902  1.00  0.00     0.278 C 
BRANCH  10  11
HETATM   11  O   UNL     1      44.585 -10.674  11.331  1.00  0.00    -0.342 OA
BRANCH  11  12
HETATM   12  C   UNL     1      43.498 -10.601  12.159  1.00  0.00     0.069 A 
HETATM   13  C   UNL     1      43.516  -9.876  13.351  1.00  0.00     0.043 A 
HETATM   14  C   UNL     1      42.388  -9.862  14.182  1.00  0.00    -0.059 A 
HETATM   15  C   UNL     1      42.393  -9.105  15.477  1.00  0.00     0.048 C 
HETATM   16  C   UNL     1      41.254 -10.596  13.808  1.00  0.00     0.007 A 
HETATM   17  C   UNL     1      41.247 -11.335  12.624  1.00  0.00     0.003 A 
HETATM   18  C   UNL     1      42.374 -11.346  11.804  1.00  0.00     0.037 A 
ENDBRANCH  11  12
ENDBRANCH  10  11
ENDBRANCH   7  10
ENDBRANCH   5   6
ENDBRANCH   1   5
BRANCH   2  19
HETATM   19  N   UNL     1      43.584 -16.161   5.965  1.00  0.00    -0.166 NA
HETATM   20  C   UNL     1      43.687 -17.273   6.617  1.00  0.00     0.157 A 
HETATM   21  C   UNL     1      43.582 -17.520   8.125  1.00  0.00     0.277 A 
HETATM   22  C   UNL     1      43.919 -18.579   6.012  1.00  0.00     0.028 A 
HETATM   23  O   UNL     1      43.425 -16.661   8.967  1.00  0.00    -0.266 OA
HETATM   24  N   UNL     1      43.708 -18.885   8.282  1.00  0.00    -0.321 N 
HETATM   25  C   UNL     1      43.916 -19.506   7.053  1.00  0.00     0.048 A 
HETATM   26  H   UNL     1      43.680 -19.344   9.181  1.00  0.00     0.169 HD
HETATM   27  C   UNL     1      44.122 -20.848   6.813  1.00  0.00     0.032 A 
HETATM   28  C   UNL     1      44.347 -21.237   5.486  1.00  0.00     0.021 A 
HETATM   29  C   UNL     1      44.359 -20.285   4.444  1.00  0.00     0.012 A 
HETATM   30 BR   UNL     1      44.693 -20.859   2.672  1.00  0.00    -0.051 Br
HETATM   31  C   UNL     1      44.139 -18.932   4.695  1.00  0.00     0.035 A 
ENDBRANCH   2  19
TORSDOF 6
ENDMDL
MODEL 2
REMARK VINA RESULT:      -9.1      1.601      2.380
REMARK  6 active torsions:
REMARK  status: ('A' for Active; 'I' for Inactive)
REMARK    1  A    between atoms: C_4  and  O_5 
REMARK    2  A    between atoms: O_5  and  C_6 
REMARK    3  A    between atoms: C_6  and  C_7 
REMARK       I    between atoms: C_7  and  N_8 
REMARK    4  A    between atoms: N_8  and  C_9 
REMARK    5  A    between atoms: C_9  and  C_10 
REMARK       I    between atoms: C_10  and  N_11 
REMARK    6  A    between atoms: N_11  and  N_12 
ROOT
HETATM    1  C   UNL     1      44.480 -13.927   7.115  1.00  0.00     0.255 C 
HETATM    2  N   UNL     1      43.498 -14.879   6.917  1.00  0.00    -0.245 N 
HETATM    3  O   UNL     1      45.633 -14.009   6.686  1.00  0.00    -0.270 OA
HETATM    4  H   UNL     1      42.583 -14.745   7.350  1.00  0.00     0.192 HD
ENDROOT
BRANCH   1   5
HETATM    5  C   UNL     1      44.009 -12.659   7.837  1.00  0.00     0.227 C 
BRANCH   5   6
HETATM    6  N   UNL     1      44.342 -12.476   9.245  1.00  0.00    -0.350 N 
HETATM    7  C   UNL     1      45.220 -11.465   9.603  1.00  0.00     0.242 C 
HETATM    8  O   UNL     1      46.022 -10.976   8.813  1.00  0.00    -0.271 OA
HETATM    9  H   UNL     1      43.566 -12.595   9.889  1.00  0.00     0.163 HD
BRANCH   7  10
HETATM   10  C   UNL     1      45.113 -11.017  11.054  1.00  0.00     0.278 C 
BRANCH  10  11
HETATM   11  O   UNL     1      44.154  -9.957  11.075  1.00  0.00    -0.342 OA
BRANCH  11  12
HETATM   12  C   UNL     1      43.200 -10.143  12.039  1.00  0.00     0.069 A 
HETATM   13  C   UNL     1      43.280  -9.535  13.292  1.00  0.00     0.043 A 
HETATM   14  C   UNL     1      42.297  -9.786  14.259  1.00  0.00    -0.059 A 
HETATM   15  C   UNL     1      42.374  -9.158  15.619  1.00  0.00     0.048 C 
HETATM   16  C   UNL     1      41.247 -10.664  13.954  1.00  0.00     0.007 A 
HETATM   17  C   UNL     1      41.182 -11.285  12.706  1.00  0.00     0.003 A 
HETATM   18  C   UNL     1      42.166 -11.032  11.751  1.00  0.00     0.037 A 
ENDBRANCH  11  12
ENDBRANCH  10  11
ENDBRANCH   7  10
ENDBRANCH   5   6
ENDBRANCH   1   5
BRANCH   2  19
HETATM   19  N   UNL     1      43.834 -16.103   6.414  1.00  0.00    -0.166 NA
HETATM   20  C   UNL     1      43.462 -16.362   5.203  1.00  0.00     0.157 A 
HETATM   21  C   UNL     1      42.748 -15.453   4.198  1.00  0.00     0.277 A 
HETATM   22  C   UNL     1      43.676 -17.630   4.516  1.00  0.00     0.028 A 
HETATM   23  O   UNL     1      42.372 -14.322   4.420  1.00  0.00    -0.266 OA
HETATM   24  N   UNL     1      42.641 -16.198   3.042  1.00  0.00    -0.321 N 
HETATM   25  C   UNL     1      43.170 -17.474   3.226  1.00  0.00     0.048 A 
HETATM   26  H   UNL     1      42.205 -15.854   2.199  1.00  0.00     0.169 HD
HETATM   27  C   UNL     1      43.209 -18.508   2.315  1.00  0.00     0.032 A 
HETATM   28  C   UNL     1      43.763 -19.721   2.743  1.00  0.00     0.021 A 
HETATM   29  C   UNL     1      44.260 -19.868   4.055  1.00  0.00     0.012 A 
HETATM   30 BR   UNL     1      44.976 -21.536   4.592  1.00  0.00    -0.051 Br
HETATM   31  C   UNL     1      44.226 -18.813   4.966  1.00  0.00     0.035 A 
ENDBRANCH   2  19
TORSDOF 6
ENDMDL
MODEL 3
REMARK VINA RESULT:      -9.0      1.467      2.065
REMARK  6 active torsions:
REMARK  status: ('A' for Active; 'I' for Inactive)
REMARK    1  A    between atoms: C_4  and  O_5 
REMARK    2  A    between atoms: O_5  and  C_6 
REMARK    3  A    between atoms: C_6  and  C_7 
REMARK       I    between atoms: C_7  and  N_8 
REMARK    4  A    between atoms: N_8  and  C_9 
REMARK    5  A    between atoms: C_9  and  C_10 
REMARK       I    between atoms: C_10  and  N_11 
REMARK    6  A    between atoms: N_11  and  N_12 
ROOT
HETATM    1  C   UNL     1      42.952 -14.724   4.858  1.00  0.00     0.255 C 
HETATM    2  N   UNL     1      43.647 -15.772   5.430  1.00  0.00    -0.245 N 
HETATM    3  O   UNL     1      42.222 -14.823   3.868  1.00  0.00    -0.270 OA
HETATM    4  H   UNL     1      44.264 -15.585   6.221  1.00  0.00     0.192 HD
ENDROOT
BRANCH   1   5
HETATM    5  C   UNL     1      43.057 -13.395   5.614  1.00  0.00     0.227 C 
BRANCH   5   6
HETATM    6  N   UNL     1      43.297 -13.412   7.053  1.00  0.00    -0.350 N 
HETATM    7  C   UNL     1      44.599 -13.321   7.519  1.00  0.00     0.242 C 
HETATM    8  O   UNL     1      45.570 -13.616   6.829  1.00  0.00    -0.271 OA
HETATM    9  H   UNL     1      42.625 -12.890   7.606  1.00  0.00     0.163 HD
BRANCH   7  10
HETATM   10  C   UNL     1      44.725 -12.835   8.956  1.00  0.00     0.278 C 
BRANCH  10  11
HETATM   11  O   UNL     1      44.806 -11.409   8.889  1.00  0.00    -0.342 OA
BRANCH  11  12
HETATM   12  C   UNL     1      43.901 -10.802   9.718  1.00  0.00     0.069 A 
HETATM   13  C   UNL     1      44.196 -10.495  11.046  1.00  0.00     0.043 A 
HETATM   14  C   UNL     1      43.223  -9.905  11.864  1.00  0.00    -0.059 A 
HETATM   15  C   UNL     1      43.513  -9.584  13.300  1.00  0.00     0.048 C 
HETATM   16  C   UNL     1      41.951  -9.646  11.334  1.00  0.00     0.007 A 
HETATM   17  C   UNL     1      41.654  -9.973  10.010  1.00  0.00     0.003 A 
HETATM   18  C   UNL     1      42.627 -10.561   9.204  1.00  0.00     0.037 A 
ENDBRANCH  11  12
ENDBRANCH  10  11
ENDBRANCH   7  10
ENDBRANCH   5   6
ENDBRANCH   1   5
BRANCH   2  19
HETATM   19  N   UNL     1      43.740 -16.963   4.767  1.00  0.00    -0.166 NA
HETATM   20  C   UNL     1      43.913 -18.023   5.487  1.00  0.00     0.157 A 
HETATM   21  C   UNL     1      43.956 -18.157   7.012  1.00  0.00     0.277 A 
HETATM   22  C   UNL     1      44.094 -19.371   4.961  1.00  0.00     0.028 A 
HETATM   23  O   UNL     1      43.875 -17.238   7.799  1.00  0.00    -0.266 OA
HETATM   24  N   UNL     1      44.106 -19.507   7.257  1.00  0.00    -0.321 N 
HETATM   25  C   UNL     1      44.198 -20.218   6.063  1.00  0.00     0.048 A 
HETATM   26  H   UNL     1      44.169 -19.898   8.186  1.00  0.00     0.169 HD
HETATM   27  C   UNL     1      44.389 -21.574   5.904  1.00  0.00     0.032 A 
HETATM   28  C   UNL     1      44.487 -22.061   4.594  1.00  0.00     0.021 A 
HETATM   29  C   UNL     1      44.392 -21.189   3.489  1.00  0.00     0.012 A 
HETATM   30 BR   UNL     1      44.556 -21.893   1.740  1.00  0.00    -0.051 Br
HETATM   31  C   UNL     1      44.187 -19.820   3.659  1.00  0.00     0.035 A 
ENDBRANCH   2  19
TORSDOF 6
ENDMDL
MODEL 4
REMARK VINA RESULT:      -9.0      5.784      9.922
REMARK  6 active torsions:
REMARK  status: ('A' for Active; 'I' for Inactive)
REMARK    1  A    between atoms: C_4  and  O_5 
REMARK    2  A    between atoms: O_5  and  C_6 
REMARK    3  A    between atoms: C_6  and  C_7 
REMARK       I    between atoms: C_7  and  N_8 
REMARK    4  A    between atoms: N_8  and  C_9 
REMARK    5  A    between atoms: C_9  and  C_10 
REMARK       I    between atoms: C_10  and  N_11 
REMARK    6  A    between atoms: N_11  and  N_12 
ROOT
HETATM    1  C   UNL     1      43.268 -13.877   4.035  1.00  0.00     0.255 C 
HETATM    2  N   UNL     1      42.047 -13.710   3.409  1.00  0.00    -0.245 N 
HETATM    3  O   UNL     1      44.356 -13.571   3.542  1.00  0.00    -0.270 OA
HETATM    4  H   UNL     1      41.200 -14.036   3.878  1.00  0.00     0.192 HD
ENDROOT
BRANCH   1   5
HETATM    5  C   UNL     1      43.185 -14.387   5.478  1.00  0.00     0.227 C 
BRANCH   5   6
HETATM    6  N   UNL     1      43.450 -15.796   5.751  1.00  0.00    -0.350 N 
HETATM    7  C   UNL     1      42.380 -16.661   5.920  1.00  0.00     0.242 C 
HETATM    8  O   UNL     1      41.260 -16.273   6.240  1.00  0.00    -0.271 OA
HETATM    9  H   UNL     1      44.225 -16.196   5.232  1.00  0.00     0.163 HD
BRANCH   7  10
HETATM   10  C   UNL     1      42.709 -18.129   5.686  1.00  0.00     0.278 C 
BRANCH  10  11
HETATM   11  O   UNL     1      43.641 -18.160   4.602  1.00  0.00    -0.342 OA
BRANCH  11  12
HETATM   12  C   UNL     1      44.025 -19.435   4.288  1.00  0.00     0.069 A 
HETATM   13  C   UNL     1      43.888 -19.960   3.003  1.00  0.00     0.043 A 
HETATM   14  C   UNL     1      44.263 -21.285   2.741  1.00  0.00    -0.059 A 
HETATM   15  C   UNL     1      44.105 -21.875   1.371  1.00  0.00     0.048 C 
HETATM   16  C   UNL     1      44.760 -22.074   3.787  1.00  0.00     0.007 A 
HETATM   17  C   UNL     1      44.877 -21.551   5.076  1.00  0.00     0.003 A 
HETATM   18  C   UNL     1      44.500 -20.233   5.328  1.00  0.00     0.037 A 
ENDBRANCH  11  12
ENDBRANCH  10  11
ENDBRANCH   7  10
ENDBRANCH   5   6
ENDBRANCH   1   5
BRANCH   2  19
HETATM   19  N   UNL     1      42.005 -13.397   2.080  1.00  0.00    -0.166 NA
HETATM   20  C   UNL     1      41.648 -14.337   1.267  1.00  0.00     0.157 A 
HETATM   21  C   UNL     1      41.181 -15.761   1.584  1.00  0.00     0.277 A 
HETATM   22  C   UNL     1      41.601 -14.213  -0.185  1.00  0.00     0.028 A 
HETATM   23  O   UNL     1      41.120 -16.249   2.693  1.00  0.00    -0.266 OA
HETATM   24  N   UNL     1      40.868 -16.323   0.363  1.00  0.00    -0.321 N 
HETATM   25  C   UNL     1      41.123 -15.428  -0.673  1.00  0.00     0.048 A 
HETATM   26  H   UNL     1      40.531 -17.269   0.259  1.00  0.00     0.169 HD
HETATM   27  C   UNL     1      40.970 -15.642  -2.026  1.00  0.00     0.032 A 
HETATM   28  C   UNL     1      41.327 -14.596  -2.887  1.00  0.00     0.021 A 
HETATM   29  C   UNL     1      41.822 -13.376  -2.379  1.00  0.00     0.012 A 
HETATM   30 BR   UNL     1      42.314 -12.004  -3.585  1.00  0.00    -0.051 Br
HETATM   31  C   UNL     1      41.963 -13.165  -1.008  1.00  0.00     0.035 A 
ENDBRANCH   2  19
TORSDOF 6
ENDMDL
MODEL 5
REMARK VINA RESULT:      -8.9      5.246      9.419
REMARK  6 active torsions:
REMARK  status: ('A' for Active; 'I' for Inactive)
REMARK    1  A    between atoms: C_4  and  O_5 
REMARK    2  A    between atoms: O_5  and  C_6 
REMARK    3  A    between atoms: C_6  and  C_7 
REMARK       I    between atoms: C_7  and  N_8 
REMARK    4  A    between atoms: N_8  and  C_9 
REMARK    5  A    between atoms: C_9  and  C_10 
REMARK       I    between atoms: C_10  and  N_11 
REMARK    6  A    between atoms: N_11  and  N_12 
ROOT
HETATM    1  C   UNL     1      43.680 -14.159   5.929  1.00  0.00     0.255 C 
HETATM    2  N   UNL     1      42.324 -13.927   6.061  1.00  0.00    -0.245 N 
HETATM    3  O   UNL     1      44.396 -13.657   5.059  1.00  0.00    -0.270 OA
HETATM    4  H   UNL     1      41.804 -14.424   6.786  1.00  0.00     0.192 HD
ENDROOT
BRANCH   1   5
HETATM    5  C   UNL     1      44.294 -15.027   7.033  1.00  0.00     0.227 C 
BRANCH   5   6
HETATM    6  N   UNL     1      44.603 -16.425   6.751  1.00  0.00    -0.350 N 
HETATM    7  C   UNL     1      43.778 -17.413   7.266  1.00  0.00     0.242 C 
HETATM    8  O   UNL     1      43.055 -17.229   8.240  1.00  0.00    -0.271 OA
HETATM    9  H   UNL     1      44.928 -16.611   5.807  1.00  0.00     0.163 HD
BRANCH   7  10
HETATM   10  C   UNL     1      43.850 -18.744   6.531  1.00  0.00     0.278 C 
BRANCH  10  11
HETATM   11  O   UNL     1      44.820 -18.576   5.495  1.00  0.00    -0.342 OA
BRANCH  11  12
HETATM   12  C   UNL     1      44.344 -18.968   4.273  1.00  0.00     0.069 A 
HETATM   13  C   UNL     1      44.565 -20.247   3.762  1.00  0.00     0.043 A 
HETATM   14  C   UNL     1      44.088 -20.588   2.490  1.00  0.00    -0.059 A 
HETATM   15  C   UNL     1      44.331 -21.951   1.914  1.00  0.00     0.048 C 
HETATM   16  C   UNL     1      43.403 -19.625   1.735  1.00  0.00     0.007 A 
HETATM   17  C   UNL     1      43.201 -18.340   2.243  1.00  0.00     0.003 A 
HETATM   18  C   UNL     1      43.681 -18.008   3.508  1.00  0.00     0.037 A 
ENDBRANCH  11  12
ENDBRANCH  10  11
ENDBRANCH   7  10
ENDBRANCH   5   6
ENDBRANCH   1   5
BRANCH   2  19
HETATM   19  N   UNL     1      41.647 -13.288   5.063  1.00  0.00    -0.166 NA
HETATM   20  C   UNL     1      40.959 -14.025   4.254  1.00  0.00     0.157 A 
HETATM   21  C   UNL     1      40.724 -15.539   4.292  1.00  0.00     0.277 A 
HETATM   22  C   UNL     1      40.222 -13.534   3.096  1.00  0.00     0.028 A 
HETATM   23  O   UNL     1      41.209 -16.304   5.099  1.00  0.00    -0.266 OA
HETATM   24  N   UNL     1      39.875 -15.804   3.237  1.00  0.00    -0.321 N 
HETATM   25  C   UNL     1      39.589 -14.639   2.529  1.00  0.00     0.048 A 
HETATM   26  H   UNL     1      39.545 -16.731   3.011  1.00  0.00     0.169 HD
HETATM   27  C   UNL     1      38.810 -14.512   1.398  1.00  0.00     0.032 A 
HETATM   28  C   UNL     1      38.695 -13.234   0.837  1.00  0.00     0.021 A 
HETATM   29  C   UNL     1      39.352 -12.127   1.415  1.00  0.00     0.012 A 
HETATM   30 BR   UNL     1      39.185 -10.426   0.604  1.00  0.00    -0.051 Br
HETATM   31  C   UNL     1      40.128 -12.263   2.565  1.00  0.00     0.035 A 
ENDBRANCH   2  19
TORSDOF 6
ENDMDL
MODEL 6
REMARK VINA RESULT:      -8.9      6.206     10.143
REMARK  6 active torsions:
REMARK  status: ('A' for Active; 'I' for Inactive)
REMARK    1  A    between atoms: C_4  and  O_5 
REMARK    2  A    between atoms: O_5  and  C_6 
REMARK    3  A    between atoms: C_6  and  C_7 
REMARK       I    between atoms: C_7  and  N_8 
REMARK    4  A    between atoms: N_8  and  C_9 
REMARK    5  A    between atoms: C_9  and  C_10 
REMARK       I    between atoms: C_10  and  N_11 
REMARK    6  A    between atoms: N_11  and  N_12 
ROOT
HETATM    1  C   UNL     1      40.624 -15.172   4.736  1.00  0.00     0.255 C 
HETATM    2  N   UNL     1      40.274 -15.918   3.627  1.00  0.00    -0.245 N 
HETATM    3  O   UNL     1      40.359 -13.977   4.890  1.00  0.00    -0.270 OA
HETATM    4  H   UNL     1      40.577 -16.891   3.568  1.00  0.00     0.192 HD
ENDROOT
BRANCH   1   5
HETATM    5  C   UNL     1      41.296 -15.969   5.860  1.00  0.00     0.227 C 
BRANCH   5   6
HETATM    6  N   UNL     1      42.655 -16.465   5.667  1.00  0.00    -0.350 N 
HETATM    7  C   UNL     1      43.228 -17.255   6.651  1.00  0.00     0.242 C 
HETATM    8  O   UNL     1      42.841 -17.245   7.816  1.00  0.00    -0.271 OA
HETATM    9  H   UNL     1      42.873 -16.762   4.721  1.00  0.00     0.163 HD
BRANCH   7  10
HETATM   10  C   UNL     1      44.381 -18.126   6.172  1.00  0.00     0.278 C 
BRANCH  10  11
HETATM   11  O   UNL     1      44.167 -18.337   4.774  1.00  0.00    -0.342 OA
BRANCH  11  12
HETATM   12  C   UNL     1      44.342 -19.646   4.417  1.00  0.00     0.069 A 
HETATM   13  C   UNL     1      44.180 -20.088   3.104  1.00  0.00     0.043 A 
HETATM   14  C   UNL     1      44.335 -21.446   2.796  1.00  0.00    -0.059 A 
HETATM   15  C   UNL     1      44.148 -21.946   1.393  1.00  0.00     0.048 C 
HETATM   16  C   UNL     1      44.635 -22.351   3.824  1.00  0.00     0.007 A 
HETATM   17  C   UNL     1      44.776 -21.907   5.139  1.00  0.00     0.003 A 
HETATM   18  C   UNL     1      44.619 -20.555   5.438  1.00  0.00     0.037 A 
ENDBRANCH  11  12
ENDBRANCH  10  11
ENDBRANCH   7  10
ENDBRANCH   5   6
ENDBRANCH   1   5
BRANCH   2  19
HETATM   19  N   UNL     1      39.800 -15.289   2.511  1.00  0.00    -0.166 NA
HETATM   20  C   UNL     1      40.471 -15.448   1.418  1.00  0.00     0.157 A 
HETATM   21  C   UNL     1      41.707 -16.317   1.162  1.00  0.00     0.277 A 
HETATM   22  C   UNL     1      40.158 -14.812   0.144  1.00  0.00     0.028 A 
HETATM   23  O   UNL     1      42.286 -16.976   1.999  1.00  0.00    -0.266 OA
HETATM   24  N   UNL     1      41.986 -16.170  -0.181  1.00  0.00    -0.321 N 
HETATM   25  C   UNL     1      41.092 -15.283  -0.777  1.00  0.00     0.048 A 
HETATM   26  H   UNL     1      42.759 -16.629  -0.640  1.00  0.00     0.169 HD
HETATM   27  C   UNL     1      41.077 -14.859  -2.089  1.00  0.00     0.032 A 
HETATM   28  C   UNL     1      40.095 -13.928  -2.452  1.00  0.00     0.021 A 
HETATM   29  C   UNL     1      39.164 -13.450  -1.506  1.00  0.00     0.012 A 
HETATM   30 BR   UNL     1      37.873 -12.174  -2.041  1.00  0.00    -0.051 Br
HETATM   31  C   UNL     1      39.181 -13.893  -0.183  1.00  0.00     0.035 A 
ENDBRANCH   2  19
TORSDOF 6
ENDMDL
MODEL 7
REMARK VINA RESULT:      -8.8      6.300     10.260
REMARK  6 active torsions:
REMARK  status: ('A' for Active; 'I' for Inactive)
REMARK    1  A    between atoms: C_4  and  O_5 
REMARK    2  A    between atoms: O_5  and  C_6 
REMARK    3  A    between atoms: C_6  and  C_7 
REMARK       I    between atoms: C_7  and  N_8 
REMARK    4  A    between atoms: N_8  and  C_9 
REMARK    5  A    between atoms: C_9  and  C_10 
REMARK       I    between atoms: C_10  and  N_11 
REMARK    6  A    between atoms: N_11  and  N_12 
ROOT
HETATM    1  C   UNL     1      40.570 -14.472   4.509  1.00  0.00     0.255 C 
HETATM    2  N   UNL     1      39.867 -15.084   3.489  1.00  0.00    -0.245 N 
HETATM    3  O   UNL     1      40.914 -13.287   4.512  1.00  0.00    -0.270 OA
HETATM    4  H   UNL     1      39.666 -16.082   3.555  1.00  0.00     0.192 HD
ENDROOT
BRANCH   1   5
HETATM    5  C   UNL     1      40.819 -15.355   5.737  1.00  0.00     0.227 C 
BRANCH   5   6
HETATM    6  N   UNL     1      42.118 -15.999   5.899  1.00  0.00    -0.350 N 
HETATM    7  C   UNL     1      42.293 -17.289   5.422  1.00  0.00     0.242 C 
HETATM    8  O   UNL     1      41.355 -18.056   5.231  1.00  0.00    -0.271 OA
HETATM    9  H   UNL     1      42.919 -15.393   5.752  1.00  0.00     0.163 HD
BRANCH   7  10
HETATM   10  C   UNL     1      43.743 -17.676   5.163  1.00  0.00     0.278 C 
BRANCH  10  11
HETATM   11  O   UNL     1      43.842 -17.932   3.760  1.00  0.00    -0.342 OA
BRANCH  11  12
HETATM   12  C   UNL     1      44.005 -19.263   3.488  1.00  0.00     0.069 A 
HETATM   13  C   UNL     1      44.508 -20.160   4.430  1.00  0.00     0.043 A 
HETATM   14  C   UNL     1      44.690 -21.508   4.091  1.00  0.00    -0.059 A 
HETATM   15  C   UNL     1      45.247 -22.485   5.082  1.00  0.00     0.048 C 
HETATM   16  C   UNL     1      44.375 -21.934   2.792  1.00  0.00     0.007 A 
HETATM   17  C   UNL     1      43.891 -21.029   1.847  1.00  0.00     0.003 A 
HETATM   18  C   UNL     1      43.715 -19.690   2.193  1.00  0.00     0.037 A 
ENDBRANCH  11  12
ENDBRANCH  10  11
ENDBRANCH   7  10
ENDBRANCH   5   6
ENDBRANCH   1   5
BRANCH   2  19
HETATM   19  N   UNL     1      39.712 -14.440   2.294  1.00  0.00    -0.166 NA
HETATM   20  C   UNL     1      40.243 -14.996   1.255  1.00  0.00     0.157 A 
HETATM   21  C   UNL     1      40.974 -16.338   1.146  1.00  0.00     0.277 A 
HETATM   22  C   UNL     1      40.235 -14.434  -0.090  1.00  0.00     0.028 A 
HETATM   23  O   UNL     1      41.210 -17.085   2.073  1.00  0.00    -0.266 OA
HETATM   24  N   UNL     1      41.286 -16.478  -0.190  1.00  0.00    -0.321 N 
HETATM   25  C   UNL     1      40.867 -15.364  -0.914  1.00  0.00     0.048 A 
HETATM   26  H   UNL     1      41.779 -17.276  -0.564  1.00  0.00     0.169 HD
HETATM   27  C   UNL     1      41.034 -15.125  -2.262  1.00  0.00     0.032 A 
HETATM   28  C   UNL     1      40.557 -13.907  -2.763  1.00  0.00     0.021 A 
HETATM   29  C   UNL     1      39.931 -12.970  -1.914  1.00  0.00     0.012 A 
HETATM   30 BR   UNL     1      39.326 -11.329  -2.636  1.00  0.00    -0.051 Br
HETATM   31  C   UNL     1      39.756 -13.226  -0.555  1.00  0.00     0.035 A 
ENDBRANCH   2  19
TORSDOF 6
ENDMDL
MODEL 8
REMARK VINA RESULT:      -8.6      2.842      4.052
REMARK  6 active torsions:
REMARK  status: ('A' for Active; 'I' for Inactive)
REMARK    1  A    between atoms: C_4  and  O_5 
REMARK    2  A    between atoms: O_5  and  C_6 
REMARK    3  A    between atoms: C_6  and  C_7 
REMARK       I    between atoms: C_7  and  N_8 
REMARK    4  A    between atoms: N_8  and  C_9 
REMARK    5  A    between atoms: C_9  and  C_10 
REMARK       I    between atoms: C_10  and  N_11 
REMARK    6  A    between atoms: N_11  and  N_12 
ROOT
HETATM    1  C   UNL     1      41.189 -14.482   5.704  1.00  0.00     0.255 C 
HETATM    2  N   UNL     1      42.523 -14.671   5.394  1.00  0.00    -0.245 N 
HETATM    3  O   UNL     1      40.435 -15.364   6.121  1.00  0.00    -0.270 OA
HETATM    4  H   UNL     1      43.058 -13.890   5.011  1.00  0.00     0.192 HD
ENDROOT
BRANCH   1   5
HETATM    5  C   UNL     1      40.704 -13.032   5.597  1.00  0.00     0.227 C 
BRANCH   5   6
HETATM    6  N   UNL     1      41.247 -12.030   6.508  1.00  0.00    -0.350 N 
HETATM    7  C   UNL     1      40.373 -11.217   7.212  1.00  0.00     0.242 C 
HETATM    8  O   UNL     1      39.220 -11.013   6.845  1.00  0.00    -0.271 OA
HETATM    9  H   UNL     1      42.053 -12.331   7.046  1.00  0.00     0.163 HD
BRANCH   7  10
HETATM   10  C   UNL     1      40.962 -10.593   8.469  1.00  0.00     0.278 C 
BRANCH  10  11
HETATM   11  O   UNL     1      42.352 -10.395   8.202  1.00  0.00    -0.342 OA
BRANCH  11  12
HETATM   12  C   UNL     1      43.132 -10.665   9.294  1.00  0.00     0.069 A 
HETATM   13  C   UNL     1      42.883 -10.100  10.545  1.00  0.00     0.043 A 
HETATM   14  C   UNL     1      43.732 -10.380  11.624  1.00  0.00    -0.059 A 
HETATM   15  C   UNL     1      43.493  -9.768  12.973  1.00  0.00     0.048 C 
HETATM   16  C   UNL     1      44.838 -11.218  11.424  1.00  0.00     0.007 A 
HETATM   17  C   UNL     1      45.094 -11.765  10.166  1.00  0.00     0.003 A 
HETATM   18  C   UNL     1      44.246 -11.480   9.098  1.00  0.00     0.037 A 
ENDBRANCH  11  12
ENDBRANCH  10  11
ENDBRANCH   7  10
ENDBRANCH   5   6
ENDBRANCH   1   5
BRANCH   2  19
HETATM   19  N   UNL     1      43.027 -15.938   5.318  1.00  0.00    -0.166 NA
HETATM   20  C   UNL     1      43.204 -16.429   4.135  1.00  0.00     0.157 A 
HETATM   21  C   UNL     1      42.998 -15.760   2.772  1.00  0.00     0.277 A 
HETATM   22  C   UNL     1      43.674 -17.779   3.852  1.00  0.00     0.028 A 
HETATM   23  O   UNL     1      42.577 -14.636   2.599  1.00  0.00    -0.266 OA
HETATM   24  N   UNL     1      43.385 -16.701   1.840  1.00  0.00    -0.321 N 
HETATM   25  C   UNL     1      43.768 -17.886   2.465  1.00  0.00     0.048 A 
HETATM   26  H   UNL     1      43.355 -16.540   0.844  1.00  0.00     0.169 HD
HETATM   27  C   UNL     1      44.179 -19.058   1.866  1.00  0.00     0.032 A 
HETATM   28  C   UNL     1      44.483 -20.137   2.707  1.00  0.00     0.021 A 
HETATM   29  C   UNL     1      44.370 -20.018   4.108  1.00  0.00     0.012 A 
HETATM   30 BR   UNL     1      44.767 -21.514   5.197  1.00  0.00    -0.051 Br
HETATM   31  C   UNL     1      43.964 -18.825   4.705  1.00  0.00     0.035 A 
ENDBRANCH   2  19
TORSDOF 6
ENDMDL
MODEL 9
REMARK VINA RESULT:      -8.6      1.704      2.429
REMARK  6 active torsions:
REMARK  status: ('A' for Active; 'I' for Inactive)
REMARK    1  A    between atoms: C_4  and  O_5 
REMARK    2  A    between atoms: O_5  and  C_6 
REMARK    3  A    between atoms: C_6  and  C_7 
REMARK       I    between atoms: C_7  and  N_8 
REMARK    4  A    between atoms: N_8  and  C_9 
REMARK    5  A    between atoms: C_9  and  C_10 
REMARK       I    between atoms: C_10  and  N_11 
REMARK    6  A    between atoms: N_11  and  N_12 
ROOT
HETATM    1  C   UNL     1      45.103 -13.346   7.434  1.00  0.00     0.255 C 
HETATM    2  N   UNL     1      43.877 -13.908   7.134  1.00  0.00    -0.245 N 
HETATM    3  O   UNL     1      46.058 -13.288   6.655  1.00  0.00    -0.270 OA
HETATM    4  H   UNL     1      43.160 -13.951   7.860  1.00  0.00     0.192 HD
ENDROOT
BRANCH   1   5
HETATM    5  C   UNL     1      45.183 -12.676   8.810  1.00  0.00     0.227 C 
BRANCH   5   6
HETATM    6  N   UNL     1      43.965 -12.151   9.419  1.00  0.00    -0.350 N 
HETATM    7  C   UNL     1      43.834 -12.184  10.798  1.00  0.00     0.242 C 
HETATM    8  O   UNL     1      44.475 -12.957  11.504  1.00  0.00    -0.271 OA
HETATM    9  H   UNL     1      43.601 -11.306   8.991  1.00  0.00     0.163 HD
BRANCH   7  10
HETATM   10  C   UNL     1      42.827 -11.192  11.363  1.00  0.00     0.278 C 
BRANCH  10  11
HETATM   11  O   UNL     1      43.039 -11.170  12.776  1.00  0.00    -0.342 OA
BRANCH  11  12
HETATM   12  C   UNL     1      42.232 -10.261  13.405  1.00  0.00     0.069 A 
HETATM   13  C   UNL     1      41.070  -9.762  12.815  1.00  0.00     0.043 A 
HETATM   14  C   UNL     1      40.297  -8.805  13.486  1.00  0.00    -0.059 A 
HETATM   15  C   UNL     1      39.054  -8.242  12.862  1.00  0.00     0.048 C 
HETATM   16  C   UNL     1      40.715  -8.347  14.743  1.00  0.00     0.007 A 
HETATM   17  C   UNL     1      41.888  -8.835  15.321  1.00  0.00     0.003 A 
HETATM   18  C   UNL     1      42.653  -9.785  14.646  1.00  0.00     0.037 A 
ENDBRANCH  11  12
ENDBRANCH  10  11
ENDBRANCH   7  10
ENDBRANCH   5   6
ENDBRANCH   1   5
BRANCH   2  19
HETATM   19  N   UNL     1      43.734 -14.653   5.998  1.00  0.00    -0.166 NA
HETATM   20  C   UNL     1      43.660 -15.936   6.143  1.00  0.00     0.157 A 
HETATM   21  C   UNL     1      43.634 -16.761   7.434  1.00  0.00     0.277 A 
HETATM   22  C   UNL     1      43.567 -16.897   5.051  1.00  0.00     0.028 A 
HETATM   23  O   UNL     1      43.727 -16.310   8.556  1.00  0.00    -0.266 OA
HETATM   24  N   UNL     1      43.489 -18.071   7.027  1.00  0.00    -0.321 N 
HETATM   25  C   UNL     1      43.461 -18.157   5.637  1.00  0.00     0.048 A 
HETATM   26  H   UNL     1      43.443 -18.849   7.670  1.00  0.00     0.169 HD
HETATM   27  C   UNL     1      43.366 -19.296   4.867  1.00  0.00     0.032 A 
HETATM   28  C   UNL     1      43.394 -19.135   3.475  1.00  0.00     0.021 A 
HETATM   29  C   UNL     1      43.514 -17.854   2.896  1.00  0.00     0.012 A 
HETATM   30 BR   UNL     1      43.573 -17.693   1.012  1.00  0.00    -0.051 Br
HETATM   31  C   UNL     1      43.599 -16.707   3.684  1.00  0.00     0.035 A 
ENDBRANCH   2  19
TORSDOF 6
ENDMDL
MODEL 10
REMARK VINA RESULT:      -8.5      3.356      4.208
REMARK  6 active torsions:
REMARK  status: ('A' for Active; 'I' for Inactive)
REMARK    1  A    between atoms: C_4  and  O_5 
REMARK    2  A    between atoms: O_5  and  C_6 
REMARK    3  A    between atoms: C_6  and  C_7 
REMARK       I    between atoms: C_7  and  N_8 
REMARK    4  A    between atoms: N_8  and  C_9 
REMARK    5  A    between atoms: C_9  and  C_10 
REMARK       I    between atoms: C_10  and  N_11 
REMARK    6  A    between atoms: N_11  and  N_12 
ROOT
HETATM    1  C   UNL     1      40.632 -13.787   5.821  1.00  0.00     0.255 C 
HETATM    2  N   UNL     1      40.222 -15.057   5.458  1.00  0.00    -0.245 N 
HETATM    3  O   UNL     1      41.802 -13.400   5.816  1.00  0.00    -0.270 OA
HETATM    4  H   UNL     1      39.234 -15.300   5.538  1.00  0.00     0.192 HD
ENDROOT
BRANCH   1   5
HETATM    5  C   UNL     1      39.493 -12.813   6.142  1.00  0.00     0.227 C 
BRANCH   5   6
HETATM    6  N   UNL     1      39.763 -11.656   6.990  1.00  0.00    -0.350 N 
HETATM    7  C   UNL     1      39.480 -11.735   8.344  1.00  0.00     0.242 C 
HETATM    8  O   UNL     1      38.676 -12.539   8.806  1.00  0.00    -0.271 OA
HETATM    9  H   UNL     1      40.622 -11.160   6.777  1.00  0.00     0.163 HD
BRANCH   7  10
HETATM   10  C   UNL     1      40.240 -10.739   9.209  1.00  0.00     0.278 C 
BRANCH  10  11
HETATM   11  O   UNL     1      40.235 -11.276  10.534  1.00  0.00    -0.342 OA
BRANCH  11  12
HETATM   12  C   UNL     1      41.331 -10.883  11.254  1.00  0.00     0.069 A 
HETATM   13  C   UNL     1      41.281 -10.671  12.632  1.00  0.00     0.043 A 
HETATM   14  C   UNL     1      42.422 -10.234  13.317  1.00  0.00    -0.059 A 
HETATM   15  C   UNL     1      42.384  -9.982  14.796  1.00  0.00     0.048 C 
HETATM   16  C   UNL     1      43.603  -9.999  12.600  1.00  0.00     0.007 A 
HETATM   17  C   UNL     1      43.643 -10.194  11.218  1.00  0.00     0.003 A 
HETATM   18  C   UNL     1      42.503 -10.627  10.543  1.00  0.00     0.037 A 
ENDBRANCH  11  12
ENDBRANCH  10  11
ENDBRANCH   7  10
ENDBRANCH   5   6
ENDBRANCH   1   5
BRANCH   2  19
HETATM   19  N   UNL     1      41.150 -16.044   5.289  1.00  0.00    -0.166 NA
HETATM   20  C   UNL     1      41.326 -16.484   4.086  1.00  0.00     0.157 A 
HETATM   21  C   UNL     1      40.688 -16.002   2.779  1.00  0.00     0.277 A 
HETATM   22  C   UNL     1      42.225 -17.570   3.716  1.00  0.00     0.028 A 
HETATM   23  O   UNL     1      39.853 -15.126   2.688  1.00  0.00    -0.266 OA
HETATM   24  N   UNL     1      41.262 -16.769   1.787  1.00  0.00    -0.321 N 
HETATM   25  C   UNL     1      42.151 -17.694   2.330  1.00  0.00     0.048 A 
HETATM   26  H   UNL     1      41.030 -16.675   0.809  1.00  0.00     0.169 HD
HETATM   27  C   UNL     1      42.883 -18.651   1.659  1.00  0.00     0.032 A 
HETATM   28  C   UNL     1      43.690 -19.499   2.428  1.00  0.00     0.021 A 
HETATM   29  C   UNL     1      43.745 -19.370   3.832  1.00  0.00     0.012 A 
HETATM   30 BR   UNL     1      44.831 -20.558   4.828  1.00  0.00    -0.051 Br
HETATM   31  C   UNL     1      43.010 -18.392   4.501  1.00  0.00     0.035 A 
ENDBRANCH   2  19
TORSDOF 6
ENDMDL
