MODEL 1
REMARK VINA RESULT:      -8.7      0.000      0.000
REMARK  7 active torsions:
REMARK  status: ('A' for Active; 'I' for Inactive)
REMARK    1  A    between atoms: C_6  and  C_7 
REMARK    2  A    between atoms: N_13  and  C_15 
REMARK    3  A    between atoms: C_15  and  C_16 
REMARK    4  A    between atoms: C_16  and  N_17 
REMARK       I    between atoms: N_17  and  C_18 
REMARK    5  A    between atoms: C_18  and  C_19 
REMARK    6  A    between atoms: C_19  and  N_20 
REMARK    7  A    between atoms: C_19  and  C_27 
ROOT
HETATM    1  C   UNL     1      41.737 -16.398  -0.290  1.00  0.00     0.150 C 
ENDROOT
BRANCH   1   2
HETATM    2  C   UNL     1      41.134 -14.979  -0.394  1.00  0.00     0.255 C 
BRANCH   2   3
HETATM    3  N   UNL     1      41.838 -14.103  -1.419  1.00  0.00    -0.063 N 
HETATM    4  C   UNL     1      41.772 -12.596  -1.243  1.00  0.00     0.272 C 
HETATM    5  C   UNL     1      40.387 -11.921  -1.412  1.00  0.00     0.188 C 
HETATM    6  O   UNL     1      39.811 -12.060  -2.724  1.00  0.00    -0.339 OA
HETATM    7  C   UNL     1      39.290 -13.257  -3.103  1.00  0.00     0.077 A 
HETATM    8  C   UNL     1      40.013 -14.450  -3.141  1.00  0.00     0.001 A 
HETATM    9  C   UNL     1      37.971 -13.220  -3.566  1.00  0.00     0.037 A 
HETATM   10  C   UNL     1      39.359 -15.625  -3.557  1.00  0.00     0.012 A 
HETATM   11  C   UNL     1      41.475 -14.492  -2.838  1.00  0.00     0.276 C 
HETATM   12  C   UNL     1      38.023 -15.594  -3.959  1.00  0.00     0.001 A 
HETATM   13  C   UNL     1      37.333 -14.388  -3.977  1.00  0.00     0.003 A 
HETATM   14  H   UNL     1      42.837 -14.337  -1.358  1.00  0.00     0.280 HD
BRANCH   5  15
HETATM   15  C   UNL     1      39.468 -12.053  -0.202  1.00  0.00    -0.020 A 
HETATM   16  C   UNL     1      39.921 -11.850   1.096  1.00  0.00     0.059 A 
HETATM   17  S   UNL     1      38.716 -12.080   2.284  1.00  0.00    -0.113 SA
HETATM   18  C   UNL     1      37.532 -12.370   1.096  1.00  0.00     0.050 A 
HETATM   19  C   UNL     1      38.060 -12.337  -0.177  1.00  0.00     0.017 A 
ENDBRANCH   5  15
ENDBRANCH   2   3
ENDBRANCH   1   2
BRANCH   1  20
HETATM   20  N   UNL     1      42.677 -16.624   0.815  1.00  0.00    -0.357 N 
HETATM   21  C   UNL     1      42.328 -17.321   1.959  1.00  0.00     0.253 C 
HETATM   22  O   UNL     1      41.156 -17.597   2.202  1.00  0.00    -0.271 OA
HETATM   23  H   UNL     1      43.662 -16.583   0.560  1.00  0.00     0.162 HD
BRANCH  21  24
HETATM   24  C   UNL     1      43.500 -17.729   2.917  1.00  0.00     0.314 C 
BRANCH  24  25
HETATM   25  N   UNL     1      43.363 -17.208   4.364  1.00  0.00    -0.050 N 
HETATM   26  H   UNL     1      44.255 -17.431   4.826  1.00  0.00     0.281 HD
HETATM   27  C   UNL     1      43.194 -15.694   4.431  1.00  0.00     0.262 C 
HETATM   28  C   UNL     1      43.184 -15.240   5.895  1.00  0.00     0.195 C 
HETATM   29  O   UNL     1      42.141 -15.898   6.618  1.00  0.00    -0.388 OA
HETATM   30  C   UNL     1      42.320 -17.319   6.638  1.00  0.00     0.195 C 
HETATM   31  C   UNL     1      42.284 -17.890   5.214  1.00  0.00     0.262 C 
ENDBRANCH  24  25
BRANCH  24  32
HETATM   32  C   UNL     1      43.784 -19.213   2.875  1.00  0.00    -0.001 A 
HETATM   33  C   UNL     1      44.537 -19.850   3.860  1.00  0.00     0.126 A 
HETATM   34  N   UNL     1      44.843 -21.160   3.845  1.00  0.00    -0.272 NA
HETATM   35  C   UNL     1      44.395 -21.895   2.804  1.00  0.00     0.116 A 
HETATM   36  C   UNL     1      43.646 -21.363   1.771  1.00  0.00     0.020 A 
HETATM   37  C   UNL     1      43.339 -20.004   1.806  1.00  0.00     0.012 A 
ENDBRANCH  24  32
ENDBRANCH  21  24
ENDBRANCH   1  20
TORSDOF 7
ENDMDL
MODEL 2
REMARK VINA RESULT:      -8.6      2.135      3.875
REMARK  7 active torsions:
REMARK  status: ('A' for Active; 'I' for Inactive)
REMARK    1  A    between atoms: C_6  and  C_7 
REMARK    2  A    between atoms: N_13  and  C_15 
REMARK    3  A    between atoms: C_15  and  C_16 
REMARK    4  A    between atoms: C_16  and  N_17 
REMARK       I    between atoms: N_17  and  C_18 
REMARK    5  A    between atoms: C_18  and  C_19 
REMARK    6  A    between atoms: C_19  and  N_20 
REMARK    7  A    between atoms: C_19  and  C_27 
ROOT
HETATM    1  C   UNL     1      41.701 -16.349   0.268  1.00  0.00     0.150 C 
ENDROOT
BRANCH   1   2
HETATM    2  C   UNL     1      41.092 -14.930   0.330  1.00  0.00     0.255 C 
BRANCH   2   3
HETATM    3  N   UNL     1      39.571 -14.932   0.335  1.00  0.00    -0.063 N 
HETATM    4  C   UNL     1      38.849 -13.803  -0.379  1.00  0.00     0.272 C 
HETATM    5  C   UNL     1      38.988 -12.380   0.218  1.00  0.00     0.188 C 
HETATM    6  O   UNL     1      38.455 -12.235   1.548  1.00  0.00    -0.339 OA
HETATM    7  C   UNL     1      39.135 -12.760   2.602  1.00  0.00     0.077 A 
HETATM    8  C   UNL     1      39.463 -14.111   2.729  1.00  0.00     0.001 A 
HETATM    9  C   UNL     1      39.414 -11.868   3.642  1.00  0.00     0.037 A 
HETATM   10  C   UNL     1      40.167 -14.531   3.873  1.00  0.00     0.012 A 
HETATM   11  C   UNL     1      39.012 -15.126   1.730  1.00  0.00     0.276 C 
HETATM   12  C   UNL     1      40.499 -13.624   4.880  1.00  0.00     0.001 A 
HETATM   13  C   UNL     1      40.110 -12.294   4.771  1.00  0.00     0.003 A 
HETATM   14  H   UNL     1      39.284 -15.788  -0.156  1.00  0.00     0.280 HD
BRANCH   5  15
HETATM   15  C   UNL     1      40.302 -11.682  -0.113  1.00  0.00    -0.020 A 
HETATM   16  C   UNL     1      40.907 -11.794  -1.359  1.00  0.00     0.059 A 
HETATM   17  S   UNL     1      42.383 -10.945  -1.483  1.00  0.00    -0.113 SA
HETATM   18  C   UNL     1      42.217 -10.329   0.095  1.00  0.00     0.050 A 
HETATM   19  C   UNL     1      41.080 -10.801   0.715  1.00  0.00     0.017 A 
ENDBRANCH   5  15
ENDBRANCH   2   3
ENDBRANCH   1   2
BRANCH   1  20
HETATM   20  N   UNL     1      42.711 -16.667   1.284  1.00  0.00    -0.357 N 
HETATM   21  C   UNL     1      42.425 -17.419   2.411  1.00  0.00     0.253 C 
HETATM   22  O   UNL     1      41.265 -17.675   2.725  1.00  0.00    -0.271 OA
HETATM   23  H   UNL     1      43.676 -16.639   0.959  1.00  0.00     0.162 HD
BRANCH  21  24
HETATM   24  C   UNL     1      43.649 -17.917   3.253  1.00  0.00     0.314 C 
BRANCH  24  25
HETATM   25  N   UNL     1      43.629 -17.491   4.737  1.00  0.00    -0.050 N 
HETATM   26  H   UNL     1      44.555 -17.736   5.110  1.00  0.00     0.281 HD
HETATM   27  C   UNL     1      43.462 -15.985   4.915  1.00  0.00     0.262 C 
HETATM   28  C   UNL     1      43.569 -15.626   6.401  1.00  0.00     0.195 C 
HETATM   29  O   UNL     1      42.590 -16.337   7.162  1.00  0.00    -0.388 OA
HETATM   30  C   UNL     1      42.773 -17.755   7.076  1.00  0.00     0.195 C 
HETATM   31  C   UNL     1      42.624 -18.234   5.625  1.00  0.00     0.262 C 
ENDBRANCH  24  25
BRANCH  24  32
HETATM   32  C   UNL     1      43.889 -19.401   3.094  1.00  0.00    -0.001 A 
HETATM   33  C   UNL     1      44.650 -20.129   4.008  1.00  0.00     0.126 A 
HETATM   34  N   UNL     1      44.917 -21.442   3.888  1.00  0.00    -0.272 NA
HETATM   35  C   UNL     1      44.420 -22.086   2.810  1.00  0.00     0.116 A 
HETATM   36  C   UNL     1      43.660 -21.459   1.840  1.00  0.00     0.020 A 
HETATM   37  C   UNL     1      43.393 -20.098   1.984  1.00  0.00     0.012 A 
ENDBRANCH  24  32
ENDBRANCH  21  24
ENDBRANCH   1  20
TORSDOF 7
ENDMDL
MODEL 3
REMARK VINA RESULT:      -8.5      2.624      8.796
REMARK  7 active torsions:
REMARK  status: ('A' for Active; 'I' for Inactive)
REMARK    1  A    between atoms: C_6  and  C_7 
REMARK    2  A    between atoms: N_13  and  C_15 
REMARK    3  A    between atoms: C_15  and  C_16 
REMARK    4  A    between atoms: C_16  and  N_17 
REMARK       I    between atoms: N_17  and  C_18 
REMARK    5  A    between atoms: C_18  and  C_19 
REMARK    6  A    between atoms: C_19  and  N_20 
REMARK    7  A    between atoms: C_19  and  C_27 
ROOT
HETATM    1  C   UNL     1      42.076 -13.358   1.859  1.00  0.00     0.150 C 
ENDROOT
BRANCH   1   2
HETATM    2  C   UNL     1      42.251 -14.524   2.858  1.00  0.00     0.255 C 
BRANCH   2   3
HETATM    3  N   UNL     1      40.963 -15.290   3.117  1.00  0.00    -0.063 N 
HETATM    4  C   UNL     1      40.487 -15.433   4.552  1.00  0.00     0.272 C 
HETATM    5  C   UNL     1      41.354 -16.295   5.505  1.00  0.00     0.188 C 
HETATM    6  O   UNL     1      41.464 -17.678   5.124  1.00  0.00    -0.339 OA
HETATM    7  C   UNL     1      42.254 -18.021   4.071  1.00  0.00     0.077 A 
HETATM    8  C   UNL     1      42.089 -17.532   2.775  1.00  0.00     0.001 A 
HETATM    9  C   UNL     1      43.216 -19.002   4.336  1.00  0.00     0.037 A 
HETATM   10  C   UNL     1      42.972 -17.969   1.769  1.00  0.00     0.012 A 
HETATM   11  C   UNL     1      40.953 -16.632   2.414  1.00  0.00     0.276 C 
HETATM   12  C   UNL     1      43.971 -18.901   2.052  1.00  0.00     0.001 A 
HETATM   13  C   UNL     1      44.084 -19.429   3.333  1.00  0.00     0.003 A 
HETATM   14  H   UNL     1      40.218 -14.766   2.638  1.00  0.00     0.280 HD
BRANCH   5  15
HETATM   15  C   UNL     1      42.596 -15.590   6.039  1.00  0.00    -0.020 A 
HETATM   16  C   UNL     1      42.691 -14.206   6.106  1.00  0.00     0.059 A 
HETATM   17  S   UNL     1      44.188 -13.651   6.714  1.00  0.00    -0.113 SA
HETATM   18  C   UNL     1      44.721 -15.244   6.989  1.00  0.00     0.050 A 
HETATM   19  C   UNL     1      43.791 -16.176   6.581  1.00  0.00     0.017 A 
ENDBRANCH   5  15
ENDBRANCH   2   3
ENDBRANCH   1   2
BRANCH   1  20
HETATM   20  N   UNL     1      42.007 -13.724   0.439  1.00  0.00    -0.357 N 
HETATM   21  C   UNL     1      40.807 -13.912  -0.225  1.00  0.00     0.253 C 
HETATM   22  O   UNL     1      39.747 -13.994   0.390  1.00  0.00    -0.271 OA
HETATM   23  H   UNL     1      42.827 -13.474  -0.112  1.00  0.00     0.162 HD
BRANCH  21  24
HETATM   24  C   UNL     1      40.879 -14.015  -1.787  1.00  0.00     0.314 C 
BRANCH  24  25
HETATM   25  N   UNL     1      39.690 -14.753  -2.440  1.00  0.00    -0.050 N 
HETATM   26  H   UNL     1      39.247 -15.292  -1.684  1.00  0.00     0.281 HD
HETATM   27  C   UNL     1      38.632 -13.800  -2.986  1.00  0.00     0.262 C 
HETATM   28  C   UNL     1      37.434 -14.602  -3.509  1.00  0.00     0.195 C 
HETATM   29  O   UNL     1      37.851 -15.526  -4.517  1.00  0.00    -0.388 OA
HETATM   30  C   UNL     1      38.786 -16.484  -4.009  1.00  0.00     0.195 C 
HETATM   31  C   UNL     1      40.060 -15.787  -3.511  1.00  0.00     0.262 C 
ENDBRANCH  24  25
BRANCH  24  32
HETATM   32  C   UNL     1      41.140 -12.676  -2.440  1.00  0.00    -0.001 A 
HETATM   33  C   UNL     1      40.600 -11.492  -1.940  1.00  0.00     0.126 A 
HETATM   34  N   UNL     1      40.779 -10.286  -2.508  1.00  0.00    -0.272 NA
HETATM   35  C   UNL     1      41.521 -10.228  -3.634  1.00  0.00     0.116 A 
HETATM   36  C   UNL     1      42.096 -11.341  -4.218  1.00  0.00     0.020 A 
HETATM   37  C   UNL     1      41.900 -12.582  -3.613  1.00  0.00     0.012 A 
ENDBRANCH  24  32
ENDBRANCH  21  24
ENDBRANCH   1  20
TORSDOF 7
ENDMDL
MODEL 4
REMARK VINA RESULT:      -8.5      2.527      8.321
REMARK  7 active torsions:
REMARK  status: ('A' for Active; 'I' for Inactive)
REMARK    1  A    between atoms: C_6  and  C_7 
REMARK    2  A    between atoms: N_13  and  C_15 
REMARK    3  A    between atoms: C_15  and  C_16 
REMARK    4  A    between atoms: C_16  and  N_17 
REMARK       I    between atoms: N_17  and  C_18 
REMARK    5  A    between atoms: C_18  and  C_19 
REMARK    6  A    between atoms: C_19  and  N_20 
REMARK    7  A    between atoms: C_19  and  C_27 
ROOT
HETATM    1  C   UNL     1      42.133 -12.926   1.562  1.00  0.00     0.150 C 
ENDROOT
BRANCH   1   2
HETATM    2  C   UNL     1      42.274 -14.299   2.257  1.00  0.00     0.255 C 
BRANCH   2   3
HETATM    3  N   UNL     1      40.962 -15.062   2.348  1.00  0.00    -0.063 N 
HETATM    4  C   UNL     1      40.314 -15.217   3.713  1.00  0.00     0.272 C 
HETATM    5  C   UNL     1      41.055 -16.092   4.756  1.00  0.00     0.188 C 
HETATM    6  O   UNL     1      41.208 -17.473   4.377  1.00  0.00    -0.339 OA
HETATM    7  C   UNL     1      42.119 -17.808   3.425  1.00  0.00     0.077 A 
HETATM    8  C   UNL     1      42.115 -17.305   2.123  1.00  0.00     0.001 A 
HETATM    9  C   UNL     1      43.039 -18.795   3.795  1.00  0.00     0.037 A 
HETATM   10  C   UNL     1      43.113 -17.736   1.229  1.00  0.00     0.012 A 
HETATM   11  C   UNL     1      41.034 -16.397   1.636  1.00  0.00     0.276 C 
HETATM   12  C   UNL     1      44.068 -18.675   1.622  1.00  0.00     0.001 A 
HETATM   13  C   UNL     1      44.022 -19.215   2.901  1.00  0.00     0.003 A 
HETATM   14  H   UNL     1      40.283 -14.531   1.788  1.00  0.00     0.280 HD
BRANCH   5  15
HETATM   15  C   UNL     1      42.225 -15.398   5.445  1.00  0.00    -0.020 A 
HETATM   16  C   UNL     1      42.253 -14.024   5.653  1.00  0.00     0.059 A 
HETATM   17  S   UNL     1      43.677 -13.477   6.420  1.00  0.00    -0.113 SA
HETATM   18  C   UNL     1      44.262 -15.068   6.576  1.00  0.00     0.050 A 
HETATM   19  C   UNL     1      43.405 -15.990   6.013  1.00  0.00     0.017 A 
ENDBRANCH   5  15
ENDBRANCH   2   3
ENDBRANCH   1   2
BRANCH   1  20
HETATM   20  N   UNL     1      41.746 -12.952   0.146  1.00  0.00    -0.357 N 
HETATM   21  C   UNL     1      40.429 -12.850  -0.269  1.00  0.00     0.253 C 
HETATM   22  O   UNL     1      39.502 -12.951   0.531  1.00  0.00    -0.271 OA
HETATM   23  H   UNL     1      42.477 -12.676  -0.507  1.00  0.00     0.162 HD
BRANCH  21  24
HETATM   24  C   UNL     1      40.192 -12.605  -1.799  1.00  0.00     0.314 C 
BRANCH  24  25
HETATM   25  N   UNL     1      41.326 -11.837  -2.513  1.00  0.00    -0.050 N 
HETATM   26  H   UNL     1      42.174 -12.404  -2.379  1.00  0.00     0.281 HD
HETATM   27  C   UNL     1      41.102 -11.719  -4.017  1.00  0.00     0.262 C 
HETATM   28  C   UNL     1      42.319 -11.054  -4.670  1.00  0.00     0.195 C 
HETATM   29  O   UNL     1      42.559  -9.769  -4.092  1.00  0.00    -0.388 OA
HETATM   30  C   UNL     1      42.851  -9.858  -2.692  1.00  0.00     0.195 C 
HETATM   31  C   UNL     1      41.664 -10.460  -1.928  1.00  0.00     0.262 C 
ENDBRANCH  24  25
BRANCH  24  32
HETATM   32  C   UNL     1      39.819 -13.873  -2.532  1.00  0.00    -0.001 A 
HETATM   33  C   UNL     1      40.744 -14.888  -2.772  1.00  0.00     0.126 A 
HETATM   34  N   UNL     1      40.464 -16.016  -3.450  1.00  0.00    -0.272 NA
HETATM   35  C   UNL     1      39.210 -16.163  -3.929  1.00  0.00     0.116 A 
HETATM   36  C   UNL     1      38.219 -15.216  -3.754  1.00  0.00     0.020 A 
HETATM   37  C   UNL     1      38.528 -14.055  -3.048  1.00  0.00     0.012 A 
ENDBRANCH  24  32
ENDBRANCH  21  24
ENDBRANCH   1  20
TORSDOF 7
ENDMDL
MODEL 5
REMARK VINA RESULT:      -8.2      2.377      8.763
REMARK  7 active torsions:
REMARK  status: ('A' for Active; 'I' for Inactive)
REMARK    1  A    between atoms: C_6  and  C_7 
REMARK    2  A    between atoms: N_13  and  C_15 
REMARK    3  A    between atoms: C_15  and  C_16 
REMARK    4  A    between atoms: C_16  and  N_17 
REMARK       I    between atoms: N_17  and  C_18 
REMARK    5  A    between atoms: C_18  and  C_19 
REMARK    6  A    between atoms: C_19  and  N_20 
REMARK    7  A    between atoms: C_19  and  C_27 
ROOT
HETATM    1  C   UNL     1      42.440 -13.351   2.230  1.00  0.00     0.150 C 
ENDROOT
BRANCH   1   2
HETATM    2  C   UNL     1      42.597 -14.856   2.544  1.00  0.00     0.255 C 
BRANCH   2   3
HETATM    3  N   UNL     1      41.267 -15.570   2.732  1.00  0.00    -0.063 N 
HETATM    4  C   UNL     1      40.627 -15.546   4.109  1.00  0.00     0.272 C 
HETATM    5  C   UNL     1      41.356 -16.309   5.245  1.00  0.00     0.188 C 
HETATM    6  O   UNL     1      41.473 -17.728   5.032  1.00  0.00    -0.339 OA
HETATM    7  C   UNL     1      42.368 -18.196   4.122  1.00  0.00     0.077 A 
HETATM    8  C   UNL     1      42.366 -17.852   2.770  1.00  0.00     0.001 A 
HETATM    9  C   UNL     1      43.267 -19.154   4.602  1.00  0.00     0.037 A 
HETATM   10  C   UNL     1      43.346 -18.410   1.928  1.00  0.00     0.012 A 
HETATM   11  C   UNL     1      41.302 -16.981   2.183  1.00  0.00     0.276 C 
HETATM   12  C   UNL     1      44.281 -19.318   2.425  1.00  0.00     0.001 A 
HETATM   13  C   UNL     1      44.233 -19.702   3.760  1.00  0.00     0.003 A 
HETATM   14  H   UNL     1      40.597 -15.093   2.116  1.00  0.00     0.280 HD
BRANCH   5  15
HETATM   15  C   UNL     1      42.547 -15.566   5.840  1.00  0.00    -0.020 A 
HETATM   16  C   UNL     1      42.612 -14.179   5.878  1.00  0.00     0.059 A 
HETATM   17  S   UNL     1      44.055 -13.579   6.567  1.00  0.00    -0.113 SA
HETATM   18  C   UNL     1      44.598 -15.154   6.917  1.00  0.00     0.050 A 
HETATM   19  C   UNL     1      43.715 -16.115   6.474  1.00  0.00     0.017 A 
ENDBRANCH   5  15
ENDBRANCH   2   3
ENDBRANCH   1   2
BRANCH   1  20
HETATM   20  N   UNL     1      41.346 -12.988   1.321  1.00  0.00    -0.357 N 
HETATM   21  C   UNL     1      41.556 -12.304   0.136  1.00  0.00     0.253 C 
HETATM   22  O   UNL     1      42.638 -11.778  -0.110  1.00  0.00    -0.271 OA
HETATM   23  H   UNL     1      40.509 -13.563   1.402  1.00  0.00     0.162 HD
BRANCH  21  24
HETATM   24  C   UNL     1      40.348 -12.238  -0.860  1.00  0.00     0.314 C 
BRANCH  24  25
HETATM   25  N   UNL     1      40.118 -13.524  -1.683  1.00  0.00    -0.050 N 
HETATM   26  H   UNL     1      39.497 -14.113  -1.113  1.00  0.00     0.281 HD
HETATM   27  C   UNL     1      39.396 -13.259  -3.000  1.00  0.00     0.262 C 
HETATM   28  C   UNL     1      39.100 -14.590  -3.703  1.00  0.00     0.195 C 
HETATM   29  O   UNL     1      40.309 -15.319  -3.926  1.00  0.00    -0.388 OA
HETATM   30  C   UNL     1      40.968 -15.650  -2.698  1.00  0.00     0.195 C 
HETATM   31  C   UNL     1      41.367 -14.378  -1.937  1.00  0.00     0.262 C 
ENDBRANCH  24  25
BRANCH  24  32
HETATM   32  C   UNL     1      39.078 -11.761  -0.192  1.00  0.00    -0.001 A 
HETATM   33  C   UNL     1      38.918 -10.445   0.239  1.00  0.00     0.126 A 
HETATM   34  N   UNL     1      37.820  -9.987   0.868  1.00  0.00    -0.272 NA
HETATM   35  C   UNL     1      36.820 -10.864   1.099  1.00  0.00     0.116 A 
HETATM   36  C   UNL     1      36.878 -12.193   0.721  1.00  0.00     0.020 A 
HETATM   37  C   UNL     1      38.023 -12.647   0.069  1.00  0.00     0.012 A 
ENDBRANCH  24  32
ENDBRANCH  21  24
ENDBRANCH   1  20
TORSDOF 7
ENDMDL
MODEL 6
REMARK VINA RESULT:      -8.2      2.554      5.027
REMARK  7 active torsions:
REMARK  status: ('A' for Active; 'I' for Inactive)
REMARK    1  A    between atoms: C_6  and  C_7 
REMARK    2  A    between atoms: N_13  and  C_15 
REMARK    3  A    between atoms: C_15  and  C_16 
REMARK    4  A    between atoms: C_16  and  N_17 
REMARK       I    between atoms: N_17  and  C_18 
REMARK    5  A    between atoms: C_18  and  C_19 
REMARK    6  A    between atoms: C_19  and  N_20 
REMARK    7  A    between atoms: C_19  and  C_27 
ROOT
HETATM    1  C   UNL     1      41.425 -16.098  -0.186  1.00  0.00     0.150 C 
ENDROOT
BRANCH   1   2
HETATM    2  C   UNL     1      40.843 -14.717   0.191  1.00  0.00     0.255 C 
BRANCH   2   3
HETATM    3  N   UNL     1      39.323 -14.686   0.187  1.00  0.00    -0.063 N 
HETATM    4  C   UNL     1      38.629 -13.539  -0.529  1.00  0.00     0.272 C 
HETATM    5  C   UNL     1      38.795 -12.121   0.074  1.00  0.00     0.188 C 
HETATM    6  O   UNL     1      38.257 -11.969   1.401  1.00  0.00    -0.339 OA
HETATM    7  C   UNL     1      38.919 -12.513   2.457  1.00  0.00     0.077 A 
HETATM    8  C   UNL     1      39.217 -13.870   2.582  1.00  0.00     0.001 A 
HETATM    9  C   UNL     1      39.211 -11.630   3.502  1.00  0.00     0.037 A 
HETATM   10  C   UNL     1      39.905 -14.309   3.730  1.00  0.00     0.012 A 
HETATM   11  C   UNL     1      38.751 -14.872   1.577  1.00  0.00     0.276 C 
HETATM   12  C   UNL     1      40.250 -13.412   4.742  1.00  0.00     0.001 A 
HETATM   13  C   UNL     1      39.890 -12.074   4.634  1.00  0.00     0.003 A 
HETATM   14  H   UNL     1      39.021 -15.534  -0.310  1.00  0.00     0.280 HD
BRANCH   5  15
HETATM   15  C   UNL     1      40.126 -11.450  -0.247  1.00  0.00    -0.020 A 
HETATM   16  C   UNL     1      40.482 -11.092  -1.542  1.00  0.00     0.059 A 
HETATM   17  S   UNL     1      42.030 -10.381  -1.654  1.00  0.00    -0.113 SA
HETATM   18  C   UNL     1      42.237 -10.449   0.034  1.00  0.00     0.050 A 
HETATM   19  C   UNL     1      41.164 -11.045   0.661  1.00  0.00     0.017 A 
ENDBRANCH   5  15
ENDBRANCH   2   3
ENDBRANCH   1   2
BRANCH   1  20
HETATM   20  N   UNL     1      41.464 -17.100   0.886  1.00  0.00    -0.357 N 
HETATM   21  C   UNL     1      42.647 -17.647   1.353  1.00  0.00     0.253 C 
HETATM   22  O   UNL     1      43.704 -17.484   0.748  1.00  0.00    -0.271 OA
HETATM   23  H   UNL     1      40.657 -17.099   1.508  1.00  0.00     0.162 HD
BRANCH  21  24
HETATM   24  C   UNL     1      42.560 -18.479   2.678  1.00  0.00     0.314 C 
BRANCH  24  25
HETATM   25  N   UNL     1      43.628 -19.587   2.815  1.00  0.00    -0.050 N 
HETATM   26  H   UNL     1      44.497 -19.184   2.442  1.00  0.00     0.281 HD
HETATM   27  C   UNL     1      43.901 -19.966   4.267  1.00  0.00     0.262 C 
HETATM   28  C   UNL     1      45.049 -20.980   4.330  1.00  0.00     0.195 C 
HETATM   29  O   UNL     1      44.738 -22.139   3.554  1.00  0.00    -0.388 OA
HETATM   30  C   UNL     1      44.555 -21.822   2.169  1.00  0.00     0.195 C 
HETATM   31  C   UNL     1      43.379 -20.853   1.986  1.00  0.00     0.262 C 
ENDBRANCH  24  25
BRANCH  24  32
HETATM   32  C   UNL     1      42.498 -17.599   3.905  1.00  0.00    -0.001 A 
HETATM   33  C   UNL     1      41.533 -17.777   4.895  1.00  0.00     0.126 A 
HETATM   34  N   UNL     1      41.420 -16.996   5.985  1.00  0.00    -0.272 NA
HETATM   35  C   UNL     1      42.295 -15.976   6.118  1.00  0.00     0.116 A 
HETATM   36  C   UNL     1      43.286 -15.706   5.192  1.00  0.00     0.020 A 
HETATM   37  C   UNL     1      43.387 -16.527   4.070  1.00  0.00     0.012 A 
ENDBRANCH  24  32
ENDBRANCH  21  24
ENDBRANCH   1  20
TORSDOF 7
ENDMDL
MODEL 7
REMARK VINA RESULT:      -7.9      1.476      3.356
REMARK  7 active torsions:
REMARK  status: ('A' for Active; 'I' for Inactive)
REMARK    1  A    between atoms: C_6  and  C_7 
REMARK    2  A    between atoms: N_13  and  C_15 
REMARK    3  A    between atoms: C_15  and  C_16 
REMARK    4  A    between atoms: C_16  and  N_17 
REMARK       I    between atoms: N_17  and  C_18 
REMARK    5  A    between atoms: C_18  and  C_19 
REMARK    6  A    between atoms: C_19  and  N_20 
REMARK    7  A    between atoms: C_19  and  C_27 
ROOT
HETATM    1  C   UNL     1      41.413 -16.188  -0.707  1.00  0.00     0.150 C 
ENDROOT
BRANCH   1   2
HETATM    2  C   UNL     1      41.109 -14.688  -0.489  1.00  0.00     0.255 C 
BRANCH   2   3
HETATM    3  N   UNL     1      41.763 -13.788  -1.526  1.00  0.00    -0.063 N 
HETATM    4  C   UNL     1      41.673 -12.284  -1.331  1.00  0.00     0.272 C 
HETATM    5  C   UNL     1      40.271 -11.635  -1.450  1.00  0.00     0.188 C 
HETATM    6  O   UNL     1      39.657 -11.772  -2.745  1.00  0.00    -0.339 OA
HETATM    7  C   UNL     1      39.148 -12.976  -3.121  1.00  0.00     0.077 A 
HETATM    8  C   UNL     1      39.893 -14.154  -3.194  1.00  0.00     0.001 A 
HETATM    9  C   UNL     1      37.815 -12.960  -3.543  1.00  0.00     0.037 A 
HETATM   10  C   UNL     1      39.250 -15.337  -3.603  1.00  0.00     0.012 A 
HETATM   11  C   UNL     1      41.365 -14.169  -2.937  1.00  0.00     0.276 C 
HETATM   12  C   UNL     1      37.901 -15.329  -3.963  1.00  0.00     0.001 A 
HETATM   13  C   UNL     1      37.188 -14.136  -3.947  1.00  0.00     0.003 A 
HETATM   14  H   UNL     1      42.768 -14.002  -1.497  1.00  0.00     0.280 HD
BRANCH   5  15
HETATM   15  C   UNL     1      39.393 -11.798  -0.214  1.00  0.00    -0.020 A 
HETATM   16  C   UNL     1      39.913 -11.757   1.074  1.00  0.00     0.059 A 
HETATM   17  S   UNL     1      38.740 -11.990   2.293  1.00  0.00    -0.113 SA
HETATM   18  C   UNL     1      37.489 -12.064   1.143  1.00  0.00     0.050 A 
HETATM   19  C   UNL     1      37.966 -11.959  -0.146  1.00  0.00     0.017 A 
ENDBRANCH   5  15
ENDBRANCH   2   3
ENDBRANCH   1   2
BRANCH   1  20
HETATM   20  N   UNL     1      41.268 -17.057   0.467  1.00  0.00    -0.357 N 
HETATM   21  C   UNL     1      42.258 -17.189   1.425  1.00  0.00     0.253 C 
HETATM   22  O   UNL     1      43.391 -16.754   1.231  1.00  0.00    -0.271 OA
HETATM   23  H   UNL     1      40.307 -17.258   0.739  1.00  0.00     0.162 HD
BRANCH  21  24
HETATM   24  C   UNL     1      41.857 -17.917   2.754  1.00  0.00     0.314 C 
BRANCH  24  25
HETATM   25  N   UNL     1      42.835 -19.025   3.203  1.00  0.00    -0.050 N 
HETATM   26  H   UNL     1      42.300 -19.625   3.845  1.00  0.00     0.281 HD
HETATM   27  C   UNL     1      43.294 -19.909   2.048  1.00  0.00     0.262 C 
HETATM   28  C   UNL     1      44.163 -21.052   2.586  1.00  0.00     0.195 C 
HETATM   29  O   UNL     1      45.284 -20.534   3.305  1.00  0.00    -0.388 OA
HETATM   30  C   UNL     1      44.881 -19.765   4.443  1.00  0.00     0.195 C 
HETATM   31  C   UNL     1      44.049 -18.550   4.009  1.00  0.00     0.262 C 
ENDBRANCH  24  25
BRANCH  24  32
HETATM   32  C   UNL     1      41.552 -16.946   3.871  1.00  0.00    -0.001 A 
HETATM   33  C   UNL     1      41.785 -15.577   3.745  1.00  0.00     0.126 A 
HETATM   34  N   UNL     1      41.561 -14.683   4.726  1.00  0.00    -0.272 NA
HETATM   35  C   UNL     1      41.088 -15.148   5.901  1.00  0.00     0.116 A 
HETATM   36  C   UNL     1      40.829 -16.486   6.135  1.00  0.00     0.020 A 
HETATM   37  C   UNL     1      41.067 -17.396   5.106  1.00  0.00     0.012 A 
ENDBRANCH  24  32
ENDBRANCH  21  24
ENDBRANCH   1  20
TORSDOF 7
ENDMDL
MODEL 8
REMARK VINA RESULT:      -7.7      2.066      2.501
REMARK  7 active torsions:
REMARK  status: ('A' for Active; 'I' for Inactive)
REMARK    1  A    between atoms: C_6  and  C_7 
REMARK    2  A    between atoms: N_13  and  C_15 
REMARK    3  A    between atoms: C_15  and  C_16 
REMARK    4  A    between atoms: C_16  and  N_17 
REMARK       I    between atoms: N_17  and  C_18 
REMARK    5  A    between atoms: C_18  and  C_19 
REMARK    6  A    between atoms: C_19  and  N_20 
REMARK    7  A    between atoms: C_19  and  C_27 
ROOT
HETATM    1  C   UNL     1      41.300 -15.080  -0.157  1.00  0.00     0.150 C 
ENDROOT
BRANCH   1   2
HETATM    2  C   UNL     1      41.549 -13.792  -0.974  1.00  0.00     0.255 C 
BRANCH   2   3
HETATM    3  N   UNL     1      41.985 -14.066  -2.405  1.00  0.00    -0.063 N 
HETATM    4  C   UNL     1      42.882 -13.050  -3.090  1.00  0.00     0.272 C 
HETATM    5  C   UNL     1      42.275 -11.657  -3.394  1.00  0.00     0.188 C 
HETATM    6  O   UNL     1      41.158 -11.677  -4.302  1.00  0.00    -0.339 OA
HETATM    7  C   UNL     1      39.950 -12.125  -3.866  1.00  0.00     0.077 A 
HETATM    8  C   UNL     1      39.729 -13.400  -3.343  1.00  0.00     0.001 A 
HETATM    9  C   UNL     1      38.877 -11.251  -4.066  1.00  0.00     0.037 A 
HETATM   10  C   UNL     1      38.428 -13.745  -2.930  1.00  0.00     0.012 A 
HETATM   11  C   UNL     1      40.812 -14.428  -3.293  1.00  0.00     0.276 C 
HETATM   12  C   UNL     1      37.371 -12.846  -3.074  1.00  0.00     0.001 A 
HETATM   13  C   UNL     1      37.593 -11.603  -3.656  1.00  0.00     0.003 A 
HETATM   14  H   UNL     1      42.536 -14.934  -2.375  1.00  0.00     0.280 HD
BRANCH   5  15
HETATM   15  C   UNL     1      42.213 -10.719  -2.193  1.00  0.00    -0.020 A 
HETATM   16  C   UNL     1      43.356 -10.280  -1.536  1.00  0.00     0.059 A 
HETATM   17  S   UNL     1      43.033  -9.260  -0.206  1.00  0.00    -0.113 SA
HETATM   18  C   UNL     1      41.361  -9.301  -0.520  1.00  0.00     0.050 A 
HETATM   19  C   UNL     1      41.057 -10.115  -1.591  1.00  0.00     0.017 A 
ENDBRANCH   5  15
ENDBRANCH   2   3
ENDBRANCH   1   2
BRANCH   1  20
HETATM   20  N   UNL     1      42.050 -15.209   1.098  1.00  0.00    -0.357 N 
HETATM   21  C   UNL     1      42.153 -16.405   1.786  1.00  0.00     0.253 C 
HETATM   22  O   UNL     1      41.446 -17.367   1.497  1.00  0.00    -0.271 OA
HETATM   23  H   UNL     1      42.776 -14.509   1.241  1.00  0.00     0.162 HD
BRANCH  21  24
HETATM   24  C   UNL     1      43.210 -16.461   2.942  1.00  0.00     0.314 C 
BRANCH  24  25
HETATM   25  N   UNL     1      42.799 -15.714   4.230  1.00  0.00    -0.050 N 
HETATM   26  H   UNL     1      43.198 -16.257   5.007  1.00  0.00     0.281 HD
HETATM   27  C   UNL     1      43.394 -14.312   4.313  1.00  0.00     0.262 C 
HETATM   28  C   UNL     1      43.041 -13.681   5.665  1.00  0.00     0.195 C 
HETATM   29  O   UNL     1      41.623 -13.641   5.845  1.00  0.00    -0.388 OA
HETATM   30  C   UNL     1      41.048 -14.952   5.851  1.00  0.00     0.195 C 
HETATM   31  C   UNL     1      41.292 -15.657   4.509  1.00  0.00     0.262 C 
ENDBRANCH  24  25
BRANCH  24  32
HETATM   32  C   UNL     1      43.671 -17.872   3.231  1.00  0.00    -0.001 A 
HETATM   33  C   UNL     1      43.818 -18.351   4.531  1.00  0.00     0.126 A 
HETATM   34  N   UNL     1      44.258 -19.586   4.833  1.00  0.00    -0.272 NA
HETATM   35  C   UNL     1      44.581 -20.403   3.808  1.00  0.00     0.116 A 
HETATM   36  C   UNL     1      44.479 -20.027   2.482  1.00  0.00     0.020 A 
HETATM   37  C   UNL     1      44.020 -18.744   2.190  1.00  0.00     0.012 A 
ENDBRANCH  24  32
ENDBRANCH  21  24
ENDBRANCH   1  20
TORSDOF 7
ENDMDL
MODEL 9
REMARK VINA RESULT:      -7.7      2.018      2.622
REMARK  7 active torsions:
REMARK  status: ('A' for Active; 'I' for Inactive)
REMARK    1  A    between atoms: C_6  and  C_7 
REMARK    2  A    between atoms: N_13  and  C_15 
REMARK    3  A    between atoms: C_15  and  C_16 
REMARK    4  A    between atoms: C_16  and  N_17 
REMARK       I    between atoms: N_17  and  C_18 
REMARK    5  A    between atoms: C_18  and  C_19 
REMARK    6  A    between atoms: C_19  and  N_20 
REMARK    7  A    between atoms: C_19  and  C_27 
ROOT
HETATM    1  C   UNL     1      41.848 -16.335   0.479  1.00  0.00     0.150 C 
ENDROOT
BRANCH   1   2
HETATM    2  C   UNL     1      40.995 -15.425  -0.433  1.00  0.00     0.255 C 
BRANCH   2   3
HETATM    3  N   UNL     1      41.824 -14.638  -1.436  1.00  0.00    -0.063 N 
HETATM    4  C   UNL     1      42.023 -13.151  -1.195  1.00  0.00     0.272 C 
HETATM    5  C   UNL     1      40.773 -12.241  -1.303  1.00  0.00     0.188 C 
HETATM    6  O   UNL     1      40.161 -12.217  -2.605  1.00  0.00    -0.339 OA
HETATM    7  C   UNL     1      39.435 -13.289  -3.022  1.00  0.00     0.077 A 
HETATM    8  C   UNL     1      39.940 -14.586  -3.128  1.00  0.00     0.001 A 
HETATM    9  C   UNL     1      38.135 -13.003  -3.452  1.00  0.00     0.037 A 
HETATM   10  C   UNL     1      39.085 -15.610  -3.578  1.00  0.00     0.012 A 
HETATM   11  C   UNL     1      41.377 -14.893  -2.861  1.00  0.00     0.276 C 
HETATM   12  C   UNL     1      37.768 -15.331  -3.946  1.00  0.00     0.001 A 
HETATM   13  C   UNL     1      37.297 -14.024  -3.897  1.00  0.00     0.003 A 
HETATM   14  H   UNL     1      42.768 -15.043  -1.408  1.00  0.00     0.280 HD
BRANCH   5  15
HETATM   15  C   UNL     1      39.865 -12.267  -0.078  1.00  0.00    -0.020 A 
HETATM   16  C   UNL     1      38.568 -11.769  -0.106  1.00  0.00     0.059 A 
HETATM   17  S   UNL     1      37.758 -11.885   1.393  1.00  0.00    -0.113 SA
HETATM   18  C   UNL     1      39.083 -12.683   2.102  1.00  0.00     0.050 A 
HETATM   19  C   UNL     1      40.136 -12.816   1.223  1.00  0.00     0.017 A 
ENDBRANCH   5  15
ENDBRANCH   2   3
ENDBRANCH   1   2
BRANCH   1  20
HETATM   20  N   UNL     1      42.259 -15.762   1.767  1.00  0.00    -0.357 N 
HETATM   21  C   UNL     1      41.899 -16.320   2.981  1.00  0.00     0.253 C 
HETATM   22  O   UNL     1      41.041 -17.196   3.047  1.00  0.00    -0.271 OA
HETATM   23  H   UNL     1      43.097 -15.183   1.734  1.00  0.00     0.162 HD
BRANCH  21  24
HETATM   24  C   UNL     1      42.639 -15.776   4.251  1.00  0.00     0.314 C 
BRANCH  24  25
HETATM   25  N   UNL     1      41.921 -14.610   4.966  1.00  0.00    -0.050 N 
HETATM   26  H   UNL     1      42.182 -14.689   5.958  1.00  0.00     0.281 HD
HETATM   27  C   UNL     1      42.396 -13.242   4.488  1.00  0.00     0.262 C 
HETATM   28  C   UNL     1      41.729 -12.143   5.323  1.00  0.00     0.195 C 
HETATM   29  O   UNL     1      40.306 -12.242   5.238  1.00  0.00    -0.388 OA
HETATM   30  C   UNL     1      39.825 -13.489   5.755  1.00  0.00     0.195 C 
HETATM   31  C   UNL     1      40.388 -14.665   4.946  1.00  0.00     0.262 C 
ENDBRANCH  24  25
BRANCH  24  32
HETATM   32  C   UNL     1      43.020 -16.879   5.211  1.00  0.00    -0.001 A 
HETATM   33  C   UNL     1      42.562 -16.905   6.527  1.00  0.00     0.126 A 
HETATM   34  N   UNL     1      42.903 -17.849   7.424  1.00  0.00    -0.272 NA
HETATM   35  C   UNL     1      43.746 -18.822   7.018  1.00  0.00     0.116 A 
HETATM   36  C   UNL     1      44.264 -18.887   5.738  1.00  0.00     0.020 A 
HETATM   37  C   UNL     1      43.898 -17.901   4.823  1.00  0.00     0.012 A 
ENDBRANCH  24  32
ENDBRANCH  21  24
ENDBRANCH   1  20
TORSDOF 7
ENDMDL
MODEL 10
REMARK VINA RESULT:      -7.6      3.105      5.140
REMARK  7 active torsions:
REMARK  status: ('A' for Active; 'I' for Inactive)
REMARK    1  A    between atoms: C_6  and  C_7 
REMARK    2  A    between atoms: N_13  and  C_15 
REMARK    3  A    between atoms: C_15  and  C_16 
REMARK    4  A    between atoms: C_16  and  N_17 
REMARK       I    between atoms: N_17  and  C_18 
REMARK    5  A    between atoms: C_18  and  C_19 
REMARK    6  A    between atoms: C_19  and  N_20 
REMARK    7  A    between atoms: C_19  and  C_27 
ROOT
HETATM    1  C   UNL     1      41.068 -12.140   3.889  1.00  0.00     0.150 C 
ENDROOT
BRANCH   1   2
HETATM    2  C   UNL     1      41.118 -12.508   2.389  1.00  0.00     0.255 C 
BRANCH   2   3
HETATM    3  N   UNL     1      39.837 -12.163   1.645  1.00  0.00    -0.063 N 
HETATM    4  C   UNL     1      38.914 -13.298   1.239  1.00  0.00     0.272 C 
HETATM    5  C   UNL     1      39.434 -14.289   0.166  1.00  0.00     0.188 C 
HETATM    6  O   UNL     1      39.702 -13.694  -1.117  1.00  0.00    -0.339 OA
HETATM    7  C   UNL     1      40.806 -12.917  -1.276  1.00  0.00     0.077 A 
HETATM    8  C   UNL     1      41.071 -11.767  -0.531  1.00  0.00     0.001 A 
HETATM    9  C   UNL     1      41.650 -13.281  -2.331  1.00  0.00     0.037 A 
HETATM   10  C   UNL     1      42.250 -11.045  -0.797  1.00  0.00     0.012 A 
HETATM   11  C   UNL     1      40.098 -11.240   0.472  1.00  0.00     0.276 C 
HETATM   12  C   UNL     1      43.122 -11.449  -1.809  1.00  0.00     0.001 A 
HETATM   13  C   UNL     1      42.814 -12.559  -2.587  1.00  0.00     0.003 A 
HETATM   14  H   UNL     1      39.282 -11.581   2.285  1.00  0.00     0.280 HD
BRANCH   5  15
HETATM   15  C   UNL     1      40.408 -15.336   0.695  1.00  0.00    -0.020 A 
HETATM   16  C   UNL     1      40.156 -16.066   1.850  1.00  0.00     0.059 A 
HETATM   17  S   UNL     1      41.404 -17.159   2.255  1.00  0.00    -0.113 SA
HETATM   18  C   UNL     1      42.279 -16.755   0.852  1.00  0.00     0.050 A 
HETATM   19  C   UNL     1      41.650 -15.773   0.117  1.00  0.00     0.017 A 
ENDBRANCH   5  15
ENDBRANCH   2   3
ENDBRANCH   1   2
BRANCH   1  20
HETATM   20  N   UNL     1      42.224 -12.548   4.697  1.00  0.00    -0.357 N 
HETATM   21  C   UNL     1      42.153 -13.551   5.648  1.00  0.00     0.253 C 
HETATM   22  O   UNL     1      41.070 -14.001   6.016  1.00  0.00    -0.271 OA
HETATM   23  H   UNL     1      43.132 -12.339   4.287  1.00  0.00     0.162 HD
BRANCH  21  24
HETATM   24  C   UNL     1      43.514 -14.071   6.224  1.00  0.00     0.314 C 
BRANCH  24  25
HETATM   25  N   UNL     1      44.011 -13.324   7.481  1.00  0.00    -0.050 N 
HETATM   26  H   UNL     1      43.820 -13.953   8.272  1.00  0.00     0.281 HD
HETATM   27  C   UNL     1      45.516 -13.076   7.463  1.00  0.00     0.262 C 
HETATM   28  C   UNL     1      45.950 -12.441   8.789  1.00  0.00     0.195 C 
HETATM   29  O   UNL     1      45.239 -11.223   9.019  1.00  0.00    -0.388 OA
HETATM   30  C   UNL     1      43.826 -11.439   9.120  1.00  0.00     0.195 C 
HETATM   31  C   UNL     1      43.273 -12.021   7.812  1.00  0.00     0.262 C 
ENDBRANCH  24  25
BRANCH  24  32
HETATM   32  C   UNL     1      43.521 -15.570   6.417  1.00  0.00    -0.001 A 
HETATM   33  C   UNL     1      43.451 -16.455   5.342  1.00  0.00     0.126 A 
HETATM   34  N   UNL     1      43.419 -17.794   5.471  1.00  0.00    -0.272 NA
HETATM   35  C   UNL     1      43.451 -18.304   6.720  1.00  0.00     0.116 A 
HETATM   36  C   UNL     1      43.514 -17.517   7.856  1.00  0.00     0.020 A 
HETATM   37  C   UNL     1      43.547 -16.132   7.701  1.00  0.00     0.012 A 
ENDBRANCH  24  32
ENDBRANCH  21  24
ENDBRANCH   1  20
TORSDOF 7
ENDMDL
