MODEL 1
REMARK VINA RESULT:      -8.3      0.000      0.000
REMARK  5 active torsions:
REMARK  status: ('A' for Active; 'I' for Inactive)
REMARK    1  A    between atoms: C_4  and  O_5 
REMARK    2  A    between atoms: O_5  and  C_6 
REMARK    3  A    between atoms: C_6  and  C_7 
REMARK       I    between atoms: C_7  and  N_8 
REMARK    4  A    between atoms: N_8  and  N_9 
REMARK    5  A    between atoms: C_10  and  C_11 
ROOT
HETATM    1  C   UNL     1      44.850 -13.383   7.754  1.00  0.00     0.261 C 
HETATM    2  N   UNL     1      44.018 -14.498   7.737  1.00  0.00    -0.246 N 
HETATM    3  O   UNL     1      45.965 -13.299   7.243  1.00  0.00    -0.269 OA
HETATM    4  H   UNL     1      43.240 -14.499   8.395  1.00  0.00     0.192 HD
ENDROOT
BRANCH   2   5
HETATM    5  N   UNL     1      44.293 -15.729   7.188  1.00  0.00    -0.184 NA
HETATM    6  C   UNL     1      43.551 -16.167   6.222  1.00  0.00     0.152 C 
BRANCH   6   7
HETATM    7  C   UNL     1      43.839 -17.454   5.617  1.00  0.00     0.011 A 
HETATM    8  C   UNL     1      43.761 -17.776   4.223  1.00  0.00     0.004 A 
HETATM    9  C   UNL     1      44.101 -19.123   4.085  1.00  0.00     0.043 A 
HETATM   10  C   UNL     1      43.441 -17.043   3.060  1.00  0.00     0.014 A 
HETATM   11  C   UNL     1      44.128 -19.775   2.846  1.00  0.00     0.030 A 
HETATM   12  N   UNL     1      44.378 -19.600   5.346  1.00  0.00    -0.364 N 
HETATM   13  C   UNL     1      43.806 -19.024   1.711  1.00  0.00     0.002 A 
HETATM   14  C   UNL     1      43.468 -17.677   1.813  1.00  0.00     0.001 A 
HETATM   15  H   UNL     1      44.654 -20.551   5.549  1.00  0.00     0.165 HD
HETATM   16  C   UNL     1      44.231 -18.605   6.273  1.00  0.00     0.102 A 
ENDBRANCH   6   7
ENDBRANCH   2   5
BRANCH   1  17
HETATM   17  C   UNL     1      44.195 -12.171   8.407  1.00  0.00     0.280 C 
BRANCH  17  18
HETATM   18  O   UNL     1      44.251 -12.249   9.828  1.00  0.00    -0.342 OA
BRANCH  18  19
HETATM   19  C   UNL     1      43.593 -11.235  10.477  1.00  0.00     0.069 A 
HETATM   20  C   UNL     1      43.852 -10.830  11.790  1.00  0.00     0.043 A 
HETATM   21  C   UNL     1      43.114  -9.790  12.373  1.00  0.00    -0.059 A 
HETATM   22  C   UNL     1      43.406  -9.342  13.776  1.00  0.00     0.048 C 
HETATM   23  C   UNL     1      42.138  -9.135  11.614  1.00  0.00     0.007 A 
HETATM   24  C   UNL     1      41.894  -9.522  10.295  1.00  0.00     0.003 A 
HETATM   25  C   UNL     1      42.626 -10.566   9.728  1.00  0.00     0.037 A 
ENDBRANCH  18  19
ENDBRANCH  17  18
ENDBRANCH   1  17
TORSDOF 5
ENDMDL
MODEL 2
REMARK VINA RESULT:      -8.3      1.286      1.819
REMARK  5 active torsions:
REMARK  status: ('A' for Active; 'I' for Inactive)
REMARK    1  A    between atoms: C_4  and  O_5 
REMARK    2  A    between atoms: O_5  and  C_6 
REMARK    3  A    between atoms: C_6  and  C_7 
REMARK       I    between atoms: C_7  and  N_8 
REMARK    4  A    between atoms: N_8  and  N_9 
REMARK    5  A    between atoms: C_10  and  C_11 
ROOT
HETATM    1  C   UNL     1      44.814 -13.703   7.399  1.00  0.00     0.261 C 
HETATM    2  N   UNL     1      43.641 -14.383   7.087  1.00  0.00    -0.246 N 
HETATM    3  O   UNL     1      45.782 -13.543   6.658  1.00  0.00    -0.269 OA
HETATM    4  H   UNL     1      43.037 -14.635   7.867  1.00  0.00     0.192 HD
ENDROOT
BRANCH   2   5
HETATM    5  N   UNL     1      43.352 -15.042   5.915  1.00  0.00    -0.184 NA
HETATM    6  C   UNL     1      43.547 -16.320   5.846  1.00  0.00     0.152 C 
BRANCH   6   7
HETATM    7  C   UNL     1      43.226 -17.034   4.624  1.00  0.00     0.011 A 
HETATM    8  C   UNL     1      43.752 -18.304   4.218  1.00  0.00     0.004 A 
HETATM    9  C   UNL     1      43.195 -18.608   2.974  1.00  0.00     0.043 A 
HETATM   10  C   UNL     1      44.644 -19.231   4.798  1.00  0.00     0.014 A 
HETATM   11  C   UNL     1      43.492 -19.786   2.279  1.00  0.00     0.030 A 
HETATM   12  N   UNL     1      42.362 -17.565   2.639  1.00  0.00    -0.364 N 
HETATM   13  C   UNL     1      44.379 -20.687   2.877  1.00  0.00     0.002 A 
HETATM   14  C   UNL     1      44.948 -20.416   4.119  1.00  0.00     0.001 A 
HETATM   15  H   UNL     1      41.823 -17.515   1.785  1.00  0.00     0.165 HD
HETATM   16  C   UNL     1      42.368 -16.617   3.625  1.00  0.00     0.102 A 
ENDBRANCH   6   7
ENDBRANCH   2   5
BRANCH   1  17
HETATM   17  C   UNL     1      44.765 -13.047   8.775  1.00  0.00     0.280 C 
BRANCH  17  18
HETATM   18  O   UNL     1      44.752 -11.627   8.676  1.00  0.00    -0.342 OA
BRANCH  18  19
HETATM   19  C   UNL     1      43.880 -11.007   9.536  1.00  0.00     0.069 A 
HETATM   20  C   UNL     1      44.170 -10.676  10.863  1.00  0.00     0.043 A 
HETATM   21  C   UNL     1      43.206 -10.056  11.670  1.00  0.00    -0.059 A 
HETATM   22  C   UNL     1      43.524  -9.682  13.088  1.00  0.00     0.048 C 
HETATM   23  C   UNL     1      41.958  -9.739  11.121  1.00  0.00     0.007 A 
HETATM   24  C   UNL     1      41.674 -10.049   9.790  1.00  0.00     0.003 A 
HETATM   25  C   UNL     1      42.637 -10.675   8.999  1.00  0.00     0.037 A 
ENDBRANCH  18  19
ENDBRANCH  17  18
ENDBRANCH   1  17
TORSDOF 5
ENDMDL
MODEL 3
REMARK VINA RESULT:      -8.2      6.224      8.554
REMARK  5 active torsions:
REMARK  status: ('A' for Active; 'I' for Inactive)
REMARK    1  A    between atoms: C_4  and  O_5 
REMARK    2  A    between atoms: O_5  and  C_6 
REMARK    3  A    between atoms: C_6  and  C_7 
REMARK       I    between atoms: C_7  and  N_8 
REMARK    4  A    between atoms: N_8  and  N_9 
REMARK    5  A    between atoms: C_10  and  C_11 
ROOT
HETATM    1  C   UNL     1      42.479 -13.978   2.504  1.00  0.00     0.261 C 
HETATM    2  N   UNL     1      41.898 -15.226   2.710  1.00  0.00    -0.246 N 
HETATM    3  O   UNL     1      43.585 -13.616   2.901  1.00  0.00    -0.269 OA
HETATM    4  H   UNL     1      40.898 -15.300   2.531  1.00  0.00     0.192 HD
ENDROOT
BRANCH   2   5
HETATM    5  N   UNL     1      42.421 -16.275   3.429  1.00  0.00    -0.184 NA
HETATM    6  C   UNL     1      43.206 -17.116   2.836  1.00  0.00     0.152 C 
BRANCH   6   7
HETATM    7  C   UNL     1      43.783 -18.217   3.585  1.00  0.00     0.011 A 
HETATM    8  C   UNL     1      43.918 -19.572   3.138  1.00  0.00     0.004 A 
HETATM    9  C   UNL     1      44.504 -20.298   4.176  1.00  0.00     0.043 A 
HETATM   10  C   UNL     1      43.605 -20.249   1.940  1.00  0.00     0.014 A 
HETATM   11  C   UNL     1      44.784 -21.667   4.080  1.00  0.00     0.030 A 
HETATM   12  N   UNL     1      44.720 -19.418   5.213  1.00  0.00    -0.364 N 
HETATM   13  C   UNL     1      44.463 -22.312   2.882  1.00  0.00     0.002 A 
HETATM   14  C   UNL     1      43.883 -21.615   1.825  1.00  0.00     0.001 A 
HETATM   15  H   UNL     1      45.134 -19.669   6.099  1.00  0.00     0.165 HD
HETATM   16  C   UNL     1      44.296 -18.164   4.866  1.00  0.00     0.102 A 
ENDBRANCH   6   7
ENDBRANCH   2   5
BRANCH   1  17
HETATM   17  C   UNL     1      41.634 -13.077   1.611  1.00  0.00     0.280 C 
BRANCH  17  18
HETATM   18  O   UNL     1      42.433 -12.103   0.946  1.00  0.00    -0.342 OA
BRANCH  18  19
HETATM   19  C   UNL     1      42.382 -12.168  -0.423  1.00  0.00     0.069 A 
HETATM   20  C   UNL     1      41.926 -13.271  -1.152  1.00  0.00     0.043 A 
HETATM   21  C   UNL     1      41.926 -13.248  -2.554  1.00  0.00    -0.059 A 
HETATM   22  C   UNL     1      41.418 -14.424  -3.335  1.00  0.00     0.048 C 
HETATM   23  C   UNL     1      42.354 -12.093  -3.218  1.00  0.00     0.007 A 
HETATM   24  C   UNL     1      42.788 -10.983  -2.493  1.00  0.00     0.003 A 
HETATM   25  C   UNL     1      42.795 -11.020  -1.098  1.00  0.00     0.037 A 
ENDBRANCH  18  19
ENDBRANCH  17  18
ENDBRANCH   1  17
TORSDOF 5
ENDMDL
MODEL 4
REMARK VINA RESULT:      -8.1      6.948     10.286
REMARK  5 active torsions:
REMARK  status: ('A' for Active; 'I' for Inactive)
REMARK    1  A    between atoms: C_4  and  O_5 
REMARK    2  A    between atoms: O_5  and  C_6 
REMARK    3  A    between atoms: C_6  and  C_7 
REMARK       I    between atoms: C_7  and  N_8 
REMARK    4  A    between atoms: N_8  and  N_9 
REMARK    5  A    between atoms: C_10  and  C_11 
ROOT
HETATM    1  C   UNL     1      41.715 -15.023   0.506  1.00  0.00     0.261 C 
HETATM    2  N   UNL     1      42.215 -16.313   0.352  1.00  0.00    -0.246 N 
HETATM    3  O   UNL     1      41.458 -14.464   1.570  1.00  0.00    -0.269 OA
HETATM    4  H   UNL     1      42.155 -16.720  -0.580  1.00  0.00     0.192 HD
ENDROOT
BRANCH   2   5
HETATM    5  N   UNL     1      42.476 -17.225   1.348  1.00  0.00    -0.184 NA
HETATM    6  C   UNL     1      43.673 -17.298   1.838  1.00  0.00     0.152 C 
BRANCH   6   7
HETATM    7  C   UNL     1      43.960 -18.239   2.904  1.00  0.00     0.011 A 
HETATM    8  C   UNL     1      44.113 -19.658   2.768  1.00  0.00     0.004 A 
HETATM    9  C   UNL     1      44.360 -20.175   4.041  1.00  0.00     0.043 A 
HETATM   10  C   UNL     1      44.074 -20.552   1.677  1.00  0.00     0.014 A 
HETATM   11  C   UNL     1      44.560 -21.540   4.278  1.00  0.00     0.030 A 
HETATM   12  N   UNL     1      44.361 -19.112   4.916  1.00  0.00    -0.364 N 
HETATM   13  C   UNL     1      44.516 -22.403   3.179  1.00  0.00     0.002 A 
HETATM   14  C   UNL     1      44.277 -21.918   1.895  1.00  0.00     0.001 A 
HETATM   15  H   UNL     1      44.514 -19.191   5.911  1.00  0.00     0.165 HD
HETATM   16  C   UNL     1      44.128 -17.944   4.243  1.00  0.00     0.102 A 
ENDBRANCH   6   7
ENDBRANCH   2   5
BRANCH   1  17
HETATM   17  C   UNL     1      41.599 -14.277  -0.819  1.00  0.00     0.280 C 
BRANCH  17  18
HETATM   18  O   UNL     1      40.261 -13.854  -1.064  1.00  0.00    -0.342 OA
BRANCH  18  19
HETATM   19  C   UNL     1      39.649 -14.494  -2.112  1.00  0.00     0.069 A 
HETATM   20  C   UNL     1      38.401 -14.144  -2.639  1.00  0.00     0.043 A 
HETATM   21  C   UNL     1      37.849 -14.870  -3.704  1.00  0.00    -0.059 A 
HETATM   22  C   UNL     1      36.520 -14.481  -4.283  1.00  0.00     0.048 C 
HETATM   23  C   UNL     1      38.577 -15.928  -4.260  1.00  0.00     0.007 A 
HETATM   24  C   UNL     1      39.832 -16.265  -3.749  1.00  0.00     0.003 A 
HETATM   25  C   UNL     1      40.367 -15.544  -2.682  1.00  0.00     0.037 A 
ENDBRANCH  18  19
ENDBRANCH  17  18
ENDBRANCH   1  17
TORSDOF 5
ENDMDL
MODEL 5
REMARK VINA RESULT:      -8.1      5.803      8.012
REMARK  5 active torsions:
REMARK  status: ('A' for Active; 'I' for Inactive)
REMARK    1  A    between atoms: C_4  and  O_5 
REMARK    2  A    between atoms: O_5  and  C_6 
REMARK    3  A    between atoms: C_6  and  C_7 
REMARK       I    between atoms: C_7  and  N_8 
REMARK    4  A    between atoms: N_8  and  N_9 
REMARK    5  A    between atoms: C_10  and  C_11 
ROOT
HETATM    1  C   UNL     1      42.874 -13.869   3.097  1.00  0.00     0.261 C 
HETATM    2  N   UNL     1      42.216 -15.087   3.237  1.00  0.00    -0.246 N 
HETATM    3  O   UNL     1      44.013 -13.609   3.481  1.00  0.00    -0.269 OA
HETATM    4  H   UNL     1      41.209 -15.083   3.086  1.00  0.00     0.192 HD
ENDROOT
BRANCH   2   5
HETATM    5  N   UNL     1      42.687 -16.216   3.865  1.00  0.00    -0.184 NA
HETATM    6  C   UNL     1      43.417 -17.050   3.197  1.00  0.00     0.152 C 
BRANCH   6   7
HETATM    7  C   UNL     1      43.940 -18.236   3.850  1.00  0.00     0.011 A 
HETATM    8  C   UNL     1      44.019 -19.552   3.288  1.00  0.00     0.004 A 
HETATM    9  C   UNL     1      44.564 -20.390   4.262  1.00  0.00     0.043 A 
HETATM   10  C   UNL     1      43.685 -20.109   2.035  1.00  0.00     0.014 A 
HETATM   11  C   UNL     1      44.784 -21.757   4.049  1.00  0.00     0.030 A 
HETATM   12  N   UNL     1      44.811 -19.613   5.371  1.00  0.00    -0.364 N 
HETATM   13  C   UNL     1      44.444 -22.281   2.798  1.00  0.00     0.002 A 
HETATM   14  C   UNL     1      43.903 -21.471   1.803  1.00  0.00     0.001 A 
HETATM   15  H   UNL     1      45.207 -19.958   6.234  1.00  0.00     0.165 HD
HETATM   16  C   UNL     1      44.445 -18.317   5.133  1.00  0.00     0.102 A 
ENDBRANCH   6   7
ENDBRANCH   2   5
BRANCH   1  17
HETATM   17  C   UNL     1      42.067 -12.854   2.296  1.00  0.00     0.280 C 
BRANCH  17  18
HETATM   18  O   UNL     1      41.496 -13.443   1.131  1.00  0.00    -0.342 OA
BRANCH  18  19
HETATM   19  C   UNL     1      41.925 -12.891  -0.050  1.00  0.00     0.069 A 
HETATM   20  C   UNL     1      42.536 -11.639  -0.168  1.00  0.00     0.043 A 
HETATM   21  C   UNL     1      42.927 -11.153  -1.424  1.00  0.00    -0.059 A 
HETATM   22  C   UNL     1      43.602  -9.818  -1.548  1.00  0.00     0.048 C 
HETATM   23  C   UNL     1      42.732 -11.951  -2.557  1.00  0.00     0.007 A 
HETATM   24  C   UNL     1      42.142 -13.210  -2.438  1.00  0.00     0.003 A 
HETATM   25  C   UNL     1      41.747 -13.680  -1.186  1.00  0.00     0.037 A 
ENDBRANCH  18  19
ENDBRANCH  17  18
ENDBRANCH   1  17
TORSDOF 5
ENDMDL
MODEL 6
REMARK VINA RESULT:      -8.0      7.070      9.420
REMARK  5 active torsions:
REMARK  status: ('A' for Active; 'I' for Inactive)
REMARK    1  A    between atoms: C_4  and  O_5 
REMARK    2  A    between atoms: O_5  and  C_6 
REMARK    3  A    between atoms: C_6  and  C_7 
REMARK       I    between atoms: C_7  and  N_8 
REMARK    4  A    between atoms: N_8  and  N_9 
REMARK    5  A    between atoms: C_10  and  C_11 
ROOT
HETATM    1  C   UNL     1      41.243 -15.141   0.128  1.00  0.00     0.261 C 
HETATM    2  N   UNL     1      41.253 -16.523   0.294  1.00  0.00    -0.246 N 
HETATM    3  O   UNL     1      41.712 -14.311   0.905  1.00  0.00    -0.269 OA
HETATM    4  H   UNL     1      40.628 -17.060  -0.304  1.00  0.00     0.192 HD
ENDROOT
BRANCH   2   5
HETATM    5  N   UNL     1      41.745 -17.225   1.369  1.00  0.00    -0.184 NA
HETATM    6  C   UNL     1      43.006 -17.515   1.408  1.00  0.00     0.152 C 
BRANCH   6   7
HETATM    7  C   UNL     1      43.545 -18.237   2.545  1.00  0.00     0.011 A 
HETATM    8  C   UNL     1      43.837 -19.639   2.604  1.00  0.00     0.004 A 
HETATM    9  C   UNL     1      44.317 -19.913   3.885  1.00  0.00     0.043 A 
HETATM   10  C   UNL     1      43.745 -20.702   1.679  1.00  0.00     0.014 A 
HETATM   11  C   UNL     1      44.702 -21.197   4.291  1.00  0.00     0.030 A 
HETATM   12  N   UNL     1      44.321 -18.724   4.578  1.00  0.00    -0.364 N 
HETATM   13  C   UNL     1      44.601 -22.231   3.355  1.00  0.00     0.002 A 
HETATM   14  C   UNL     1      44.131 -21.990   2.067  1.00  0.00     0.001 A 
HETATM   15  H   UNL     1      44.621 -18.623   5.538  1.00  0.00     0.165 HD
HETATM   16  C   UNL     1      43.865 -17.709   3.782  1.00  0.00     0.102 A 
ENDBRANCH   6   7
ENDBRANCH   2   5
BRANCH   1  17
HETATM   17  C   UNL     1      40.662 -14.715  -1.216  1.00  0.00     0.280 C 
BRANCH  17  18
HETATM   18  O   UNL     1      41.684 -14.535  -2.193  1.00  0.00    -0.342 OA
BRANCH  18  19
HETATM   19  C   UNL     1      41.938 -13.225  -2.510  1.00  0.00     0.069 A 
HETATM   20  C   UNL     1      42.684 -12.344  -1.720  1.00  0.00     0.043 A 
HETATM   21  C   UNL     1      42.877 -11.015  -2.123  1.00  0.00    -0.059 A 
HETATM   22  C   UNL     1      43.696 -10.077  -1.286  1.00  0.00     0.048 C 
HETATM   23  C   UNL     1      42.345 -10.587  -3.344  1.00  0.00     0.007 A 
HETATM   24  C   UNL     1      41.619 -11.471  -4.145  1.00  0.00     0.003 A 
HETATM   25  C   UNL     1      41.423 -12.788  -3.730  1.00  0.00     0.037 A 
ENDBRANCH  18  19
ENDBRANCH  17  18
ENDBRANCH   1  17
TORSDOF 5
ENDMDL
MODEL 7
REMARK VINA RESULT:      -7.8      7.201     10.398
REMARK  5 active torsions:
REMARK  status: ('A' for Active; 'I' for Inactive)
REMARK    1  A    between atoms: C_4  and  O_5 
REMARK    2  A    between atoms: O_5  and  C_6 
REMARK    3  A    between atoms: C_6  and  C_7 
REMARK       I    between atoms: C_7  and  N_8 
REMARK    4  A    between atoms: N_8  and  N_9 
REMARK    5  A    between atoms: C_10  and  C_11 
ROOT
HETATM    1  C   UNL     1      41.084 -16.741   2.190  1.00  0.00     0.261 C 
HETATM    2  N   UNL     1      42.000 -16.277   1.252  1.00  0.00    -0.246 N 
HETATM    3  O   UNL     1      39.867 -16.827   2.038  1.00  0.00    -0.269 OA
HETATM    4  H   UNL     1      42.930 -16.043   1.597  1.00  0.00     0.192 HD
ENDROOT
BRANCH   2   5
HETATM    5  N   UNL     1      41.726 -15.786  -0.003  1.00  0.00    -0.184 NA
HETATM    6  C   UNL     1      41.742 -14.506  -0.196  1.00  0.00     0.152 C 
BRANCH   6   7
HETATM    7  C   UNL     1      41.476 -13.973  -1.519  1.00  0.00     0.011 A 
HETATM    8  C   UNL     1      41.929 -12.715  -2.037  1.00  0.00     0.004 A 
HETATM    9  C   UNL     1      41.429 -12.593  -3.334  1.00  0.00     0.043 A 
HETATM   10  C   UNL     1      42.729 -11.671  -1.525  1.00  0.00     0.014 A 
HETATM   11  C   UNL     1      41.680 -11.476  -4.141  1.00  0.00     0.030 A 
HETATM   12  N   UNL     1      40.703 -13.732  -3.596  1.00  0.00    -0.364 N 
HETATM   13  C   UNL     1      42.476 -10.457  -3.608  1.00  0.00     0.002 A 
HETATM   14  C   UNL     1      42.995 -10.551  -2.319  1.00  0.00     0.001 A 
HETATM   15  H   UNL     1      40.223 -13.917  -4.467  1.00  0.00     0.165 HD
HETATM   16  C   UNL     1      40.729 -14.571  -2.516  1.00  0.00     0.102 A 
ENDBRANCH   6   7
ENDBRANCH   2   5
BRANCH   1  17
HETATM   17  C   UNL     1      41.753 -17.259   3.459  1.00  0.00     0.280 C 
BRANCH  17  18
HETATM   18  O   UNL     1      43.166 -17.352   3.302  1.00  0.00    -0.342 OA
BRANCH  18  19
HETATM   19  C   UNL     1      43.668 -18.621   3.442  1.00  0.00     0.069 A 
HETATM   20  C   UNL     1      43.689 -19.585   2.428  1.00  0.00     0.043 A 
HETATM   21  C   UNL     1      44.211 -20.863   2.671  1.00  0.00    -0.059 A 
HETATM   22  C   UNL     1      44.253 -21.890   1.578  1.00  0.00     0.048 C 
HETATM   23  C   UNL     1      44.745 -21.155   3.931  1.00  0.00     0.007 A 
HETATM   24  C   UNL     1      44.745 -20.187   4.937  1.00  0.00     0.003 A 
HETATM   25  C   UNL     1      44.213 -18.922   4.689  1.00  0.00     0.037 A 
ENDBRANCH  18  19
ENDBRANCH  17  18
ENDBRANCH   1  17
TORSDOF 5
ENDMDL
MODEL 8
REMARK VINA RESULT:      -7.7      5.858      7.954
REMARK  5 active torsions:
REMARK  status: ('A' for Active; 'I' for Inactive)
REMARK    1  A    between atoms: C_4  and  O_5 
REMARK    2  A    between atoms: O_5  and  C_6 
REMARK    3  A    between atoms: C_6  and  C_7 
REMARK       I    between atoms: C_7  and  N_8 
REMARK    4  A    between atoms: N_8  and  N_9 
REMARK    5  A    between atoms: C_10  and  C_11 
ROOT
HETATM    1  C   UNL     1      42.988 -13.898   2.995  1.00  0.00     0.261 C 
HETATM    2  N   UNL     1      42.451 -15.179   3.083  1.00  0.00    -0.246 N 
HETATM    3  O   UNL     1      44.041 -13.514   3.500  1.00  0.00    -0.269 OA
HETATM    4  H   UNL     1      41.473 -15.285   2.820  1.00  0.00     0.192 HD
ENDROOT
BRANCH   2   5
HETATM    5  N   UNL     1      42.965 -16.247   3.780  1.00  0.00    -0.184 NA
HETATM    6  C   UNL     1      43.326 -17.308   3.132  1.00  0.00     0.152 C 
BRANCH   6   7
HETATM    7  C   UNL     1      43.890 -18.435   3.850  1.00  0.00     0.011 A 
HETATM    8  C   UNL     1      44.037 -19.773   3.355  1.00  0.00     0.004 A 
HETATM    9  C   UNL     1      44.603 -20.537   4.376  1.00  0.00     0.043 A 
HETATM   10  C   UNL     1      43.748 -20.404   2.126  1.00  0.00     0.014 A 
HETATM   11  C   UNL     1      44.887 -21.901   4.234  1.00  0.00     0.030 A 
HETATM   12  N   UNL     1      44.797 -19.697   5.449  1.00  0.00    -0.364 N 
HETATM   13  C   UNL     1      44.591 -22.500   3.006  1.00  0.00     0.002 A 
HETATM   14  C   UNL     1      44.031 -21.765   1.965  1.00  0.00     0.001 A 
HETATM   15  H   UNL     1      45.194 -19.981   6.334  1.00  0.00     0.165 HD
HETATM   16  C   UNL     1      44.378 -18.431   5.142  1.00  0.00     0.102 A 
ENDBRANCH   6   7
ENDBRANCH   2   5
BRANCH   1  17
HETATM   17  C   UNL     1      42.173 -12.981   2.089  1.00  0.00     0.280 C 
BRANCH  17  18
HETATM   18  O   UNL     1      42.166 -13.449   0.744  1.00  0.00    -0.342 OA
BRANCH  18  19
HETATM   19  C   UNL     1      40.922 -13.493   0.167  1.00  0.00     0.069 A 
HETATM   20  C   UNL     1      39.739 -13.088   0.793  1.00  0.00     0.043 A 
HETATM   21  C   UNL     1      38.510 -13.185   0.125  1.00  0.00    -0.059 A 
HETATM   22  C   UNL     1      37.243 -12.731   0.790  1.00  0.00     0.048 C 
HETATM   23  C   UNL     1      38.483 -13.659  -1.191  1.00  0.00     0.007 A 
HETATM   24  C   UNL     1      39.666 -14.043  -1.826  1.00  0.00     0.003 A 
HETATM   25  C   UNL     1      40.882 -13.953  -1.149  1.00  0.00     0.037 A 
ENDBRANCH  18  19
ENDBRANCH  17  18
ENDBRANCH   1  17
TORSDOF 5
ENDMDL
MODEL 9
REMARK VINA RESULT:      -7.7      6.669     10.413
REMARK  5 active torsions:
REMARK  status: ('A' for Active; 'I' for Inactive)
REMARK    1  A    between atoms: C_4  and  O_5 
REMARK    2  A    between atoms: O_5  and  C_6 
REMARK    3  A    between atoms: C_6  and  C_7 
REMARK       I    between atoms: C_7  and  N_8 
REMARK    4  A    between atoms: N_8  and  N_9 
REMARK    5  A    between atoms: C_10  and  C_11 
ROOT
HETATM    1  C   UNL     1      41.271 -15.259   0.295  1.00  0.00     0.261 C 
HETATM    2  N   UNL     1      42.197 -16.287   0.147  1.00  0.00    -0.246 N 
HETATM    3  O   UNL     1      40.513 -15.094   1.249  1.00  0.00    -0.269 OA
HETATM    4  H   UNL     1      42.579 -16.428  -0.787  1.00  0.00     0.192 HD
ENDROOT
BRANCH   2   5
HETATM    5  N   UNL     1      42.418 -17.335   1.010  1.00  0.00    -0.184 NA
HETATM    6  C   UNL     1      43.631 -17.737   1.215  1.00  0.00     0.152 C 
BRANCH   6   7
HETATM    7  C   UNL     1      43.883 -18.827   2.139  1.00  0.00     0.011 A 
HETATM    8  C   UNL     1      44.014 -18.724   3.563  1.00  0.00     0.004 A 
HETATM    9  C   UNL     1      44.271 -20.005   4.053  1.00  0.00     0.043 A 
HETATM   10  C   UNL     1      43.928 -17.658   4.483  1.00  0.00     0.014 A 
HETATM   11  C   UNL     1      44.455 -20.272   5.415  1.00  0.00     0.030 A 
HETATM   12  N   UNL     1      44.293 -20.855   2.970  1.00  0.00    -0.364 N 
HETATM   13  C   UNL     1      44.364 -19.198   6.305  1.00  0.00     0.002 A 
HETATM   14  C   UNL     1      44.104 -17.908   5.849  1.00  0.00     0.001 A 
HETATM   15  H   UNL     1      44.459 -21.850   3.028  1.00  0.00     0.165 HD
HETATM   16  C   UNL     1      44.055 -20.159   1.816  1.00  0.00     0.102 A 
ENDBRANCH   6   7
ENDBRANCH   2   5
BRANCH   1  17
HETATM   17  C   UNL     1      41.340 -14.239  -0.836  1.00  0.00     0.280 C 
BRANCH  17  18
HETATM   18  O   UNL     1      41.375 -14.874  -2.110  1.00  0.00    -0.342 OA
BRANCH  18  19
HETATM   19  C   UNL     1      40.168 -14.905  -2.761  1.00  0.00     0.069 A 
HETATM   20  C   UNL     1      39.238 -13.860  -2.765  1.00  0.00     0.043 A 
HETATM   21  C   UNL     1      38.021 -13.992  -3.448  1.00  0.00    -0.059 A 
HETATM   22  C   UNL     1      37.033 -12.863  -3.469  1.00  0.00     0.048 C 
HETATM   23  C   UNL     1      37.760 -15.169  -4.159  1.00  0.00     0.007 A 
HETATM   24  C   UNL     1      38.697 -16.204  -4.175  1.00  0.00     0.003 A 
HETATM   25  C   UNL     1      39.900 -16.068  -3.482  1.00  0.00     0.037 A 
ENDBRANCH  18  19
ENDBRANCH  17  18
ENDBRANCH   1  17
TORSDOF 5
ENDMDL
MODEL 10
REMARK VINA RESULT:      -7.6      5.074      9.465
REMARK  5 active torsions:
REMARK  status: ('A' for Active; 'I' for Inactive)
REMARK    1  A    between atoms: C_4  and  O_5 
REMARK    2  A    between atoms: O_5  and  C_6 
REMARK    3  A    between atoms: C_6  and  C_7 
REMARK       I    between atoms: C_7  and  N_8 
REMARK    4  A    between atoms: N_8  and  N_9 
REMARK    5  A    between atoms: C_10  and  C_11 
ROOT
HETATM    1  C   UNL     1      43.340 -17.240   6.302  1.00  0.00     0.261 C 
HETATM    2  N   UNL     1      43.235 -16.679   5.033  1.00  0.00    -0.246 N 
HETATM    3  O   UNL     1      42.850 -16.792   7.338  1.00  0.00    -0.269 OA
HETATM    4  H   UNL     1      43.881 -17.026   4.325  1.00  0.00     0.192 HD
ENDROOT
BRANCH   2   5
HETATM    5  N   UNL     1      42.607 -15.504   4.694  1.00  0.00    -0.184 NA
HETATM    6  C   UNL     1      41.353 -15.529   4.373  1.00  0.00     0.152 C 
BRANCH   6   7
HETATM    7  C   UNL     1      40.670 -14.295   4.035  1.00  0.00     0.011 A 
HETATM    8  C   UNL     1      39.722 -14.110   2.976  1.00  0.00     0.004 A 
HETATM    9  C   UNL     1      39.332 -12.770   2.993  1.00  0.00     0.043 A 
HETATM   10  C   UNL     1      39.150 -14.962   2.007  1.00  0.00     0.014 A 
HETATM   11  C   UNL     1      38.406 -12.238   2.086  1.00  0.00     0.030 A 
HETATM   12  N   UNL     1      40.013 -12.165   4.025  1.00  0.00    -0.364 N 
HETATM   13  C   UNL     1      37.856 -13.105   1.137  1.00  0.00     0.002 A 
HETATM   14  C   UNL     1      38.220 -14.449   1.097  1.00  0.00     0.001 A 
HETATM   15  H   UNL     1      39.926 -11.188   4.272  1.00  0.00     0.165 HD
HETATM   16  C   UNL     1      40.815 -13.072   4.661  1.00  0.00     0.102 A 
ENDBRANCH   6   7
ENDBRANCH   2   5
BRANCH   1  17
HETATM   17  C   UNL     1      44.065 -18.581   6.294  1.00  0.00     0.280 C 
BRANCH  17  18
HETATM   18  O   UNL     1      44.785 -18.778   5.081  1.00  0.00    -0.342 OA
BRANCH  18  19
HETATM   19  C   UNL     1      44.679 -20.042   4.560  1.00  0.00     0.069 A 
HETATM   20  C   UNL     1      44.441 -20.331   3.212  1.00  0.00     0.043 A 
HETATM   21  C   UNL     1      44.334 -21.659   2.776  1.00  0.00    -0.059 A 
HETATM   22  C   UNL     1      44.099 -21.970   1.327  1.00  0.00     0.048 C 
HETATM   23  C   UNL     1      44.504 -22.697   3.699  1.00  0.00     0.007 A 
HETATM   24  C   UNL     1      44.765 -22.411   5.041  1.00  0.00     0.003 A 
HETATM   25  C   UNL     1      44.858 -21.086   5.466  1.00  0.00     0.037 A 
ENDBRANCH  18  19
ENDBRANCH  17  18
ENDBRANCH   1  17
TORSDOF 5
ENDMDL
