MODEL 1
REMARK VINA RESULT:      -9.1      0.000      0.000
REMARK  3 active torsions:
REMARK  status: ('A' for Active; 'I' for Inactive)
REMARK    1  A    between atoms: C_8  and  C_9 
REMARK    2  A    between atoms: C_12  and  C_13 
REMARK    3  A    between atoms: C_24  and  N_25 
ROOT
HETATM    1  C   UNL     1      40.268 -16.577  -2.642  1.00  0.00     0.073 C 
HETATM    2  C   UNL     1      41.042 -15.320  -2.503  1.00  0.00     0.062 A 
HETATM    3  N   UNL     1      41.657 -14.779  -3.568  1.00  0.00    -0.177 NA
HETATM    4  N   UNL     1      42.261 -13.675  -3.079  1.00  0.00    -0.256 N 
HETATM    5  H   UNL     1      42.792 -13.087  -3.712  1.00  0.00     0.191 HD
HETATM    6  C   UNL     1      42.041 -13.501  -1.752  1.00  0.00     0.175 A 
HETATM    7  C   UNL     1      41.264 -14.552  -1.337  1.00  0.00     0.034 A 
HETATM    8  C   UNL     1      40.844 -14.653   0.091  1.00  0.00     0.104 A 
HETATM    9  C   UNL     1      41.254 -13.389   0.841  1.00  0.00     0.067 A 
HETATM   10  C   UNL     1      40.608 -13.163   2.198  1.00  0.00     0.020 C 
HETATM   11  N   UNL     1      40.072 -12.974   3.325  1.00  0.00    -0.096 N 
HETATM   12  C   UNL     1      42.022 -12.407   0.295  1.00  0.00     0.139 A 
HETATM   13  O   UNL     1      42.500 -12.487  -1.027  1.00  0.00    -0.279 OA
ENDROOT
BRANCH   8  14
HETATM   14  C   UNL     1      41.506 -15.917   0.622  1.00  0.00    -0.044 A 
HETATM   15  C   UNL     1      40.770 -17.067   0.952  1.00  0.00     0.009 A 
HETATM   16  C   UNL     1      41.396 -18.188   1.508  1.00  0.00     0.013 A 
HETATM   17  C   UNL     1      42.780 -18.210   1.736  1.00  0.00    -0.026 A 
HETATM   18  C   UNL     1      43.518 -17.076   1.361  1.00  0.00     0.013 A 
HETATM   19  C   UNL     1      42.895 -15.947   0.813  1.00  0.00     0.009 A 
BRANCH  17  20
HETATM   20  C   UNL     1      43.427 -19.374   2.372  1.00  0.00    -0.026 A 
HETATM   21  C   UNL     1      44.055 -19.266   3.625  1.00  0.00     0.012 A 
HETATM   22  C   UNL     1      44.692 -20.363   4.212  1.00  0.00     0.001 A 
HETATM   23  C   UNL     1      44.709 -21.592   3.559  1.00  0.00     0.000 A 
HETATM   24  C   UNL     1      44.090 -21.725   2.319  1.00  0.00     0.001 A 
HETATM   25  C   UNL     1      43.457 -20.625   1.733  1.00  0.00     0.012 A 
ENDBRANCH  17  20
ENDBRANCH   8  14
BRANCH  12  26
HETATM   26  N   UNL     1      42.391 -11.240   0.924  1.00  0.00    -0.282 NA
HETATM   27  H   UNL     1      42.449 -10.417   0.327  1.00  0.00     0.126 HD
HETATM   28  H   UNL     1      41.858 -11.077   1.774  1.00  0.00     0.126 HD
ENDBRANCH  12  26
TORSDOF 3
ENDMDL
MODEL 2
REMARK VINA RESULT:      -9.0      1.662      4.006
REMARK  3 active torsions:
REMARK  status: ('A' for Active; 'I' for Inactive)
REMARK    1  A    between atoms: C_8  and  C_9 
REMARK    2  A    between atoms: C_12  and  C_13 
REMARK    3  A    between atoms: C_24  and  N_25 
ROOT
HETATM    1  C   UNL     1      43.251 -13.677   3.754  1.00  0.00     0.073 C 
HETATM    2  C   UNL     1      41.820 -13.591   3.377  1.00  0.00     0.062 A 
HETATM    3  N   UNL     1      40.918 -13.092   4.239  1.00  0.00    -0.177 NA
HETATM    4  N   UNL     1      39.744 -13.177   3.581  1.00  0.00    -0.256 N 
HETATM    5  H   UNL     1      38.901 -12.846   4.037  1.00  0.00     0.191 HD
HETATM    6  C   UNL     1      39.876 -13.704   2.338  1.00  0.00     0.175 A 
HETATM    7  C   UNL     1      41.206 -13.997   2.170  1.00  0.00     0.034 A 
HETATM    8  C   UNL     1      41.683 -14.598   0.891  1.00  0.00     0.104 A 
HETATM    9  C   UNL     1      40.544 -14.626  -0.124  1.00  0.00     0.067 A 
HETATM   10  C   UNL     1      40.929 -14.873  -1.573  1.00  0.00     0.020 C 
HETATM   11  N   UNL     1      41.249 -15.077  -2.777  1.00  0.00    -0.096 N 
HETATM   12  C   UNL     1      39.260 -14.289   0.178  1.00  0.00     0.139 A 
HETATM   13  O   UNL     1      38.885 -13.880   1.472  1.00  0.00    -0.279 OA
ENDROOT
BRANCH   8  14
HETATM   14  C   UNL     1      42.204 -15.980   1.260  1.00  0.00    -0.044 A 
HETATM   15  C   UNL     1      41.345 -17.062   1.519  1.00  0.00     0.009 A 
HETATM   16  C   UNL     1      41.851 -18.300   1.929  1.00  0.00     0.013 A 
HETATM   17  C   UNL     1      43.229 -18.510   2.077  1.00  0.00    -0.026 A 
HETATM   18  C   UNL     1      44.086 -17.440   1.773  1.00  0.00     0.013 A 
HETATM   19  C   UNL     1      43.585 -16.196   1.371  1.00  0.00     0.009 A 
BRANCH  17  20
HETATM   20  C   UNL     1      43.754 -19.802   2.562  1.00  0.00    -0.026 A 
HETATM   21  C   UNL     1      43.643 -20.971   1.789  1.00  0.00     0.012 A 
HETATM   22  C   UNL     1      44.116 -22.198   2.262  1.00  0.00     0.001 A 
HETATM   23  C   UNL     1      44.714 -22.280   3.517  1.00  0.00     0.000 A 
HETATM   24  C   UNL     1      44.839 -21.134   4.298  1.00  0.00     0.001 A 
HETATM   25  C   UNL     1      44.362 -19.909   3.824  1.00  0.00     0.012 A 
ENDBRANCH  17  20
ENDBRANCH   8  14
BRANCH  12  26
HETATM   26  N   UNL     1      38.209 -14.272  -0.711  1.00  0.00    -0.282 NA
HETATM   27  H   UNL     1      37.417 -13.692  -0.444  1.00  0.00     0.126 HD
HETATM   28  H   UNL     1      38.517 -14.109  -1.666  1.00  0.00     0.126 HD
ENDBRANCH  12  26
TORSDOF 3
ENDMDL
MODEL 3
REMARK VINA RESULT:      -9.0      1.997      4.279
REMARK  3 active torsions:
REMARK  status: ('A' for Active; 'I' for Inactive)
REMARK    1  A    between atoms: C_8  and  C_9 
REMARK    2  A    between atoms: C_12  and  C_13 
REMARK    3  A    between atoms: C_24  and  N_25 
ROOT
HETATM    1  C   UNL     1      43.601 -13.640   4.343  1.00  0.00     0.073 C 
HETATM    2  C   UNL     1      42.142 -13.598   4.081  1.00  0.00     0.062 A 
HETATM    3  N   UNL     1      41.301 -13.098   5.001  1.00  0.00    -0.177 NA
HETATM    4  N   UNL     1      40.079 -13.227   4.443  1.00  0.00    -0.256 N 
HETATM    5  H   UNL     1      39.268 -12.904   4.958  1.00  0.00     0.191 HD
HETATM    6  C   UNL     1      40.125 -13.783   3.205  1.00  0.00     0.175 A 
HETATM    7  C   UNL     1      41.443 -14.048   2.937  1.00  0.00     0.034 A 
HETATM    8  C   UNL     1      41.831 -14.671   1.638  1.00  0.00     0.104 A 
HETATM    9  C   UNL     1      40.615 -14.751   0.720  1.00  0.00     0.067 A 
HETATM   10  C   UNL     1      40.889 -15.026  -0.749  1.00  0.00     0.020 C 
HETATM   11  N   UNL     1      41.116 -15.253  -1.970  1.00  0.00    -0.096 N 
HETATM   12  C   UNL     1      39.352 -14.437   1.117  1.00  0.00     0.139 A 
HETATM   13  O   UNL     1      39.072 -14.003   2.427  1.00  0.00    -0.279 OA
ENDROOT
BRANCH   8  14
HETATM   14  C   UNL     1      42.415 -16.030   1.997  1.00  0.00    -0.044 A 
HETATM   15  C   UNL     1      43.598 -16.516   1.415  1.00  0.00     0.009 A 
HETATM   16  C   UNL     1      44.070 -17.800   1.708  1.00  0.00     0.013 A 
HETATM   17  C   UNL     1      43.391 -18.637   2.605  1.00  0.00    -0.026 A 
HETATM   18  C   UNL     1      42.235 -18.130   3.220  1.00  0.00     0.013 A 
HETATM   19  C   UNL     1      41.753 -16.849   2.923  1.00  0.00     0.009 A 
BRANCH  17  20
HETATM   20  C   UNL     1      43.864 -20.010   2.870  1.00  0.00    -0.026 A 
HETATM   21  C   UNL     1      44.384 -20.375   4.124  1.00  0.00     0.012 A 
HETATM   22  C   UNL     1      44.856 -21.668   4.363  1.00  0.00     0.001 A 
HETATM   23  C   UNL     1      44.813 -22.625   3.353  1.00  0.00     0.000 A 
HETATM   24  C   UNL     1      44.298 -22.289   2.104  1.00  0.00     0.001 A 
HETATM   25  C   UNL     1      43.829 -20.994   1.866  1.00  0.00     0.012 A 
ENDBRANCH  17  20
ENDBRANCH   8  14
BRANCH  12  26
HETATM   26  N   UNL     1      38.233 -14.467   0.316  1.00  0.00    -0.282 NA
HETATM   27  H   UNL     1      37.343 -14.376   0.800  1.00  0.00     0.126 HD
HETATM   28  H   UNL     1      38.317 -13.845  -0.483  1.00  0.00     0.126 HD
ENDBRANCH  12  26
TORSDOF 3
ENDMDL
MODEL 4
REMARK VINA RESULT:      -8.5      4.587      7.853
REMARK  3 active torsions:
REMARK  status: ('A' for Active; 'I' for Inactive)
REMARK    1  A    between atoms: C_8  and  C_9 
REMARK    2  A    between atoms: C_12  and  C_13 
REMARK    3  A    between atoms: C_24  and  N_25 
ROOT
HETATM    1  C   UNL     1      44.977 -19.768   2.858  1.00  0.00     0.073 C 
HETATM    2  C   UNL     1      44.511 -19.934   4.256  1.00  0.00     0.062 A 
HETATM    3  N   UNL     1      44.256 -21.159   4.747  1.00  0.00    -0.177 NA
HETATM    4  N   UNL     1      43.849 -20.933   6.013  1.00  0.00    -0.256 N 
HETATM    5  H   UNL     1      43.604 -21.724   6.598  1.00  0.00     0.191 HD
HETATM    6  C   UNL     1      43.846 -19.614   6.336  1.00  0.00     0.175 A 
HETATM    7  C   UNL     1      44.259 -18.931   5.220  1.00  0.00     0.034 A 
HETATM    8  C   UNL     1      44.361 -17.444   5.250  1.00  0.00     0.104 A 
HETATM    9  C   UNL     1      44.127 -16.938   6.670  1.00  0.00     0.067 A 
HETATM   10  C   UNL     1      44.537 -15.503   6.958  1.00  0.00     0.020 C 
HETATM   11  N   UNL     1      44.877 -14.312   7.198  1.00  0.00    -0.096 N 
HETATM   12  C   UNL     1      43.733 -17.739   7.698  1.00  0.00     0.139 A 
HETATM   13  O   UNL     1      43.511 -19.118   7.521  1.00  0.00    -0.279 OA
ENDROOT
BRANCH   8  14
HETATM   14  C   UNL     1      43.330 -16.944   4.248  1.00  0.00    -0.044 A 
HETATM   15  C   UNL     1      43.691 -16.444   2.985  1.00  0.00     0.009 A 
HETATM   16  C   UNL     1      42.729 -15.923   2.115  1.00  0.00     0.013 A 
HETATM   17  C   UNL     1      41.370 -15.898   2.463  1.00  0.00    -0.026 A 
HETATM   18  C   UNL     1      41.008 -16.440   3.707  1.00  0.00     0.013 A 
HETATM   19  C   UNL     1      41.969 -16.955   4.586  1.00  0.00     0.009 A 
BRANCH  17  20
HETATM   20  C   UNL     1      40.366 -15.298   1.564  1.00  0.00    -0.026 A 
HETATM   21  C   UNL     1      40.678 -14.975   0.232  1.00  0.00     0.012 A 
HETATM   22  C   UNL     1      39.732 -14.382  -0.609  1.00  0.00     0.001 A 
HETATM   23  C   UNL     1      38.454 -14.102  -0.135  1.00  0.00     0.000 A 
HETATM   24  C   UNL     1      38.120 -14.417   1.179  1.00  0.00     0.001 A 
HETATM   25  C   UNL     1      39.067 -15.008   2.019  1.00  0.00     0.012 A 
ENDBRANCH  17  20
ENDBRANCH   8  14
BRANCH  12  26
HETATM   26  N   UNL     1      43.538 -17.332   8.998  1.00  0.00    -0.282 NA
HETATM   27  H   UNL     1      44.124 -16.562   9.311  1.00  0.00     0.126 HD
HETATM   28  H   UNL     1      42.554 -17.194   9.213  1.00  0.00     0.126 HD
ENDBRANCH  12  26
TORSDOF 3
ENDMDL
MODEL 5
REMARK VINA RESULT:      -8.2      5.445      7.430
REMARK  3 active torsions:
REMARK  status: ('A' for Active; 'I' for Inactive)
REMARK    1  A    between atoms: C_8  and  C_9 
REMARK    2  A    between atoms: C_12  and  C_13 
REMARK    3  A    between atoms: C_24  and  N_25 
ROOT
HETATM    1  C   UNL     1      43.825 -19.659   6.141  1.00  0.00     0.073 C 
HETATM    2  C   UNL     1      43.985 -19.456   4.681  1.00  0.00     0.062 A 
HETATM    3  N   UNL     1      44.799 -20.254   3.969  1.00  0.00    -0.177 NA
HETATM    4  N   UNL     1      44.712 -19.781   2.708  1.00  0.00    -0.256 N 
HETATM    5  H   UNL     1      45.243 -20.238   1.975  1.00  0.00     0.191 HD
HETATM    6  C   UNL     1      43.868 -18.723   2.602  1.00  0.00     0.175 A 
HETATM    7  C   UNL     1      43.384 -18.474   3.861  1.00  0.00     0.034 A 
HETATM    8  C   UNL     1      42.421 -17.356   4.083  1.00  0.00     0.104 A 
HETATM    9  C   UNL     1      42.001 -16.761   2.742  1.00  0.00     0.067 A 
HETATM   10  C   UNL     1      40.775 -15.863   2.750  1.00  0.00     0.020 C 
HETATM   11  N   UNL     1      39.757 -15.118   2.756  1.00  0.00    -0.096 N 
HETATM   12  C   UNL     1      42.560 -17.119   1.553  1.00  0.00     0.139 A 
HETATM   13  O   UNL     1      43.583 -18.083   1.474  1.00  0.00    -0.279 OA
ENDROOT
BRANCH   8  14
HETATM   14  C   UNL     1      43.146 -16.368   4.987  1.00  0.00    -0.044 A 
HETATM   15  C   UNL     1      43.357 -16.616   6.354  1.00  0.00     0.009 A 
HETATM   16  C   UNL     1      43.958 -15.658   7.175  1.00  0.00     0.013 A 
HETATM   17  C   UNL     1      44.389 -14.426   6.661  1.00  0.00    -0.026 A 
HETATM   18  C   UNL     1      44.218 -14.200   5.285  1.00  0.00     0.013 A 
HETATM   19  C   UNL     1      43.607 -15.153   4.460  1.00  0.00     0.009 A 
BRANCH  17  20
HETATM   20  C   UNL     1      44.974 -13.397   7.542  1.00  0.00    -0.026 A 
HETATM   21  C   UNL     1      44.254 -12.871   8.629  1.00  0.00     0.012 A 
HETATM   22  C   UNL     1      44.801 -11.876   9.446  1.00  0.00     0.001 A 
HETATM   23  C   UNL     1      46.081 -11.391   9.194  1.00  0.00     0.000 A 
HETATM   24  C   UNL     1      46.815 -11.900   8.126  1.00  0.00     0.001 A 
HETATM   25  C   UNL     1      46.265 -12.892   7.309  1.00  0.00     0.012 A 
ENDBRANCH  17  20
ENDBRANCH   8  14
BRANCH  12  26
HETATM   26  N   UNL     1      42.193 -16.631   0.320  1.00  0.00    -0.282 NA
HETATM   27  H   UNL     1      42.881 -16.744  -0.421  1.00  0.00     0.126 HD
HETATM   28  H   UNL     1      41.262 -16.937   0.048  1.00  0.00     0.126 HD
ENDBRANCH  12  26
TORSDOF 3
ENDMDL
MODEL 6
REMARK VINA RESULT:      -8.1      4.683      7.832
REMARK  3 active torsions:
REMARK  status: ('A' for Active; 'I' for Inactive)
REMARK    1  A    between atoms: C_8  and  C_9 
REMARK    2  A    between atoms: C_12  and  C_13 
REMARK    3  A    between atoms: C_24  and  N_25 
ROOT
HETATM    1  C   UNL     1      44.142 -17.805   2.192  1.00  0.00     0.073 C 
HETATM    2  C   UNL     1      43.887 -18.354   3.545  1.00  0.00     0.062 A 
HETATM    3  N   UNL     1      43.730 -19.677   3.723  1.00  0.00    -0.177 NA
HETATM    4  N   UNL     1      43.507 -19.811   5.047  1.00  0.00    -0.256 N 
HETATM    5  H   UNL     1      43.364 -20.740   5.429  1.00  0.00     0.191 HD
HETATM    6  C   UNL     1      43.527 -18.624   5.705  1.00  0.00     0.175 A 
HETATM    7  C   UNL     1      43.760 -17.653   4.766  1.00  0.00     0.034 A 
HETATM    8  C   UNL     1      43.838 -16.221   5.176  1.00  0.00     0.104 A 
HETATM    9  C   UNL     1      43.804 -16.116   6.698  1.00  0.00     0.067 A 
HETATM   10  C   UNL     1      44.224 -14.784   7.298  1.00  0.00     0.020 C 
HETATM   11  N   UNL     1      44.574 -13.679   7.796  1.00  0.00    -0.096 N 
HETATM   12  C   UNL     1      43.578 -17.177   7.520  1.00  0.00     0.139 A 
HETATM   13  O   UNL     1      43.358 -18.473   7.014  1.00  0.00    -0.279 OA
ENDROOT
BRANCH   8  14
HETATM   14  C   UNL     1      42.663 -15.536   4.491  1.00  0.00    -0.044 A 
HETATM   15  C   UNL     1      41.335 -15.730   4.907  1.00  0.00     0.009 A 
HETATM   16  C   UNL     1      40.271 -15.147   4.212  1.00  0.00     0.013 A 
HETATM   17  C   UNL     1      40.492 -14.335   3.090  1.00  0.00    -0.026 A 
HETATM   18  C   UNL     1      41.824 -14.106   2.705  1.00  0.00     0.013 A 
HETATM   19  C   UNL     1      42.892 -14.695   3.393  1.00  0.00     0.009 A 
BRANCH  17  20
HETATM   20  C   UNL     1      39.364 -13.766   2.328  1.00  0.00    -0.026 A 
HETATM   21  C   UNL     1      38.592 -14.561   1.463  1.00  0.00     0.012 A 
HETATM   22  C   UNL     1      37.540 -14.014   0.722  1.00  0.00     0.001 A 
HETATM   23  C   UNL     1      37.237 -12.660   0.835  1.00  0.00     0.000 A 
HETATM   24  C   UNL     1      37.984 -11.854   1.689  1.00  0.00     0.001 A 
HETATM   25  C   UNL     1      39.037 -12.402   2.426  1.00  0.00     0.012 A 
ENDBRANCH  17  20
ENDBRANCH   8  14
BRANCH  12  26
HETATM   26  N   UNL     1      43.567 -17.134   8.895  1.00  0.00    -0.282 NA
HETATM   27  H   UNL     1      43.588 -16.204   9.306  1.00  0.00     0.126 HD
HETATM   28  H   UNL     1      42.843 -17.727   9.291  1.00  0.00     0.126 HD
ENDBRANCH  12  26
TORSDOF 3
ENDMDL
MODEL 7
REMARK VINA RESULT:      -7.6      2.024      4.531
REMARK  3 active torsions:
REMARK  status: ('A' for Active; 'I' for Inactive)
REMARK    1  A    between atoms: C_8  and  C_9 
REMARK    2  A    between atoms: C_12  and  C_13 
REMARK    3  A    between atoms: C_24  and  N_25 
ROOT
HETATM    1  C   UNL     1      42.248 -12.920   5.408  1.00  0.00     0.073 C 
HETATM    2  C   UNL     1      40.953 -12.823   4.693  1.00  0.00     0.062 A 
HETATM    3  N   UNL     1      39.827 -12.526   5.363  1.00  0.00    -0.177 NA
HETATM    4  N   UNL     1      38.863 -12.536   4.418  1.00  0.00    -0.256 N 
HETATM    5  H   UNL     1      37.909 -12.327   4.689  1.00  0.00     0.191 HD
HETATM    6  C   UNL     1      39.345 -12.822   3.182  1.00  0.00     0.175 A 
HETATM    7  C   UNL     1      40.694 -13.025   3.318  1.00  0.00     0.034 A 
HETATM    8  C   UNL     1      41.522 -13.364   2.124  1.00  0.00     0.104 A 
HETATM    9  C   UNL     1      40.677 -13.251   0.859  1.00  0.00     0.067 A 
HETATM   10  C   UNL     1      41.430 -13.214  -0.461  1.00  0.00     0.020 C 
HETATM   11  N   UNL     1      42.054 -13.182  -1.557  1.00  0.00    -0.096 N 
HETATM   12  C   UNL     1      39.335 -13.026   0.869  1.00  0.00     0.139 A 
HETATM   13  O   UNL     1      38.617 -12.875   2.072  1.00  0.00    -0.279 OA
ENDROOT
BRANCH   8  14
HETATM   14  C   UNL     1      42.051 -14.768   2.381  1.00  0.00    -0.044 A 
HETATM   15  C   UNL     1      43.417 -15.033   2.575  1.00  0.00     0.009 A 
HETATM   16  C   UNL     1      43.882 -16.342   2.734  1.00  0.00     0.013 A 
HETATM   17  C   UNL     1      43.000 -17.433   2.724  1.00  0.00    -0.026 A 
HETATM   18  C   UNL     1      41.631 -17.161   2.576  1.00  0.00     0.013 A 
HETATM   19  C   UNL     1      41.161 -15.852   2.407  1.00  0.00     0.009 A 
BRANCH  17  20
HETATM   20  C   UNL     1      43.501 -18.816   2.838  1.00  0.00    -0.026 A 
HETATM   21  C   UNL     1      43.307 -19.751   1.806  1.00  0.00     0.012 A 
HETATM   22  C   UNL     1      43.758 -21.069   1.928  1.00  0.00     0.001 A 
HETATM   23  C   UNL     1      44.418 -21.476   3.084  1.00  0.00     0.000 A 
HETATM   24  C   UNL     1      44.627 -20.567   4.118  1.00  0.00     0.001 A 
HETATM   25  C   UNL     1      44.172 -19.252   3.995  1.00  0.00     0.012 A 
ENDBRANCH  17  20
ENDBRANCH   8  14
BRANCH  12  26
HETATM   26  N   UNL     1      38.540 -12.889  -0.245  1.00  0.00    -0.282 NA
HETATM   27  H   UNL     1      38.680 -13.585  -0.974  1.00  0.00     0.126 HD
HETATM   28  H   UNL     1      37.561 -12.757  -0.004  1.00  0.00     0.126 HD
ENDBRANCH  12  26
TORSDOF 3
ENDMDL
MODEL 8
REMARK VINA RESULT:      -7.5      2.124      3.224
REMARK  3 active torsions:
REMARK  status: ('A' for Active; 'I' for Inactive)
REMARK    1  A    between atoms: C_8  and  C_9 
REMARK    2  A    between atoms: C_12  and  C_13 
REMARK    3  A    between atoms: C_24  and  N_25 
ROOT
HETATM    1  C   UNL     1      43.196 -12.675  -1.777  1.00  0.00     0.073 C 
HETATM    2  C   UNL     1      42.554 -11.794  -0.772  1.00  0.00     0.062 A 
HETATM    3  N   UNL     1      43.086 -10.596  -0.479  1.00  0.00    -0.177 NA
HETATM    4  N   UNL     1      42.266 -10.087   0.463  1.00  0.00    -0.256 N 
HETATM    5  H   UNL     1      42.465  -9.167   0.841  1.00  0.00     0.191 HD
HETATM    6  C   UNL     1      41.237 -10.918   0.766  1.00  0.00     0.175 A 
HETATM    7  C   UNL     1      41.392 -12.041  -0.005  1.00  0.00     0.034 A 
HETATM    8  C   UNL     1      40.410 -13.159   0.097  1.00  0.00     0.104 A 
HETATM    9  C   UNL     1      39.243 -12.742   0.987  1.00  0.00     0.067 A 
HETATM   10  C   UNL     1      37.994 -13.607   0.921  1.00  0.00     0.020 C 
HETATM   11  N   UNL     1      36.957 -14.324   0.866  1.00  0.00    -0.096 N 
HETATM   12  C   UNL     1      39.212 -11.577   1.690  1.00  0.00     0.139 A 
HETATM   13  O   UNL     1      40.274 -10.654   1.643  1.00  0.00    -0.279 OA
ENDROOT
BRANCH   8  14
HETATM   14  C   UNL     1      41.197 -14.344   0.640  1.00  0.00    -0.044 A 
HETATM   15  C   UNL     1      41.332 -15.546  -0.075  1.00  0.00     0.009 A 
HETATM   16  C   UNL     1      41.998 -16.643   0.482  1.00  0.00     0.013 A 
HETATM   17  C   UNL     1      42.568 -16.576   1.761  1.00  0.00    -0.026 A 
HETATM   18  C   UNL     1      42.471 -15.358   2.453  1.00  0.00     0.013 A 
HETATM   19  C   UNL     1      41.797 -14.259   1.904  1.00  0.00     0.009 A 
BRANCH  17  20
HETATM   20  C   UNL     1      43.222 -17.753   2.365  1.00  0.00    -0.026 A 
HETATM   21  C   UNL     1      43.358 -18.958   1.653  1.00  0.00     0.012 A 
HETATM   22  C   UNL     1      43.953 -20.080   2.237  1.00  0.00     0.001 A 
HETATM   23  C   UNL     1      44.429 -20.017   3.544  1.00  0.00     0.000 A 
HETATM   24  C   UNL     1      44.310 -18.834   4.267  1.00  0.00     0.001 A 
HETATM   25  C   UNL     1      43.712 -17.714   3.682  1.00  0.00     0.012 A 
ENDBRANCH  17  20
ENDBRANCH   8  14
BRANCH  12  26
HETATM   26  N   UNL     1      38.170 -11.149   2.480  1.00  0.00    -0.282 NA
HETATM   27  H   UNL     1      37.844 -11.814   3.177  1.00  0.00     0.126 HD
HETATM   28  H   UNL     1      38.335 -10.221   2.862  1.00  0.00     0.126 HD
ENDBRANCH  12  26
TORSDOF 3
ENDMDL
MODEL 9
REMARK VINA RESULT:      -7.4      4.187      8.069
REMARK  3 active torsions:
REMARK  status: ('A' for Active; 'I' for Inactive)
REMARK    1  A    between atoms: C_8  and  C_9 
REMARK    2  A    between atoms: C_12  and  C_13 
REMARK    3  A    between atoms: C_24  and  N_25 
ROOT
HETATM    1  C   UNL     1      40.576 -16.658   6.304  1.00  0.00     0.073 C 
HETATM    2  C   UNL     1      41.943 -17.195   6.507  1.00  0.00     0.062 A 
HETATM    3  N   UNL     1      42.601 -16.962   7.655  1.00  0.00    -0.177 NA
HETATM    4  N   UNL     1      43.791 -17.576   7.488  1.00  0.00    -0.256 N 
HETATM    5  H   UNL     1      44.469 -17.544   8.241  1.00  0.00     0.191 HD
HETATM    6  C   UNL     1      43.900 -18.190   6.282  1.00  0.00     0.175 A 
HETATM    7  C   UNL     1      42.727 -17.959   5.611  1.00  0.00     0.034 A 
HETATM    8  C   UNL     1      42.530 -18.508   4.238  1.00  0.00     0.104 A 
HETATM    9  C   UNL     1      43.693 -19.428   3.878  1.00  0.00     0.067 A 
HETATM   10  C   UNL     1      43.492 -20.341   2.680  1.00  0.00     0.020 C 
HETATM   11  N   UNL     1      43.326 -21.100   1.685  1.00  0.00    -0.096 N 
HETATM   12  C   UNL     1      44.801 -19.578   4.655  1.00  0.00     0.139 A 
HETATM   13  O   UNL     1      44.955 -18.884   5.870  1.00  0.00    -0.279 OA
ENDROOT
BRANCH   8  14
HETATM   14  C   UNL     1      42.409 -17.294   3.328  1.00  0.00    -0.044 A 
HETATM   15  C   UNL     1      43.246 -16.172   3.456  1.00  0.00     0.009 A 
HETATM   16  C   UNL     1      43.062 -15.041   2.654  1.00  0.00     0.013 A 
HETATM   17  C   UNL     1      42.051 -14.994   1.683  1.00  0.00    -0.026 A 
HETATM   18  C   UNL     1      41.247 -16.135   1.526  1.00  0.00     0.013 A 
HETATM   19  C   UNL     1      41.421 -17.266   2.333  1.00  0.00     0.009 A 
BRANCH  17  20
HETATM   20  C   UNL     1      41.827 -13.779   0.877  1.00  0.00    -0.026 A 
HETATM   21  C   UNL     1      42.084 -12.499   1.398  1.00  0.00     0.012 A 
HETATM   22  C   UNL     1      41.845 -11.348   0.642  1.00  0.00     0.001 A 
HETATM   23  C   UNL     1      41.348 -11.454  -0.654  1.00  0.00     0.000 A 
HETATM   24  C   UNL     1      41.091 -12.711  -1.194  1.00  0.00     0.001 A 
HETATM   25  C   UNL     1      41.327 -13.861  -0.435  1.00  0.00     0.012 A 
ENDBRANCH  17  20
ENDBRANCH   8  14
BRANCH  12  26
HETATM   26  N   UNL     1      45.858 -20.416   4.383  1.00  0.00    -0.282 NA
HETATM   27  H   UNL     1      46.444 -20.145   3.598  1.00  0.00     0.126 HD
HETATM   28  H   UNL     1      46.392 -20.642   5.218  1.00  0.00     0.126 HD
ENDBRANCH  12  26
TORSDOF 3
ENDMDL
MODEL 10
REMARK VINA RESULT:      -7.0      3.702      7.255
REMARK  3 active torsions:
REMARK  status: ('A' for Active; 'I' for Inactive)
REMARK    1  A    between atoms: C_8  and  C_9 
REMARK    2  A    between atoms: C_12  and  C_13 
REMARK    3  A    between atoms: C_24  and  N_25 
ROOT
HETATM    1  C   UNL     1      43.388 -16.965   1.499  1.00  0.00     0.073 C 
HETATM    2  C   UNL     1      42.617 -17.027   2.764  1.00  0.00     0.062 A 
HETATM    3  N   UNL     1      42.431 -18.202   3.390  1.00  0.00    -0.177 NA
HETATM    4  N   UNL     1      41.692 -17.889   4.474  1.00  0.00    -0.256 N 
HETATM    5  H   UNL     1      41.427 -18.627   5.117  1.00  0.00     0.191 HD
HETATM    6  C   UNL     1      41.414 -16.563   4.555  1.00  0.00     0.175 A 
HETATM    7  C   UNL     1      41.987 -15.969   3.460  1.00  0.00     0.034 A 
HETATM    8  C   UNL     1      41.859 -14.497   3.254  1.00  0.00     0.104 A 
HETATM    9  C   UNL     1      41.206 -13.860   4.477  1.00  0.00     0.067 A 
HETATM   10  C   UNL     1      41.315 -12.349   4.597  1.00  0.00     0.020 C 
HETATM   11  N   UNL     1      41.405 -11.094   4.696  1.00  0.00    -0.096 N 
HETATM   12  C   UNL     1      40.689 -14.576   5.513  1.00  0.00     0.139 A 
HETATM   13  O   UNL     1      40.724 -15.984   5.531  1.00  0.00    -0.279 OA
ENDROOT
BRANCH   8  14
HETATM   14  C   UNL     1      41.049 -14.334   1.976  1.00  0.00    -0.044 A 
HETATM   15  C   UNL     1      41.624 -13.884   0.775  1.00  0.00     0.009 A 
HETATM   16  C   UNL     1      40.840 -13.672  -0.363  1.00  0.00     0.013 A 
HETATM   17  C   UNL     1      39.459 -13.918  -0.352  1.00  0.00    -0.026 A 
HETATM   18  C   UNL     1      38.896 -14.411   0.836  1.00  0.00     0.013 A 
HETATM   19  C   UNL     1      39.675 -14.617   1.982  1.00  0.00     0.009 A 
BRANCH  17  20
HETATM   20  C   UNL     1      38.628 -13.641  -1.540  1.00  0.00    -0.026 A 
HETATM   21  C   UNL     1      37.886 -12.452  -1.651  1.00  0.00     0.012 A 
HETATM   22  C   UNL     1      37.078 -12.205  -2.764  1.00  0.00     0.001 A 
HETATM   23  C   UNL     1      36.999 -13.141  -3.792  1.00  0.00     0.000 A 
HETATM   24  C   UNL     1      37.728 -14.324  -3.706  1.00  0.00     0.001 A 
HETATM   25  C   UNL     1      38.533 -14.570  -2.590  1.00  0.00     0.012 A 
ENDBRANCH  17  20
ENDBRANCH   8  14
BRANCH  12  26
HETATM   26  N   UNL     1      40.118 -14.044   6.646  1.00  0.00    -0.282 NA
HETATM   27  H   UNL     1      39.111 -13.904   6.607  1.00  0.00     0.126 HD
HETATM   28  H   UNL     1      40.420 -14.524   7.489  1.00  0.00     0.126 HD
ENDBRANCH  12  26
TORSDOF 3
ENDMDL
