MODEL 1
REMARK VINA RESULT:      -7.9      0.000      0.000
REMARK  8 active torsions:
REMARK  status: ('A' for Active; 'I' for Inactive)
REMARK    1  A    between atoms: C_2  and  O_3 
REMARK    2  A    between atoms: O_3  and  C_4 
REMARK    3  A    between atoms: C_6  and  O_7 
REMARK    4  A    between atoms: O_7  and  C_8 
REMARK    5  A    between atoms: C_11  and  C_12 
REMARK       I    between atoms: C_12  and  N_13 
REMARK    6  A    between atoms: N_13  and  C_14 
REMARK    7  A    between atoms: C_14  and  N_15 
REMARK    8  A    between atoms: N_15  and  C_16 
ROOT
HETATM    1  C   UNL     1      40.901 -14.771   4.835  1.00  0.00     0.237 C 
HETATM    2  N   UNL     1      41.336 -14.630   3.529  1.00  0.00    -0.201 NA
HETATM    3  O   UNL     1      39.849 -14.278   5.227  1.00  0.00    -0.274 OA
HETATM    4  H   UNL     1      40.904 -13.788   3.160  1.00  0.00     0.139 HD
ENDROOT
BRANCH   2   5
HETATM    5  C   UNL     1      41.237 -15.565   2.524  1.00  0.00     0.157 C 
HETATM    6  S   UNL     1      39.856 -15.966   1.672  1.00  0.00    -0.047 SA
BRANCH   5   7
HETATM    7  N   UNL     1      42.416 -16.152   2.133  1.00  0.00    -0.337 N 
HETATM    8  H   UNL     1      42.820 -15.715   1.310  1.00  0.00     0.168 HD
BRANCH   7   9
HETATM    9  C   UNL     1      43.089 -17.301   2.612  1.00  0.00     0.036 A 
HETATM   10  C   UNL     1      43.007 -18.454   1.811  1.00  0.00     0.061 A 
HETATM   11  C   UNL     1      43.613 -19.597   2.283  1.00  0.00     0.065 A 
HETATM   12  C   UNL     1      44.278 -19.635   3.505  1.00  0.00     0.063 A 
HETATM   13  N   UNL     1      43.684 -20.866   1.719  1.00  0.00    -0.306 N 
HETATM   14  N   UNL     1      44.754 -20.926   3.696  1.00  0.00    -0.307 N 
HETATM   15  C   UNL     1      44.370 -18.535   4.317  1.00  0.00     0.034 A 
HETATM   16  C   UNL     1      44.389 -21.709   2.591  1.00  0.00     0.325 A 
HETATM   17  H   UNL     1      45.264 -21.281   4.488  1.00  0.00     0.170 HD
HETATM   18  O   UNL     1      44.631 -22.890   2.423  1.00  0.00    -0.247 OA
HETATM   19  C   UNL     1      43.759 -17.357   3.859  1.00  0.00     0.032 A 
HETATM   20  H   UNL     1      43.295 -21.172   0.842  1.00  0.00     0.170 HD
ENDBRANCH   7   9
ENDBRANCH   5   7
ENDBRANCH   2   5
BRANCH   1  21
HETATM   21  C   UNL     1      41.935 -15.209   5.803  1.00  0.00     0.032 A 
HETATM   22  C   UNL     1      43.028 -14.349   5.972  1.00  0.00     0.053 A 
HETATM   23  C   UNL     1      44.073 -14.719   6.810  1.00  0.00     0.072 A 
HETATM   24  C   UNL     1      44.025 -15.944   7.474  1.00  0.00     0.073 A 
HETATM   25  C   UNL     1      42.919 -16.789   7.340  1.00  0.00     0.072 A 
HETATM   26  C   UNL     1      41.874 -16.427   6.486  1.00  0.00     0.053 A 
BRANCH  23  27
HETATM   27  O   UNL     1      45.211 -13.981   6.962  1.00  0.00    -0.351 OA
BRANCH  27  28
HETATM   28  C   UNL     1      45.146 -12.983   7.987  1.00  0.00     0.171 C 
HETATM   29  C   UNL     1      46.480 -12.268   8.101  1.00  0.00     0.034 C 
ENDBRANCH  27  28
ENDBRANCH  23  27
BRANCH  25  30
HETATM   30  O   UNL     1      42.990 -17.930   8.090  1.00  0.00    -0.351 OA
BRANCH  30  31
HETATM   31  C   UNL     1      44.188 -18.702   8.007  1.00  0.00     0.171 C 
HETATM   32  C   UNL     1      43.803 -20.109   7.584  1.00  0.00     0.034 C 
ENDBRANCH  30  31
ENDBRANCH  25  30
ENDBRANCH   1  21
TORSDOF 8
ENDMDL
MODEL 2
REMARK VINA RESULT:      -7.5      2.483      6.122
REMARK  8 active torsions:
REMARK  status: ('A' for Active; 'I' for Inactive)
REMARK    1  A    between atoms: C_2  and  O_3 
REMARK    2  A    between atoms: O_3  and  C_4 
REMARK    3  A    between atoms: C_6  and  O_7 
REMARK    4  A    between atoms: O_7  and  C_8 
REMARK    5  A    between atoms: C_11  and  C_12 
REMARK       I    between atoms: C_12  and  N_13 
REMARK    6  A    between atoms: N_13  and  C_14 
REMARK    7  A    between atoms: C_14  and  N_15 
REMARK    8  A    between atoms: N_15  and  C_16 
ROOT
HETATM    1  C   UNL     1      41.142 -17.174   1.565  1.00  0.00     0.237 C 
HETATM    2  N   UNL     1      40.685 -15.886   1.780  1.00  0.00    -0.201 NA
HETATM    3  O   UNL     1      40.600 -17.933   0.770  1.00  0.00    -0.274 OA
HETATM    4  H   UNL     1      39.702 -15.873   1.527  1.00  0.00     0.139 HD
ENDROOT
BRANCH   2   5
HETATM    5  C   UNL     1      41.215 -14.727   1.258  1.00  0.00     0.157 C 
HETATM    6  S   UNL     1      40.609 -13.849  -0.029  1.00  0.00    -0.047 SA
BRANCH   5   7
HETATM    7  N   UNL     1      42.295 -14.207   1.928  1.00  0.00    -0.337 N 
HETATM    8  H   UNL     1      43.146 -14.221   1.374  1.00  0.00     0.168 HD
BRANCH   7   9
HETATM    9  C   UNL     1      42.437 -13.762   3.264  1.00  0.00     0.036 A 
HETATM   10  C   UNL     1      43.593 -14.184   3.944  1.00  0.00     0.061 A 
HETATM   11  C   UNL     1      43.727 -13.803   5.261  1.00  0.00     0.065 A 
HETATM   12  C   UNL     1      42.766 -13.039   5.915  1.00  0.00     0.063 A 
HETATM   13  N   UNL     1      44.744 -14.078   6.169  1.00  0.00    -0.306 N 
HETATM   14  N   UNL     1      43.186 -12.846   7.225  1.00  0.00    -0.307 N 
HETATM   15  C   UNL     1      41.622 -12.617   5.288  1.00  0.00     0.034 A 
HETATM   16  C   UNL     1      44.418 -13.492   7.402  1.00  0.00     0.325 A 
HETATM   17  H   UNL     1      42.706 -12.349   7.957  1.00  0.00     0.170 HD
HETATM   18  O   UNL     1      45.075 -13.540   8.425  1.00  0.00    -0.247 OA
HETATM   19  C   UNL     1      41.461 -12.994   3.945  1.00  0.00     0.032 A 
HETATM   20  H   UNL     1      45.580 -14.616   6.012  1.00  0.00     0.170 HD
ENDBRANCH   7   9
ENDBRANCH   5   7
ENDBRANCH   2   5
BRANCH   1  21
HETATM   21  C   UNL     1      42.061 -17.701   2.603  1.00  0.00     0.032 A 
HETATM   22  C   UNL     1      43.074 -18.558   2.156  1.00  0.00     0.053 A 
HETATM   23  C   UNL     1      43.934 -19.148   3.075  1.00  0.00     0.072 A 
HETATM   24  C   UNL     1      43.780 -18.882   4.434  1.00  0.00     0.073 A 
HETATM   25  C   UNL     1      42.796 -17.996   4.884  1.00  0.00     0.072 A 
HETATM   26  C   UNL     1      41.920 -17.414   3.964  1.00  0.00     0.053 A 
BRANCH  23  27
HETATM   27  O   UNL     1      44.889 -20.061   2.730  1.00  0.00    -0.351 OA
BRANCH  27  28
HETATM   28  C   UNL     1      44.502 -21.428   2.903  1.00  0.00     0.171 C 
HETATM   29  C   UNL     1      44.050 -22.011   1.576  1.00  0.00     0.034 C 
ENDBRANCH  27  28
ENDBRANCH  23  27
BRANCH  25  30
HETATM   30  O   UNL     1      42.798 -17.794   6.236  1.00  0.00    -0.351 OA
BRANCH  30  31
HETATM   31  C   UNL     1      44.056 -17.559   6.867  1.00  0.00     0.171 C 
HETATM   32  C   UNL     1      44.181 -18.535   8.025  1.00  0.00     0.034 C 
ENDBRANCH  30  31
ENDBRANCH  25  30
ENDBRANCH   1  21
TORSDOF 8
ENDMDL
MODEL 3
REMARK VINA RESULT:      -7.4      4.291      7.363
REMARK  8 active torsions:
REMARK  status: ('A' for Active; 'I' for Inactive)
REMARK    1  A    between atoms: C_2  and  O_3 
REMARK    2  A    between atoms: O_3  and  C_4 
REMARK    3  A    between atoms: C_6  and  O_7 
REMARK    4  A    between atoms: O_7  and  C_8 
REMARK    5  A    between atoms: C_11  and  C_12 
REMARK       I    between atoms: C_12  and  N_13 
REMARK    6  A    between atoms: N_13  and  C_14 
REMARK    7  A    between atoms: C_14  and  N_15 
REMARK    8  A    between atoms: N_15  and  C_16 
ROOT
HETATM    1  C   UNL     1      41.262 -17.267   1.687  1.00  0.00     0.237 C 
HETATM    2  N   UNL     1      40.949 -15.924   1.805  1.00  0.00    -0.201 NA
HETATM    3  O   UNL     1      40.620 -18.023   0.966  1.00  0.00    -0.274 OA
HETATM    4  H   UNL     1      39.966 -15.825   1.570  1.00  0.00     0.139 HD
ENDROOT
BRANCH   2   5
HETATM    5  C   UNL     1      41.585 -14.874   1.181  1.00  0.00     0.157 C 
HETATM    6  S   UNL     1      42.202 -13.507   1.918  1.00  0.00    -0.047 SA
BRANCH   5   7
HETATM    7  N   UNL     1      41.805 -15.023  -0.166  1.00  0.00    -0.337 N 
HETATM    8  H   UNL     1      42.787 -15.152  -0.393  1.00  0.00     0.168 HD
BRANCH   7   9
HETATM    9  C   UNL     1      40.927 -14.924  -1.271  1.00  0.00     0.036 A 
HETATM   10  C   UNL     1      39.905 -13.964  -1.174  1.00  0.00     0.061 A 
HETATM   11  C   UNL     1      39.009 -13.886  -2.218  1.00  0.00     0.065 A 
HETATM   12  C   UNL     1      39.088 -14.719  -3.328  1.00  0.00     0.063 A 
HETATM   13  N   UNL     1      37.910 -13.051  -2.387  1.00  0.00    -0.306 N 
HETATM   14  N   UNL     1      38.036 -14.403  -4.180  1.00  0.00    -0.307 N 
HETATM   15  C   UNL     1      40.064 -15.673  -3.454  1.00  0.00     0.034 A 
HETATM   16  C   UNL     1      37.288 -13.366  -3.605  1.00  0.00     0.325 A 
HETATM   17  H   UNL     1      37.808 -14.835  -5.060  1.00  0.00     0.170 HD
HETATM   18  O   UNL     1      36.291 -12.843  -4.068  1.00  0.00    -0.247 OA
HETATM   19  C   UNL     1      40.989 -15.774  -2.403  1.00  0.00     0.032 A 
HETATM   20  H   UNL     1      37.573 -12.341  -1.757  1.00  0.00     0.170 HD
ENDBRANCH   7   9
ENDBRANCH   5   7
ENDBRANCH   2   5
BRANCH   1  21
HETATM   21  C   UNL     1      42.147 -17.807   2.747  1.00  0.00     0.032 A 
HETATM   22  C   UNL     1      43.166 -18.668   2.323  1.00  0.00     0.053 A 
HETATM   23  C   UNL     1      43.996 -19.269   3.262  1.00  0.00     0.072 A 
HETATM   24  C   UNL     1      43.805 -19.010   4.618  1.00  0.00     0.073 A 
HETATM   25  C   UNL     1      42.814 -18.121   5.046  1.00  0.00     0.072 A 
HETATM   26  C   UNL     1      41.969 -17.527   4.106  1.00  0.00     0.053 A 
BRANCH  23  27
HETATM   27  O   UNL     1      44.954 -20.187   2.940  1.00  0.00    -0.351 OA
BRANCH  27  28
HETATM   28  C   UNL     1      44.506 -21.546   2.939  1.00  0.00     0.171 C 
HETATM   29  C   UNL     1      44.111 -21.961   1.532  1.00  0.00     0.034 C 
ENDBRANCH  27  28
ENDBRANCH  23  27
BRANCH  25  30
HETATM   30  O   UNL     1      42.779 -17.927   6.399  1.00  0.00    -0.351 OA
BRANCH  30  31
HETATM   31  C   UNL     1      42.527 -16.605   6.871  1.00  0.00     0.171 C 
HETATM   32  C   UNL     1      43.869 -15.927   7.087  1.00  0.00     0.034 C 
ENDBRANCH  30  31
ENDBRANCH  25  30
ENDBRANCH   1  21
TORSDOF 8
ENDMDL
MODEL 4
REMARK VINA RESULT:      -7.4      3.961      6.507
REMARK  8 active torsions:
REMARK  status: ('A' for Active; 'I' for Inactive)
REMARK    1  A    between atoms: C_2  and  O_3 
REMARK    2  A    between atoms: O_3  and  C_4 
REMARK    3  A    between atoms: C_6  and  O_7 
REMARK    4  A    between atoms: O_7  and  C_8 
REMARK    5  A    between atoms: C_11  and  C_12 
REMARK       I    between atoms: C_12  and  N_13 
REMARK    6  A    between atoms: N_13  and  C_14 
REMARK    7  A    between atoms: C_14  and  N_15 
REMARK    8  A    between atoms: N_15  and  C_16 
ROOT
HETATM    1  C   UNL     1      41.458 -16.842   1.852  1.00  0.00     0.237 C 
HETATM    2  N   UNL     1      41.015 -15.642   2.379  1.00  0.00    -0.201 NA
HETATM    3  O   UNL     1      40.969 -17.328   0.838  1.00  0.00    -0.274 OA
HETATM    4  H   UNL     1      40.059 -15.511   2.062  1.00  0.00     0.139 HD
ENDROOT
BRANCH   2   5
HETATM    5  C   UNL     1      41.619 -14.412   2.240  1.00  0.00     0.157 C 
HETATM    6  S   UNL     1      42.996 -13.886   3.029  1.00  0.00    -0.047 SA
BRANCH   5   7
HETATM    7  N   UNL     1      41.076 -13.581   1.291  1.00  0.00    -0.337 N 
HETATM    8  H   UNL     1      40.798 -12.680   1.669  1.00  0.00     0.168 HD
BRANCH   7   9
HETATM    9  C   UNL     1      40.752 -13.804  -0.068  1.00  0.00     0.036 A 
HETATM   10  C   UNL     1      39.402 -14.073  -0.354  1.00  0.00     0.061 A 
HETATM   11  C   UNL     1      39.074 -14.342  -1.664  1.00  0.00     0.065 A 
HETATM   12  C   UNL     1      40.024 -14.362  -2.679  1.00  0.00     0.063 A 
HETATM   13  N   UNL     1      37.840 -14.647  -2.229  1.00  0.00    -0.306 N 
HETATM   14  N   UNL     1      39.380 -14.683  -3.867  1.00  0.00    -0.307 N 
HETATM   15  C   UNL     1      41.351 -14.114  -2.438  1.00  0.00     0.034 A 
HETATM   16  C   UNL     1      38.015 -14.868  -3.603  1.00  0.00     0.325 A 
HETATM   17  H   UNL     1      39.792 -14.790  -4.780  1.00  0.00     0.170 HD
HETATM   18  O   UNL     1      37.152 -15.167  -4.407  1.00  0.00    -0.247 OA
HETATM   19  C   UNL     1      41.712 -13.839  -1.109  1.00  0.00     0.032 A 
HETATM   20  H   UNL     1      36.951 -14.723  -1.762  1.00  0.00     0.170 HD
ENDBRANCH   7   9
ENDBRANCH   5   7
ENDBRANCH   2   5
BRANCH   1  21
HETATM   21  C   UNL     1      42.266 -17.677   2.773  1.00  0.00     0.032 A 
HETATM   22  C   UNL     1      42.076 -17.451   4.142  1.00  0.00     0.053 A 
HETATM   23  C   UNL     1      42.844 -18.145   5.069  1.00  0.00     0.072 A 
HETATM   24  C   UNL     1      43.800 -19.058   4.628  1.00  0.00     0.073 A 
HETATM   25  C   UNL     1      43.969 -19.317   3.264  1.00  0.00     0.072 A 
HETATM   26  C   UNL     1      43.208 -18.611   2.329  1.00  0.00     0.053 A 
BRANCH  23  27
HETATM   27  O   UNL     1      42.782 -17.921   6.414  1.00  0.00    -0.351 OA
BRANCH  27  28
HETATM   28  C   UNL     1      44.016 -17.507   7.011  1.00  0.00     0.171 C 
HETATM   29  C   UNL     1      44.172 -16.002   6.890  1.00  0.00     0.034 C 
ENDBRANCH  27  28
ENDBRANCH  23  27
BRANCH  25  30
HETATM   30  O   UNL     1      44.906 -20.273   2.985  1.00  0.00    -0.351 OA
BRANCH  30  31
HETATM   31  C   UNL     1      44.475 -21.633   2.959  1.00  0.00     0.171 C 
HETATM   32  C   UNL     1      44.149 -21.987   1.519  1.00  0.00     0.034 C 
ENDBRANCH  30  31
ENDBRANCH  25  30
ENDBRANCH   1  21
TORSDOF 8
ENDMDL
MODEL 5
REMARK VINA RESULT:      -7.4      3.289      5.940
REMARK  8 active torsions:
REMARK  status: ('A' for Active; 'I' for Inactive)
REMARK    1  A    between atoms: C_2  and  O_3 
REMARK    2  A    between atoms: O_3  and  C_4 
REMARK    3  A    between atoms: C_6  and  O_7 
REMARK    4  A    between atoms: O_7  and  C_8 
REMARK    5  A    between atoms: C_11  and  C_12 
REMARK       I    between atoms: C_12  and  N_13 
REMARK    6  A    between atoms: N_13  and  C_14 
REMARK    7  A    between atoms: C_14  and  N_15 
REMARK    8  A    between atoms: N_15  and  C_16 
ROOT
HETATM    1  C   UNL     1      40.868 -16.850   3.179  1.00  0.00     0.237 C 
HETATM    2  N   UNL     1      40.480 -15.799   3.992  1.00  0.00    -0.201 NA
HETATM    3  O   UNL     1      40.192 -17.220   2.226  1.00  0.00    -0.274 OA
HETATM    4  H   UNL     1      39.470 -15.722   3.918  1.00  0.00     0.139 HD
ENDROOT
BRANCH   2   5
HETATM    5  C   UNL     1      40.952 -14.506   3.945  1.00  0.00     0.157 C 
HETATM    6  S   UNL     1      42.241 -13.886   4.809  1.00  0.00    -0.047 SA
BRANCH   5   7
HETATM    7  N   UNL     1      40.350 -13.682   3.026  1.00  0.00    -0.337 N 
HETATM    8  H   UNL     1      40.070 -12.789   3.421  1.00  0.00     0.168 HD
BRANCH   7   9
HETATM    9  C   UNL     1      39.970 -13.905   1.681  1.00  0.00     0.036 A 
HETATM   10  C   UNL     1      41.003 -14.235   0.786  1.00  0.00     0.061 A 
HETATM   11  C   UNL     1      40.662 -14.407  -0.537  1.00  0.00     0.065 A 
HETATM   12  C   UNL     1      39.358 -14.257  -0.995  1.00  0.00     0.063 A 
HETATM   13  N   UNL     1      41.463 -14.723  -1.630  1.00  0.00    -0.306 N 
HETATM   14  N   UNL     1      39.353 -14.475  -2.367  1.00  0.00    -0.307 N 
HETATM   15  C   UNL     1      38.326 -13.926  -0.154  1.00  0.00     0.034 A 
HETATM   16  C   UNL     1      40.662 -14.763  -2.780  1.00  0.00     0.325 A 
HETATM   17  H   UNL     1      38.567 -14.425  -2.994  1.00  0.00     0.170 HD
HETATM   18  O   UNL     1      41.032 -14.998  -3.916  1.00  0.00    -0.247 OA
HETATM   19  C   UNL     1      38.648 -13.743   1.200  1.00  0.00     0.032 A 
HETATM   20  H   UNL     1      42.457 -14.886  -1.638  1.00  0.00     0.170 HD
ENDBRANCH   7   9
ENDBRANCH   5   7
ENDBRANCH   2   5
BRANCH   1  21
HETATM   21  C   UNL     1      41.923 -17.728   3.742  1.00  0.00     0.032 A 
HETATM   22  C   UNL     1      42.026 -17.755   5.138  1.00  0.00     0.053 A 
HETATM   23  C   UNL     1      43.032 -18.500   5.740  1.00  0.00     0.072 A 
HETATM   24  C   UNL     1      43.931 -19.214   4.949  1.00  0.00     0.073 A 
HETATM   25  C   UNL     1      43.809 -19.223   3.556  1.00  0.00     0.072 A 
HETATM   26  C   UNL     1      42.808 -18.463   2.947  1.00  0.00     0.053 A 
BRANCH  23  27
HETATM   27  O   UNL     1      43.256 -18.510   7.088  1.00  0.00    -0.351 OA
BRANCH  27  28
HETATM   28  C   UNL     1      42.906 -17.297   7.762  1.00  0.00     0.171 C 
HETATM   29  C   UNL     1      43.944 -16.226   7.475  1.00  0.00     0.034 C 
ENDBRANCH  27  28
ENDBRANCH  23  27
BRANCH  25  30
HETATM   30  O   UNL     1      44.729 -20.007   2.918  1.00  0.00    -0.351 OA
BRANCH  30  31
HETATM   31  C   UNL     1      44.531 -21.420   2.953  1.00  0.00     0.171 C 
HETATM   32  C   UNL     1      44.003 -21.847   1.594  1.00  0.00     0.034 C 
ENDBRANCH  30  31
ENDBRANCH  25  30
ENDBRANCH   1  21
TORSDOF 8
ENDMDL
MODEL 6
REMARK VINA RESULT:      -7.3      2.953      7.045
REMARK  8 active torsions:
REMARK  status: ('A' for Active; 'I' for Inactive)
REMARK    1  A    between atoms: C_2  and  O_3 
REMARK    2  A    between atoms: O_3  and  C_4 
REMARK    3  A    between atoms: C_6  and  O_7 
REMARK    4  A    between atoms: O_7  and  C_8 
REMARK    5  A    between atoms: C_11  and  C_12 
REMARK       I    between atoms: C_12  and  N_13 
REMARK    6  A    between atoms: N_13  and  C_14 
REMARK    7  A    between atoms: C_14  and  N_15 
REMARK    8  A    between atoms: N_15  and  C_16 
ROOT
HETATM    1  C   UNL     1      41.045 -16.882   1.479  1.00  0.00     0.237 C 
HETATM    2  N   UNL     1      39.829 -16.395   1.924  1.00  0.00    -0.201 NA
HETATM    3  O   UNL     1      41.280 -17.059   0.289  1.00  0.00    -0.274 OA
HETATM    4  H   UNL     1      39.140 -16.619   1.212  1.00  0.00     0.139 HD
ENDROOT
BRANCH   2   5
HETATM    5  C   UNL     1      39.552 -15.102   2.309  1.00  0.00     0.157 C 
HETATM    6  S   UNL     1      39.210 -13.815   1.298  1.00  0.00    -0.047 SA
BRANCH   5   7
HETATM    7  N   UNL     1      39.463 -14.886   3.662  1.00  0.00    -0.337 N 
HETATM    8  H   UNL     1      38.667 -15.356   4.085  1.00  0.00     0.168 HD
BRANCH   7   9
HETATM    9  C   UNL     1      40.214 -14.055   4.526  1.00  0.00     0.036 A 
HETATM   10  C   UNL     1      39.503 -13.416   5.556  1.00  0.00     0.061 A 
HETATM   11  C   UNL     1      40.207 -12.564   6.378  1.00  0.00     0.065 A 
HETATM   12  C   UNL     1      41.565 -12.322   6.208  1.00  0.00     0.063 A 
HETATM   13  N   UNL     1      39.769 -11.801   7.455  1.00  0.00    -0.306 N 
HETATM   14  N   UNL     1      41.965 -11.408   7.175  1.00  0.00    -0.307 N 
HETATM   15  C   UNL     1      42.291 -12.918   5.209  1.00  0.00     0.034 A 
HETATM   16  C   UNL     1      40.854 -11.070   7.961  1.00  0.00     0.325 A 
HETATM   17  H   UNL     1      42.884 -11.019   7.310  1.00  0.00     0.170 HD
HETATM   18  O   UNL     1      40.833 -10.290   8.895  1.00  0.00    -0.247 OA
HETATM   19  C   UNL     1      41.596 -13.791   4.357  1.00  0.00     0.032 A 
HETATM   20  H   UNL     1      38.836 -11.743   7.830  1.00  0.00     0.170 HD
ENDBRANCH   7   9
ENDBRANCH   5   7
ENDBRANCH   2   5
BRANCH   1  21
HETATM   21  C   UNL     1      41.886 -17.526   2.517  1.00  0.00     0.032 A 
HETATM   22  C   UNL     1      42.964 -18.291   2.054  1.00  0.00     0.053 A 
HETATM   23  C   UNL     1      43.759 -18.982   2.960  1.00  0.00     0.072 A 
HETATM   24  C   UNL     1      43.475 -18.909   4.323  1.00  0.00     0.073 A 
HETATM   25  C   UNL     1      42.425 -18.116   4.795  1.00  0.00     0.072 A 
HETATM   26  C   UNL     1      41.615 -17.433   3.886  1.00  0.00     0.053 A 
BRANCH  23  27
HETATM   27  O   UNL     1      44.772 -19.817   2.586  1.00  0.00    -0.351 OA
BRANCH  27  28
HETATM   28  C   UNL     1      44.544 -21.201   2.871  1.00  0.00     0.171 C 
HETATM   29  C   UNL     1      43.946 -21.890   1.657  1.00  0.00     0.034 C 
ENDBRANCH  27  28
ENDBRANCH  23  27
BRANCH  25  30
HETATM   30  O   UNL     1      42.300 -18.103   6.157  1.00  0.00    -0.351 OA
BRANCH  30  31
HETATM   31  C   UNL     1      42.394 -16.841   6.817  1.00  0.00     0.171 C 
HETATM   32  C   UNL     1      43.306 -17.015   8.019  1.00  0.00     0.034 C 
ENDBRANCH  30  31
ENDBRANCH  25  30
ENDBRANCH   1  21
TORSDOF 8
ENDMDL
MODEL 7
REMARK VINA RESULT:      -7.3      2.533      6.807
REMARK  8 active torsions:
REMARK  status: ('A' for Active; 'I' for Inactive)
REMARK    1  A    between atoms: C_2  and  O_3 
REMARK    2  A    between atoms: O_3  and  C_4 
REMARK    3  A    between atoms: C_6  and  O_7 
REMARK    4  A    between atoms: O_7  and  C_8 
REMARK    5  A    between atoms: C_11  and  C_12 
REMARK       I    between atoms: C_12  and  N_13 
REMARK    6  A    between atoms: N_13  and  C_14 
REMARK    7  A    between atoms: C_14  and  N_15 
REMARK    8  A    between atoms: N_15  and  C_16 
ROOT
HETATM    1  C   UNL     1      41.670 -16.955   2.686  1.00  0.00     0.237 C 
HETATM    2  N   UNL     1      41.140 -15.870   3.362  1.00  0.00    -0.201 NA
HETATM    3  O   UNL     1      41.227 -17.330   1.607  1.00  0.00    -0.274 OA
HETATM    4  H   UNL     1      40.181 -15.762   3.048  1.00  0.00     0.139 HD
ENDROOT
BRANCH   2   5
HETATM    5  C   UNL     1      41.658 -14.595   3.403  1.00  0.00     0.157 C 
HETATM    6  S   UNL     1      42.215 -13.705   2.102  1.00  0.00    -0.047 SA
BRANCH   5   7
HETATM    7  N   UNL     1      41.624 -13.973   4.627  1.00  0.00    -0.337 N 
HETATM    8  H   UNL     1      40.744 -13.497   4.802  1.00  0.00     0.168 HD
BRANCH   7   9
HETATM    9  C   UNL     1      42.622 -13.803   5.615  1.00  0.00     0.036 A 
HETATM   10  C   UNL     1      42.416 -12.766   6.541  1.00  0.00     0.061 A 
HETATM   11  C   UNL     1      43.400 -12.551   7.481  1.00  0.00     0.065 A 
HETATM   12  C   UNL     1      44.563 -13.312   7.526  1.00  0.00     0.063 A 
HETATM   13  N   UNL     1      43.470 -11.605   8.497  1.00  0.00    -0.306 N 
HETATM   14  N   UNL     1      45.352 -12.834   8.565  1.00  0.00    -0.307 N 
HETATM   15  C   UNL     1      44.804 -14.326   6.635  1.00  0.00     0.034 A 
HETATM   16  C   UNL     1      44.685 -11.765   9.180  1.00  0.00     0.325 A 
HETATM   17  H   UNL     1      46.260 -13.163   8.848  1.00  0.00     0.170 HD
HETATM   18  O   UNL     1      45.084 -11.101  10.119  1.00  0.00    -0.247 OA
HETATM   19  C   UNL     1      43.816 -14.564   5.665  1.00  0.00     0.032 A 
HETATM   20  H   UNL     1      42.792 -10.896   8.727  1.00  0.00     0.170 HD
ENDBRANCH   7   9
ENDBRANCH   5   7
ENDBRANCH   2   5
BRANCH   1  21
HETATM   21  C   UNL     1      42.525 -17.851   3.501  1.00  0.00     0.032 A 
HETATM   22  C   UNL     1      43.435 -18.649   2.796  1.00  0.00     0.053 A 
HETATM   23  C   UNL     1      44.225 -19.564   3.481  1.00  0.00     0.072 A 
HETATM   24  C   UNL     1      44.104 -19.682   4.864  1.00  0.00     0.073 A 
HETATM   25  C   UNL     1      43.226 -18.861   5.579  1.00  0.00     0.072 A 
HETATM   26  C   UNL     1      42.420 -17.951   4.892  1.00  0.00     0.053 A 
BRANCH  23  27
HETATM   27  O   UNL     1      45.072 -20.438   2.861  1.00  0.00    -0.351 OA
BRANCH  27  28
HETATM   28  C   UNL     1      44.575 -21.776   2.749  1.00  0.00     0.171 C 
HETATM   29  C   UNL     1      43.957 -21.987   1.378  1.00  0.00     0.034 C 
ENDBRANCH  27  28
ENDBRANCH  23  27
BRANCH  25  30
HETATM   30  O   UNL     1      43.253 -19.054   6.932  1.00  0.00    -0.351 OA
BRANCH  30  31
HETATM   31  C   UNL     1      44.179 -18.279   7.693  1.00  0.00     0.171 C 
HETATM   32  C   UNL     1      43.397 -17.181   8.393  1.00  0.00     0.034 C 
ENDBRANCH  30  31
ENDBRANCH  25  30
ENDBRANCH   1  21
TORSDOF 8
ENDMDL
MODEL 8
REMARK VINA RESULT:      -7.3      4.389      7.075
REMARK  8 active torsions:
REMARK  status: ('A' for Active; 'I' for Inactive)
REMARK    1  A    between atoms: C_2  and  O_3 
REMARK    2  A    between atoms: O_3  and  C_4 
REMARK    3  A    between atoms: C_6  and  O_7 
REMARK    4  A    between atoms: O_7  and  C_8 
REMARK    5  A    between atoms: C_11  and  C_12 
REMARK       I    between atoms: C_12  and  N_13 
REMARK    6  A    between atoms: N_13  and  C_14 
REMARK    7  A    between atoms: C_14  and  N_15 
REMARK    8  A    between atoms: N_15  and  C_16 
ROOT
HETATM    1  C   UNL     1      43.142 -14.779   2.756  1.00  0.00     0.237 C 
HETATM    2  N   UNL     1      42.500 -14.713   1.532  1.00  0.00    -0.201 NA
HETATM    3  O   UNL     1      43.836 -13.861   3.177  1.00  0.00    -0.274 OA
HETATM    4  H   UNL     1      43.016 -14.052   0.959  1.00  0.00     0.139 HD
ENDROOT
BRANCH   2   5
HETATM    5  C   UNL     1      41.170 -14.428   1.315  1.00  0.00     0.157 C 
HETATM    6  S   UNL     1      39.911 -14.690   2.383  1.00  0.00    -0.047 SA
BRANCH   5   7
HETATM    7  N   UNL     1      40.880 -13.783   0.139  1.00  0.00    -0.337 N 
HETATM    8  H   UNL     1      41.009 -12.777   0.199  1.00  0.00     0.168 HD
BRANCH   7   9
HETATM    9  C   UNL     1      40.345 -14.262  -1.080  1.00  0.00     0.036 A 
HETATM   10  C   UNL     1      39.087 -13.756  -1.454  1.00  0.00     0.061 A 
HETATM   11  C   UNL     1      38.526 -14.247  -2.611  1.00  0.00     0.065 A 
HETATM   12  C   UNL     1      39.155 -15.211  -3.392  1.00  0.00     0.063 A 
HETATM   13  N   UNL     1      37.308 -13.942  -3.210  1.00  0.00    -0.306 N 
HETATM   14  N   UNL     1      38.326 -15.504  -4.467  1.00  0.00    -0.307 N 
HETATM   15  C   UNL     1      40.377 -15.735  -3.056  1.00  0.00     0.034 A 
HETATM   16  C   UNL     1      37.166 -14.723  -4.367  1.00  0.00     0.325 A 
HETATM   17  H   UNL     1      38.489 -16.171  -5.204  1.00  0.00     0.170 HD
HETATM   18  O   UNL     1      36.218 -14.725  -5.131  1.00  0.00    -0.247 OA
HETATM   19  C   UNL     1      40.969 -15.252  -1.878  1.00  0.00     0.032 A 
HETATM   20  H   UNL     1      36.611 -13.290  -2.890  1.00  0.00     0.170 HD
ENDBRANCH   7   9
ENDBRANCH   5   7
ENDBRANCH   2   5
BRANCH   1  21
HETATM   21  C   UNL     1      43.256 -16.138   3.338  1.00  0.00     0.032 A 
HETATM   22  C   UNL     1      43.789 -17.127   2.502  1.00  0.00     0.053 A 
HETATM   23  C   UNL     1      43.867 -18.440   2.949  1.00  0.00     0.072 A 
HETATM   24  C   UNL     1      43.412 -18.762   4.226  1.00  0.00     0.073 A 
HETATM   25  C   UNL     1      42.915 -17.773   5.081  1.00  0.00     0.072 A 
HETATM   26  C   UNL     1      42.822 -16.455   4.629  1.00  0.00     0.053 A 
BRANCH  23  27
HETATM   27  O   UNL     1      44.291 -19.476   2.167  1.00  0.00    -0.351 OA
BRANCH  27  28
HETATM   28  C   UNL     1      44.026 -20.778   2.702  1.00  0.00     0.171 C 
HETATM   29  C   UNL     1      44.230 -21.831   1.627  1.00  0.00     0.034 C 
ENDBRANCH  27  28
ENDBRANCH  23  27
BRANCH  25  30
HETATM   30  O   UNL     1      42.555 -18.229   6.318  1.00  0.00    -0.351 OA
BRANCH  30  31
HETATM   31  C   UNL     1      42.774 -17.364   7.431  1.00  0.00     0.171 C 
HETATM   32  C   UNL     1      43.890 -17.962   8.270  1.00  0.00     0.034 C 
ENDBRANCH  30  31
ENDBRANCH  25  30
ENDBRANCH   1  21
TORSDOF 8
ENDMDL
MODEL 9
REMARK VINA RESULT:      -7.3      3.073      5.867
REMARK  8 active torsions:
REMARK  status: ('A' for Active; 'I' for Inactive)
REMARK    1  A    between atoms: C_2  and  O_3 
REMARK    2  A    between atoms: O_3  and  C_4 
REMARK    3  A    between atoms: C_6  and  O_7 
REMARK    4  A    between atoms: O_7  and  C_8 
REMARK    5  A    between atoms: C_11  and  C_12 
REMARK       I    between atoms: C_12  and  N_13 
REMARK    6  A    between atoms: N_13  and  C_14 
REMARK    7  A    between atoms: C_14  and  N_15 
REMARK    8  A    between atoms: N_15  and  C_16 
ROOT
HETATM    1  C   UNL     1      42.730 -14.797   5.282  1.00  0.00     0.237 C 
HETATM    2  N   UNL     1      41.878 -14.243   4.343  1.00  0.00    -0.201 NA
HETATM    3  O   UNL     1      43.294 -14.116   6.131  1.00  0.00    -0.274 OA
HETATM    4  H   UNL     1      42.143 -13.268   4.238  1.00  0.00     0.139 HD
ENDROOT
BRANCH   2   5
HETATM    5  C   UNL     1      40.502 -14.248   4.376  1.00  0.00     0.157 C 
HETATM    6  S   UNL     1      39.529 -13.344   5.392  1.00  0.00    -0.047 SA
BRANCH   5   7
HETATM    7  N   UNL     1      39.882 -15.007   3.414  1.00  0.00    -0.337 N 
HETATM    8  H   UNL     1      39.538 -15.893   3.773  1.00  0.00     0.168 HD
BRANCH   7   9
HETATM    9  C   UNL     1      39.737 -14.810   2.021  1.00  0.00     0.036 A 
HETATM   10  C   UNL     1      40.743 -15.356   1.204  1.00  0.00     0.061 A 
HETATM   11  C   UNL     1      40.648 -15.133  -0.152  1.00  0.00     0.065 A 
HETATM   12  C   UNL     1      39.613 -14.392  -0.712  1.00  0.00     0.063 A 
HETATM   13  N   UNL     1      41.490 -15.537  -1.182  1.00  0.00    -0.306 N 
HETATM   14  N   UNL     1      39.817 -14.336  -2.085  1.00  0.00    -0.307 N 
HETATM   15  C   UNL     1      38.620 -13.836   0.052  1.00  0.00     0.034 A 
HETATM   16  C   UNL     1      40.987 -15.043  -2.396  1.00  0.00     0.325 A 
HETATM   17  H   UNL     1      39.252 -13.863  -2.771  1.00  0.00     0.170 HD
HETATM   18  O   UNL     1      41.476 -15.194  -3.500  1.00  0.00    -0.247 OA
HETATM   19  C   UNL     1      38.695 -14.048   1.438  1.00  0.00     0.032 A 
HETATM   20  H   UNL     1      42.335 -16.080  -1.110  1.00  0.00     0.170 HD
ENDBRANCH   7   9
ENDBRANCH   5   7
ENDBRANCH   2   5
BRANCH   1  21
HETATM   21  C   UNL     1      43.211 -16.164   4.971  1.00  0.00     0.032 A 
HETATM   22  C   UNL     1      43.655 -16.927   6.059  1.00  0.00     0.053 A 
HETATM   23  C   UNL     1      44.184 -18.193   5.843  1.00  0.00     0.072 A 
HETATM   24  C   UNL     1      44.270 -18.693   4.545  1.00  0.00     0.073 A 
HETATM   25  C   UNL     1      43.793 -17.953   3.458  1.00  0.00     0.072 A 
HETATM   26  C   UNL     1      43.274 -16.674   3.670  1.00  0.00     0.053 A 
BRANCH  23  27
HETATM   27  O   UNL     1      44.718 -18.964   6.836  1.00  0.00    -0.351 OA
BRANCH  27  28
HETATM   28  C   UNL     1      43.755 -19.629   7.660  1.00  0.00     0.171 C 
HETATM   29  C   UNL     1      43.612 -21.077   7.226  1.00  0.00     0.034 C 
ENDBRANCH  27  28
ENDBRANCH  23  27
BRANCH  25  30
HETATM   30  O   UNL     1      43.897 -18.593   2.254  1.00  0.00    -0.351 OA
BRANCH  30  31
HETATM   31  C   UNL     1      43.000 -19.673   2.000  1.00  0.00     0.171 C 
HETATM   32  C   UNL     1      43.831 -20.933   1.828  1.00  0.00     0.034 C 
ENDBRANCH  30  31
ENDBRANCH  25  30
ENDBRANCH   1  21
TORSDOF 8
ENDMDL
MODEL 10
REMARK VINA RESULT:      -7.2      2.851      5.782
REMARK  8 active torsions:
REMARK  status: ('A' for Active; 'I' for Inactive)
REMARK    1  A    between atoms: C_2  and  O_3 
REMARK    2  A    between atoms: O_3  and  C_4 
REMARK    3  A    between atoms: C_6  and  O_7 
REMARK    4  A    between atoms: O_7  and  C_8 
REMARK    5  A    between atoms: C_11  and  C_12 
REMARK       I    between atoms: C_12  and  N_13 
REMARK    6  A    between atoms: N_13  and  C_14 
REMARK    7  A    between atoms: C_14  and  N_15 
REMARK    8  A    between atoms: N_15  and  C_16 
ROOT
HETATM    1  C   UNL     1      42.142 -13.864   5.710  1.00  0.00     0.237 C 
HETATM    2  N   UNL     1      41.904 -15.113   6.257  1.00  0.00    -0.201 NA
HETATM    3  O   UNL     1      42.374 -12.882   6.406  1.00  0.00    -0.274 OA
HETATM    4  H   UNL     1      41.565 -14.965   7.202  1.00  0.00     0.139 HD
ENDROOT
BRANCH   2   5
HETATM    5  C   UNL     1      42.799 -16.155   6.346  1.00  0.00     0.157 C 
HETATM    6  S   UNL     1      43.018 -17.168   7.658  1.00  0.00    -0.047 SA
BRANCH   5   7
HETATM    7  N   UNL     1      43.511 -16.433   5.205  1.00  0.00    -0.337 N 
HETATM    8  H   UNL     1      44.187 -15.710   4.976  1.00  0.00     0.168 HD
BRANCH   7   9
HETATM    9  C   UNL     1      43.390 -17.482   4.263  1.00  0.00     0.036 A 
HETATM   10  C   UNL     1      44.137 -18.644   4.521  1.00  0.00     0.061 A 
HETATM   11  C   UNL     1      44.072 -19.658   3.590  1.00  0.00     0.065 A 
HETATM   12  C   UNL     1      43.312 -19.554   2.431  1.00  0.00     0.063 A 
HETATM   13  N   UNL     1      44.703 -20.897   3.578  1.00  0.00    -0.306 N 
HETATM   14  N   UNL     1      43.475 -20.725   1.701  1.00  0.00    -0.307 N 
HETATM   15  C   UNL     1      42.577 -18.433   2.140  1.00  0.00     0.034 A 
HETATM   16  C   UNL     1      44.345 -21.574   2.402  1.00  0.00     0.325 A 
HETATM   17  H   UNL     1      43.069 -20.955   0.809  1.00  0.00     0.170 HD
HETATM   18  O   UNL     1      44.720 -22.679   2.056  1.00  0.00    -0.247 OA
HETATM   19  C   UNL     1      42.628 -17.385   3.073  1.00  0.00     0.032 A 
HETATM   20  H   UNL     1      45.331 -21.276   4.268  1.00  0.00     0.170 HD
ENDBRANCH   7   9
ENDBRANCH   5   7
ENDBRANCH   2   5
BRANCH   1  21
HETATM   21  C   UNL     1      41.727 -13.704   4.295  1.00  0.00     0.032 A 
HETATM   22  C   UNL     1      40.519 -14.311   3.932  1.00  0.00     0.053 A 
HETATM   23  C   UNL     1      40.094 -14.265   2.610  1.00  0.00     0.072 A 
HETATM   24  C   UNL     1      40.875 -13.615   1.656  1.00  0.00     0.073 A 
HETATM   25  C   UNL     1      42.063 -12.972   2.019  1.00  0.00     0.072 A 
HETATM   26  C   UNL     1      42.500 -13.030   3.344  1.00  0.00     0.053 A 
BRANCH  23  27
HETATM   27  O   UNL     1      38.975 -14.904   2.157  1.00  0.00    -0.351 OA
BRANCH  27  28
HETATM   28  C   UNL     1      38.598 -14.575   0.816  1.00  0.00     0.171 C 
HETATM   29  C   UNL     1      37.371 -13.679   0.828  1.00  0.00     0.034 C 
ENDBRANCH  27  28
ENDBRANCH  23  27
BRANCH  25  30
HETATM   30  O   UNL     1      42.694 -12.334   0.988  1.00  0.00    -0.351 OA
BRANCH  30  31
HETATM   31  C   UNL     1      41.894 -11.903  -0.112  1.00  0.00     0.171 C 
HETATM   32  C   UNL     1      42.646 -12.235  -1.389  1.00  0.00     0.034 C 
ENDBRANCH  30  31
ENDBRANCH  25  30
ENDBRANCH   1  21
TORSDOF 8
ENDMDL
