MODEL 1
REMARK VINA RESULT:      -8.3      0.000      0.000
REMARK  6 active torsions:
REMARK  status: ('A' for Active; 'I' for Inactive)
REMARK    1  A    between atoms: C_2  and  S_3 
REMARK    2  A    between atoms: C_2  and  C_18 
REMARK    3  A    between atoms: S_3  and  C_4 
REMARK    4  A    between atoms: C_4  and  C_5 
REMARK       I    between atoms: C_5  and  N_6 
REMARK    5  A    between atoms: N_6  and  C_7 
REMARK    6  A    between atoms: C_10  and  C_11 
REMARK       I    between atoms: C_11  and  N_12 
ROOT
HETATM    1  C   UNL     1      42.734 -14.029   3.564  1.00  0.00     0.231 C 
HETATM    2  N   UNL     1      41.590 -14.533   2.968  1.00  0.00    -0.327 N 
HETATM    3  O   UNL     1      43.780 -13.731   2.991  1.00  0.00    -0.272 OA
HETATM    4  H   UNL     1      40.750 -14.547   3.534  1.00  0.00     0.169 HD
ENDROOT
BRANCH   1   5
HETATM    5  C   UNL     1      42.600 -13.899   5.078  1.00  0.00     0.177 C 
BRANCH   5   6
HETATM    6  S   UNL     1      41.610 -15.242   5.810  1.00  0.00    -0.147 SA
BRANCH   6   7
HETATM    7  C   UNL     1      42.905 -16.440   6.326  1.00  0.00     0.113 C 
HETATM    8  C   UNL     1      44.183 -15.733   6.776  1.00  0.00     0.029 C 
BRANCH   7   9
HETATM    9  C   UNL     1      43.163 -17.486   5.287  1.00  0.00     0.118 A 
HETATM   10  N   UNL     1      42.566 -17.617   4.118  1.00  0.00    -0.232 NA
HETATM   11  C   UNL     1      43.167 -18.698   3.513  1.00  0.00     0.085 A 
HETATM   12  C   UNL     1      44.139 -19.251   4.338  1.00  0.00     0.062 A 
HETATM   13  C   UNL     1      42.927 -19.277   2.259  1.00  0.00     0.034 A 
HETATM   14  N   UNL     1      44.115 -18.466   5.460  1.00  0.00    -0.342 N 
HETATM   15  C   UNL     1      44.895 -20.371   3.992  1.00  0.00     0.032 A 
HETATM   16  H   UNL     1      44.665 -18.607   6.296  1.00  0.00     0.167 HD
HETATM   17  C   UNL     1      44.639 -20.939   2.739  1.00  0.00     0.002 A 
HETATM   18  C   UNL     1      43.671 -20.404   1.885  1.00  0.00     0.002 A 
ENDBRANCH   7   9
ENDBRANCH   6   7
ENDBRANCH   5   6
ENDBRANCH   1   5
BRANCH   2  19
HETATM   19  C   UNL     1      41.391 -14.851   1.610  1.00  0.00     0.034 A 
HETATM   20  C   UNL     1      41.666 -16.098   1.046  1.00  0.00     0.030 A 
HETATM   21  C   UNL     1      41.447 -16.327  -0.320  1.00  0.00     0.019 A 
HETATM   22  C   UNL     1      40.934 -15.310  -1.133  1.00  0.00     0.032 A 
HETATM   23  C   UNL     1      40.667 -14.058  -0.573  1.00  0.00     0.019 A 
HETATM   24  C   UNL     1      40.890 -13.833   0.788  1.00  0.00     0.030 A 
BRANCH  22  25
HETATM   25  C   UNL     1      40.684 -15.498  -2.589  1.00  0.00     0.251 C 
HETATM   26  N   UNL     1      39.419 -15.914  -2.949  1.00  0.00    -0.361 N 
HETATM   27  C   UNL     1      39.059 -16.141  -4.326  1.00  0.00     0.149 C 
HETATM   28  H   UNL     1      38.706 -16.041  -2.245  1.00  0.00     0.162 HD
HETATM   29  O   UNL     1      41.572 -15.256  -3.398  1.00  0.00    -0.268 OA
ENDBRANCH  22  25
ENDBRANCH   2  19
TORSDOF 6
ENDMDL
MODEL 2
REMARK VINA RESULT:      -7.8      3.041      5.712
REMARK  6 active torsions:
REMARK  status: ('A' for Active; 'I' for Inactive)
REMARK    1  A    between atoms: C_2  and  S_3 
REMARK    2  A    between atoms: C_2  and  C_18 
REMARK    3  A    between atoms: S_3  and  C_4 
REMARK    4  A    between atoms: C_4  and  C_5 
REMARK       I    between atoms: C_5  and  N_6 
REMARK    5  A    between atoms: N_6  and  C_7 
REMARK    6  A    between atoms: C_10  and  C_11 
REMARK       I    between atoms: C_11  and  N_12 
ROOT
HETATM    1  C   UNL     1      42.602 -14.195   2.276  1.00  0.00     0.231 C 
HETATM    2  N   UNL     1      42.111 -15.423   1.867  1.00  0.00    -0.327 N 
HETATM    3  O   UNL     1      43.665 -13.997   2.862  1.00  0.00    -0.272 OA
HETATM    4  H   UNL     1      41.323 -15.409   1.230  1.00  0.00     0.169 HD
ENDROOT
BRANCH   1   5
HETATM    5  C   UNL     1      41.653 -13.045   1.956  1.00  0.00     0.177 C 
BRANCH   5   6
HETATM    6  S   UNL     1      40.058 -13.192   2.826  1.00  0.00    -0.147 SA
BRANCH   6   7
HETATM    7  C   UNL     1      40.516 -12.754   4.551  1.00  0.00     0.113 C 
HETATM    8  C   UNL     1      41.333 -11.464   4.609  1.00  0.00     0.029 C 
BRANCH   7   9
HETATM    9  C   UNL     1      41.177 -13.886   5.272  1.00  0.00     0.118 A 
HETATM   10  N   UNL     1      40.628 -15.026   5.647  1.00  0.00    -0.232 NA
HETATM   11  C   UNL     1      41.640 -15.749   6.238  1.00  0.00     0.085 A 
HETATM   12  C   UNL     1      42.828 -15.028   6.241  1.00  0.00     0.062 A 
HETATM   13  C   UNL     1      41.618 -17.029   6.808  1.00  0.00     0.034 A 
HETATM   14  N   UNL     1      42.508 -13.847   5.626  1.00  0.00    -0.342 N 
HETATM   15  C   UNL     1      44.016 -15.505   6.794  1.00  0.00     0.032 A 
HETATM   16  H   UNL     1      43.125 -13.059   5.494  1.00  0.00     0.167 HD
HETATM   17  C   UNL     1      43.974 -16.783   7.364  1.00  0.00     0.002 A 
HETATM   18  C   UNL     1      42.796 -17.535   7.373  1.00  0.00     0.002 A 
ENDBRANCH   7   9
ENDBRANCH   6   7
ENDBRANCH   5   6
ENDBRANCH   1   5
BRANCH   2  19
HETATM   19  C   UNL     1      42.685 -16.694   2.067  1.00  0.00     0.034 A 
HETATM   20  C   UNL     1      43.444 -17.373   1.111  1.00  0.00     0.030 A 
HETATM   21  C   UNL     1      43.971 -18.642   1.389  1.00  0.00     0.019 A 
HETATM   22  C   UNL     1      43.756 -19.237   2.637  1.00  0.00     0.032 A 
HETATM   23  C   UNL     1      42.989 -18.565   3.592  1.00  0.00     0.019 A 
HETATM   24  C   UNL     1      42.462 -17.302   3.309  1.00  0.00     0.030 A 
BRANCH  22  25
HETATM   25  C   UNL     1      44.292 -20.583   2.986  1.00  0.00     0.251 C 
HETATM   26  N   UNL     1      44.563 -20.813   4.318  1.00  0.00    -0.361 N 
HETATM   27  C   UNL     1      45.094 -22.072   4.777  1.00  0.00     0.149 C 
HETATM   28  H   UNL     1      44.364 -20.102   5.007  1.00  0.00     0.162 HD
HETATM   29  O   UNL     1      44.442 -21.426   2.109  1.00  0.00    -0.268 OA
ENDBRANCH  22  25
ENDBRANCH   2  19
TORSDOF 6
ENDMDL
MODEL 3
REMARK VINA RESULT:      -7.7      0.980      1.370
REMARK  6 active torsions:
REMARK  status: ('A' for Active; 'I' for Inactive)
REMARK    1  A    between atoms: C_2  and  S_3 
REMARK    2  A    between atoms: C_2  and  C_18 
REMARK    3  A    between atoms: S_3  and  C_4 
REMARK    4  A    between atoms: C_4  and  C_5 
REMARK       I    between atoms: C_5  and  N_6 
REMARK    5  A    between atoms: N_6  and  C_7 
REMARK    6  A    between atoms: C_10  and  C_11 
REMARK       I    between atoms: C_11  and  N_12 
ROOT
HETATM    1  C   UNL     1      43.184 -13.815   4.246  1.00  0.00     0.231 C 
HETATM    2  N   UNL     1      41.952 -14.121   3.691  1.00  0.00    -0.327 N 
HETATM    3  O   UNL     1      44.225 -13.602   3.628  1.00  0.00    -0.272 OA
HETATM    4  H   UNL     1      41.151 -14.079   4.309  1.00  0.00     0.169 HD
ENDROOT
BRANCH   1   5
HETATM    5  C   UNL     1      43.153 -13.796   5.770  1.00  0.00     0.177 C 
BRANCH   5   6
HETATM    6  S   UNL     1      44.284 -15.020   6.508  1.00  0.00    -0.147 SA
BRANCH   6   7
HETATM    7  C   UNL     1      43.195 -16.488   6.698  1.00  0.00     0.113 C 
HETATM    8  C   UNL     1      43.361 -17.143   8.068  1.00  0.00     0.029 C 
BRANCH   7   9
HETATM    9  C   UNL     1      43.349 -17.463   5.573  1.00  0.00     0.118 A 
HETATM   10  N   UNL     1      42.711 -17.462   4.418  1.00  0.00    -0.232 NA
HETATM   11  C   UNL     1      43.219 -18.529   3.711  1.00  0.00     0.085 A 
HETATM   12  C   UNL     1      44.174 -19.208   4.457  1.00  0.00     0.062 A 
HETATM   13  C   UNL     1      42.903 -18.989   2.426  1.00  0.00     0.034 A 
HETATM   14  N   UNL     1      44.237 -18.515   5.637  1.00  0.00    -0.342 N 
HETATM   15  C   UNL     1      44.842 -20.344   4.000  1.00  0.00     0.032 A 
HETATM   16  H   UNL     1      44.801 -18.757   6.439  1.00  0.00     0.167 HD
HETATM   17  C   UNL     1      44.510 -20.792   2.716  1.00  0.00     0.002 A 
HETATM   18  C   UNL     1      43.557 -20.129   1.940  1.00  0.00     0.002 A 
ENDBRANCH   7   9
ENDBRANCH   6   7
ENDBRANCH   5   6
ENDBRANCH   1   5
BRANCH   2  19
HETATM   19  C   UNL     1      41.637 -14.297   2.329  1.00  0.00     0.034 A 
HETATM   20  C   UNL     1      41.482 -13.252   1.417  1.00  0.00     0.030 A 
HETATM   21  C   UNL     1      41.158 -13.515   0.078  1.00  0.00     0.019 A 
HETATM   22  C   UNL     1      41.001 -14.833  -0.364  1.00  0.00     0.032 A 
HETATM   23  C   UNL     1      41.147 -15.881   0.549  1.00  0.00     0.019 A 
HETATM   24  C   UNL     1      41.466 -15.614   1.883  1.00  0.00     0.030 A 
BRANCH  22  25
HETATM   25  C   UNL     1      40.656 -15.170  -1.773  1.00  0.00     0.251 C 
HETATM   26  N   UNL     1      39.400 -14.802  -2.205  1.00  0.00    -0.361 N 
HETATM   27  C   UNL     1      38.947 -15.083  -3.545  1.00  0.00     0.149 C 
HETATM   28  H   UNL     1      38.778 -14.296  -1.590  1.00  0.00     0.162 HD
HETATM   29  O   UNL     1      41.484 -15.721  -2.490  1.00  0.00    -0.268 OA
ENDBRANCH  22  25
ENDBRANCH   2  19
TORSDOF 6
ENDMDL
MODEL 4
REMARK VINA RESULT:      -7.7      2.790      6.162
REMARK  6 active torsions:
REMARK  status: ('A' for Active; 'I' for Inactive)
REMARK    1  A    between atoms: C_2  and  S_3 
REMARK    2  A    between atoms: C_2  and  C_18 
REMARK    3  A    between atoms: S_3  and  C_4 
REMARK    4  A    between atoms: C_4  and  C_5 
REMARK       I    between atoms: C_5  and  N_6 
REMARK    5  A    between atoms: N_6  and  C_7 
REMARK    6  A    between atoms: C_10  and  C_11 
REMARK       I    between atoms: C_11  and  N_12 
ROOT
HETATM    1  C   UNL     1      40.875 -15.521   1.486  1.00  0.00     0.231 C 
HETATM    2  N   UNL     1      42.207 -15.881   1.602  1.00  0.00    -0.327 N 
HETATM    3  O   UNL     1      39.908 -16.200   1.824  1.00  0.00    -0.272 OA
HETATM    4  H   UNL     1      42.891 -15.147   1.463  1.00  0.00     0.169 HD
ENDROOT
BRANCH   1   5
HETATM    5  C   UNL     1      40.690 -14.153   0.839  1.00  0.00     0.177 C 
BRANCH   5   6
HETATM    6  S   UNL     1      41.098 -12.783   1.969  1.00  0.00    -0.147 SA
BRANCH   6   7
HETATM    7  C   UNL     1      40.115 -13.208   3.463  1.00  0.00     0.113 C 
HETATM    8  C   UNL     1      39.538 -11.963   4.134  1.00  0.00     0.029 C 
BRANCH   7   9
HETATM    9  C   UNL     1      40.872 -14.076   4.418  1.00  0.00     0.118 A 
HETATM   10  N   UNL     1      42.111 -13.911   4.841  1.00  0.00    -0.232 NA
HETATM   11  C   UNL     1      42.342 -14.940   5.727  1.00  0.00     0.085 A 
HETATM   12  C   UNL     1      41.227 -15.762   5.832  1.00  0.00     0.062 A 
HETATM   13  C   UNL     1      43.488 -15.245   6.473  1.00  0.00     0.034 A 
HETATM   14  N   UNL     1      40.308 -15.196   4.989  1.00  0.00    -0.342 N 
HETATM   15  C   UNL     1      41.182 -16.897   6.642  1.00  0.00     0.032 A 
HETATM   16  H   UNL     1      39.389 -15.559   4.780  1.00  0.00     0.167 HD
HETATM   17  C   UNL     1      42.337 -17.189   7.376  1.00  0.00     0.002 A 
HETATM   18  C   UNL     1      43.473 -16.380   7.295  1.00  0.00     0.002 A 
ENDBRANCH   7   9
ENDBRANCH   6   7
ENDBRANCH   5   6
ENDBRANCH   1   5
BRANCH   2  19
HETATM   19  C   UNL     1      42.736 -17.097   2.079  1.00  0.00     0.034 A 
HETATM   20  C   UNL     1      42.638 -17.531   3.403  1.00  0.00     0.030 A 
HETATM   21  C   UNL     1      43.202 -18.752   3.796  1.00  0.00     0.019 A 
HETATM   22  C   UNL     1      43.857 -19.561   2.861  1.00  0.00     0.032 A 
HETATM   23  C   UNL     1      43.964 -19.126   1.538  1.00  0.00     0.019 A 
HETATM   24  C   UNL     1      43.404 -17.905   1.151  1.00  0.00     0.030 A 
BRANCH  22  25
HETATM   25  C   UNL     1      44.475 -20.867   3.225  1.00  0.00     0.251 C 
HETATM   26  N   UNL     1      44.674 -21.103   4.569  1.00  0.00    -0.361 N 
HETATM   27  C   UNL     1      45.273 -22.325   5.043  1.00  0.00     0.149 C 
HETATM   28  H   UNL     1      44.372 -20.425   5.254  1.00  0.00     0.162 HD
HETATM   29  O   UNL     1      44.752 -21.677   2.347  1.00  0.00    -0.268 OA
ENDBRANCH  22  25
ENDBRANCH   2  19
TORSDOF 6
ENDMDL
MODEL 5
REMARK VINA RESULT:      -7.6      2.672      6.895
REMARK  6 active torsions:
REMARK  status: ('A' for Active; 'I' for Inactive)
REMARK    1  A    between atoms: C_2  and  S_3 
REMARK    2  A    between atoms: C_2  and  C_18 
REMARK    3  A    between atoms: S_3  and  C_4 
REMARK    4  A    between atoms: C_4  and  C_5 
REMARK       I    between atoms: C_5  and  N_6 
REMARK    5  A    between atoms: N_6  and  C_7 
REMARK    6  A    between atoms: C_10  and  C_11 
REMARK       I    between atoms: C_11  and  N_12 
ROOT
HETATM    1  C   UNL     1      41.391 -16.005   0.419  1.00  0.00     0.231 C 
HETATM    2  N   UNL     1      42.679 -16.498   0.548  1.00  0.00    -0.327 N 
HETATM    3  O   UNL     1      40.431 -16.289   1.131  1.00  0.00    -0.272 OA
HETATM    4  H   UNL     1      43.402 -16.029   0.015  1.00  0.00     0.169 HD
ENDROOT
BRANCH   1   5
HETATM    5  C   UNL     1      41.242 -15.055  -0.765  1.00  0.00     0.177 C 
BRANCH   5   6
HETATM    6  S   UNL     1      40.043 -13.720  -0.443  1.00  0.00    -0.147 SA
BRANCH   6   7
HETATM    7  C   UNL     1      41.064 -12.495   0.471  1.00  0.00     0.113 C 
HETATM    8  C   UNL     1      42.197 -11.945  -0.394  1.00  0.00     0.029 C 
BRANCH   7   9
HETATM    9  C   UNL     1      41.548 -13.022   1.785  1.00  0.00     0.118 A 
HETATM   10  N   UNL     1      42.784 -13.007   2.248  1.00  0.00    -0.232 NA
HETATM   11  C   UNL     1      42.718 -13.570   3.503  1.00  0.00     0.085 A 
HETATM   12  C   UNL     1      41.417 -13.954   3.805  1.00  0.00     0.062 A 
HETATM   13  C   UNL     1      43.733 -13.798   4.442  1.00  0.00     0.034 A 
HETATM   14  N   UNL     1      40.694 -13.599   2.698  1.00  0.00    -0.342 N 
HETATM   15  C   UNL     1      41.056 -14.571   5.003  1.00  0.00     0.032 A 
HETATM   16  H   UNL     1      39.709 -13.772   2.550  1.00  0.00     0.167 HD
HETATM   17  C   UNL     1      42.084 -14.796   5.927  1.00  0.00     0.002 A 
HETATM   18  C   UNL     1      43.401 -14.418   5.654  1.00  0.00     0.002 A 
ENDBRANCH   7   9
ENDBRANCH   6   7
ENDBRANCH   5   6
ENDBRANCH   1   5
BRANCH   2  19
HETATM   19  C   UNL     1      43.152 -17.448   1.475  1.00  0.00     0.034 A 
HETATM   20  C   UNL     1      43.431 -18.780   1.163  1.00  0.00     0.030 A 
HETATM   21  C   UNL     1      43.890 -19.662   2.151  1.00  0.00     0.019 A 
HETATM   22  C   UNL     1      44.091 -19.213   3.461  1.00  0.00     0.032 A 
HETATM   23  C   UNL     1      43.805 -17.883   3.778  1.00  0.00     0.019 A 
HETATM   24  C   UNL     1      43.343 -17.008   2.791  1.00  0.00     0.030 A 
BRANCH  22  25
HETATM   25  C   UNL     1      44.577 -20.107   4.549  1.00  0.00     0.251 C 
HETATM   26  N   UNL     1      44.703 -21.445   4.238  1.00  0.00    -0.361 N 
HETATM   27  C   UNL     1      45.153 -22.409   5.210  1.00  0.00     0.149 C 
HETATM   28  H   UNL     1      44.507 -21.770   3.302  1.00  0.00     0.162 HD
HETATM   29  O   UNL     1      44.867 -19.637   5.643  1.00  0.00    -0.268 OA
ENDBRANCH  22  25
ENDBRANCH   2  19
TORSDOF 6
ENDMDL
MODEL 6
REMARK VINA RESULT:      -7.5      1.669      1.993
REMARK  6 active torsions:
REMARK  status: ('A' for Active; 'I' for Inactive)
REMARK    1  A    between atoms: C_2  and  S_3 
REMARK    2  A    between atoms: C_2  and  C_18 
REMARK    3  A    between atoms: S_3  and  C_4 
REMARK    4  A    between atoms: C_4  and  C_5 
REMARK       I    between atoms: C_5  and  N_6 
REMARK    5  A    between atoms: N_6  and  C_7 
REMARK    6  A    between atoms: C_10  and  C_11 
REMARK       I    between atoms: C_11  and  N_12 
ROOT
HETATM    1  C   UNL     1      41.012 -15.464   5.192  1.00  0.00     0.231 C 
HETATM    2  N   UNL     1      40.872 -16.244   4.056  1.00  0.00    -0.327 N 
HETATM    3  O   UNL     1      41.023 -14.236   5.232  1.00  0.00    -0.272 OA
HETATM    4  H   UNL     1      40.687 -17.229   4.200  1.00  0.00     0.169 HD
ENDROOT
BRANCH   1   5
HETATM    5  C   UNL     1      41.197 -16.296   6.457  1.00  0.00     0.177 C 
BRANCH   5   6
HETATM    6  S   UNL     1      42.937 -16.383   6.989  1.00  0.00    -0.147 SA
BRANCH   6   7
HETATM    7  C   UNL     1      43.197 -18.193   7.170  1.00  0.00     0.113 C 
HETATM    8  C   UNL     1      44.299 -18.509   8.180  1.00  0.00     0.029 C 
BRANCH   7   9
HETATM    9  C   UNL     1      43.411 -18.874   5.855  1.00  0.00     0.118 A 
HETATM   10  N   UNL     1      42.974 -18.486   4.672  1.00  0.00    -0.232 NA
HETATM   11  C   UNL     1      43.454 -19.414   3.775  1.00  0.00     0.085 A 
HETATM   12  C   UNL     1      44.185 -20.400   4.427  1.00  0.00     0.062 A 
HETATM   13  C   UNL     1      43.298 -19.488   2.385  1.00  0.00     0.034 A 
HETATM   14  N   UNL     1      44.140 -20.038   5.747  1.00  0.00    -0.342 N 
HETATM   15  C   UNL     1      44.773 -21.482   3.771  1.00  0.00     0.032 A 
HETATM   16  H   UNL     1      44.532 -20.557   6.520  1.00  0.00     0.167 HD
HETATM   17  C   UNL     1      44.602 -21.542   2.383  1.00  0.00     0.002 A 
HETATM   18  C   UNL     1      43.876 -20.564   1.698  1.00  0.00     0.002 A 
ENDBRANCH   7   9
ENDBRANCH   6   7
ENDBRANCH   5   6
ENDBRANCH   1   5
BRANCH   2  19
HETATM   19  C   UNL     1      40.759 -15.812   2.719  1.00  0.00     0.034 A 
HETATM   20  C   UNL     1      39.660 -15.120   2.207  1.00  0.00     0.030 A 
HETATM   21  C   UNL     1      39.624 -14.735   0.860  1.00  0.00     0.019 A 
HETATM   22  C   UNL     1      40.700 -15.027   0.014  1.00  0.00     0.032 A 
HETATM   23  C   UNL     1      41.797 -15.727   0.522  1.00  0.00     0.019 A 
HETATM   24  C   UNL     1      41.827 -16.112   1.865  1.00  0.00     0.030 A 
BRANCH  22  25
HETATM   25  C   UNL     1      40.715 -14.643  -1.425  1.00  0.00     0.251 C 
HETATM   26  N   UNL     1      39.635 -15.046  -2.182  1.00  0.00    -0.361 N 
HETATM   27  C   UNL     1      39.541 -14.743  -3.589  1.00  0.00     0.149 C 
HETATM   28  H   UNL     1      38.868 -15.541  -1.751  1.00  0.00     0.162 HD
HETATM   29  O   UNL     1      41.643 -13.977  -1.871  1.00  0.00    -0.268 OA
ENDBRANCH  22  25
ENDBRANCH   2  19
TORSDOF 6
ENDMDL
MODEL 7
REMARK VINA RESULT:      -7.4      2.562      7.429
REMARK  6 active torsions:
REMARK  status: ('A' for Active; 'I' for Inactive)
REMARK    1  A    between atoms: C_2  and  S_3 
REMARK    2  A    between atoms: C_2  and  C_18 
REMARK    3  A    between atoms: S_3  and  C_4 
REMARK    4  A    between atoms: C_4  and  C_5 
REMARK       I    between atoms: C_5  and  N_6 
REMARK    5  A    between atoms: N_6  and  C_7 
REMARK    6  A    between atoms: C_10  and  C_11 
REMARK       I    between atoms: C_11  and  N_12 
ROOT
HETATM    1  C   UNL     1      43.096 -13.845   3.056  1.00  0.00     0.231 C 
HETATM    2  N   UNL     1      42.538 -15.049   2.664  1.00  0.00    -0.327 N 
HETATM    3  O   UNL     1      44.139 -13.701   3.691  1.00  0.00    -0.272 OA
HETATM    4  H   UNL     1      41.787 -15.004   1.985  1.00  0.00     0.169 HD
ENDROOT
BRANCH   1   5
HETATM    5  C   UNL     1      42.252 -12.644   2.644  1.00  0.00     0.177 C 
BRANCH   5   6
HETATM    6  S   UNL     1      41.996 -12.552   0.842  1.00  0.00    -0.147 SA
BRANCH   6   7
HETATM    7  C   UNL     1      40.165 -12.633   0.706  1.00  0.00     0.113 C 
HETATM    8  C   UNL     1      39.523 -13.132   1.999  1.00  0.00     0.029 C 
BRANCH   7   9
HETATM    9  C   UNL     1      39.714 -13.404  -0.494  1.00  0.00     0.118 A 
HETATM   10  N   UNL     1      38.531 -13.361  -1.076  1.00  0.00    -0.232 NA
HETATM   11  C   UNL     1      38.615 -14.215  -2.153  1.00  0.00     0.085 A 
HETATM   12  C   UNL     1      39.870 -14.807  -2.219  1.00  0.00     0.062 A 
HETATM   13  C   UNL     1      37.652 -14.548  -3.116  1.00  0.00     0.034 A 
HETATM   14  N   UNL     1      40.549 -14.280  -1.153  1.00  0.00    -0.342 N 
HETATM   15  C   UNL     1      40.233 -15.735  -3.196  1.00  0.00     0.032 A 
HETATM   16  H   UNL     1      41.487 -14.523  -0.866  1.00  0.00     0.167 HD
HETATM   17  C   UNL     1      39.257 -16.058  -4.146  1.00  0.00     0.002 A 
HETATM   18  C   UNL     1      37.987 -15.477  -4.109  1.00  0.00     0.002 A 
ENDBRANCH   7   9
ENDBRANCH   6   7
ENDBRANCH   5   6
ENDBRANCH   1   5
BRANCH   2  19
HETATM   19  C   UNL     1      43.005 -16.350   2.939  1.00  0.00     0.034 A 
HETATM   20  C   UNL     1      42.974 -16.945   4.202  1.00  0.00     0.030 A 
HETATM   21  C   UNL     1      43.470 -18.243   4.390  1.00  0.00     0.019 A 
HETATM   22  C   UNL     1      43.989 -18.965   3.310  1.00  0.00     0.032 A 
HETATM   23  C   UNL     1      44.030 -18.368   2.047  1.00  0.00     0.019 A 
HETATM   24  C   UNL     1      43.538 -17.072   1.864  1.00  0.00     0.030 A 
BRANCH  22  25
HETATM   25  C   UNL     1      44.530 -20.345   3.453  1.00  0.00     0.251 C 
HETATM   26  N   UNL     1      44.636 -20.835   4.738  1.00  0.00    -0.361 N 
HETATM   27  C   UNL     1      45.155 -22.153   5.005  1.00  0.00     0.149 C 
HETATM   28  H   UNL     1      44.320 -20.282   5.521  1.00  0.00     0.162 HD
HETATM   29  O   UNL     1      44.827 -20.992   2.456  1.00  0.00    -0.268 OA
ENDBRANCH  22  25
ENDBRANCH   2  19
TORSDOF 6
ENDMDL
MODEL 8
REMARK VINA RESULT:      -7.4      4.640      8.225
REMARK  6 active torsions:
REMARK  status: ('A' for Active; 'I' for Inactive)
REMARK    1  A    between atoms: C_2  and  S_3 
REMARK    2  A    between atoms: C_2  and  C_18 
REMARK    3  A    between atoms: S_3  and  C_4 
REMARK    4  A    between atoms: C_4  and  C_5 
REMARK       I    between atoms: C_5  and  N_6 
REMARK    5  A    between atoms: N_6  and  C_7 
REMARK    6  A    between atoms: C_10  and  C_11 
REMARK       I    between atoms: C_11  and  N_12 
ROOT
HETATM    1  C   UNL     1      41.724 -14.262   5.277  1.00  0.00     0.231 C 
HETATM    2  N   UNL     1      42.977 -14.780   4.995  1.00  0.00    -0.327 N 
HETATM    3  O   UNL     1      40.653 -14.855   5.173  1.00  0.00    -0.272 OA
HETATM    4  H   UNL     1      43.774 -14.242   5.312  1.00  0.00     0.169 HD
ENDROOT
BRANCH   1   5
HETATM    5  C   UNL     1      41.777 -12.804   5.721  1.00  0.00     0.177 C 
BRANCH   5   6
HETATM    6  S   UNL     1      40.182 -12.212   6.376  1.00  0.00    -0.147 SA
BRANCH   6   7
HETATM    7  C   UNL     1      40.620 -10.545   7.013  1.00  0.00     0.113 C 
HETATM    8  C   UNL     1      41.287  -9.686   5.941  1.00  0.00     0.029 C 
BRANCH   7   9
HETATM    9  C   UNL     1      41.419 -10.608   8.277  1.00  0.00     0.118 A 
HETATM   10  N   UNL     1      42.707 -10.361   8.425  1.00  0.00    -0.232 NA
HETATM   11  C   UNL     1      42.964 -10.517   9.768  1.00  0.00     0.085 A 
HETATM   12  C   UNL     1      41.813 -10.886  10.453  1.00  0.00     0.062 A 
HETATM   13  C   UNL     1      44.164 -10.372  10.478  1.00  0.00     0.034 A 
HETATM   14  N   UNL     1      40.846 -10.941   9.485  1.00  0.00    -0.342 N 
HETATM   15  C   UNL     1      41.781 -11.134  11.826  1.00  0.00     0.032 A 
HETATM   16  H   UNL     1      39.886 -11.224   9.619  1.00  0.00     0.167 HD
HETATM   17  C   UNL     1      42.990 -10.989  12.517  1.00  0.00     0.002 A 
HETATM   18  C   UNL     1      44.163 -10.616  11.858  1.00  0.00     0.002 A 
ENDBRANCH   7   9
ENDBRANCH   6   7
ENDBRANCH   5   6
ENDBRANCH   1   5
BRANCH   2  19
HETATM   19  C   UNL     1      43.290 -16.059   4.493  1.00  0.00     0.034 A 
HETATM   20  C   UNL     1      43.298 -16.390   3.137  1.00  0.00     0.030 A 
HETATM   21  C   UNL     1      43.613 -17.692   2.723  1.00  0.00     0.019 A 
HETATM   22  C   UNL     1      43.940 -18.673   3.666  1.00  0.00     0.032 A 
HETATM   23  C   UNL     1      43.925 -18.346   5.024  1.00  0.00     0.019 A 
HETATM   24  C   UNL     1      43.606 -17.048   5.433  1.00  0.00     0.030 A 
BRANCH  22  25
HETATM   25  C   UNL     1      44.282 -20.071   3.283  1.00  0.00     0.251 C 
HETATM   26  N   UNL     1      43.752 -20.532   2.096  1.00  0.00    -0.361 N 
HETATM   27  C   UNL     1      44.002 -21.871   1.624  1.00  0.00     0.149 C 
HETATM   28  H   UNL     1      43.195 -19.921   1.516  1.00  0.00     0.162 HD
HETATM   29  O   UNL     1      45.023 -20.737   3.997  1.00  0.00    -0.268 OA
ENDBRANCH  22  25
ENDBRANCH   2  19
TORSDOF 6
ENDMDL
MODEL 9
REMARK VINA RESULT:      -7.1      2.701      7.430
REMARK  6 active torsions:
REMARK  status: ('A' for Active; 'I' for Inactive)
REMARK    1  A    between atoms: C_2  and  S_3 
REMARK    2  A    between atoms: C_2  and  C_18 
REMARK    3  A    between atoms: S_3  and  C_4 
REMARK    4  A    between atoms: C_4  and  C_5 
REMARK       I    between atoms: C_5  and  N_6 
REMARK    5  A    between atoms: N_6  and  C_7 
REMARK    6  A    between atoms: C_10  and  C_11 
REMARK       I    between atoms: C_11  and  N_12 
ROOT
HETATM    1  C   UNL     1      41.698 -14.011   2.394  1.00  0.00     0.231 C 
HETATM    2  N   UNL     1      42.926 -14.549   2.741  1.00  0.00    -0.327 N 
HETATM    3  O   UNL     1      40.696 -14.642   2.064  1.00  0.00    -0.272 OA
HETATM    4  H   UNL     1      43.592 -13.921   3.174  1.00  0.00     0.169 HD
ENDROOT
BRANCH   1   5
HETATM    5  C   UNL     1      41.696 -12.486   2.420  1.00  0.00     0.177 C 
BRANCH   5   6
HETATM    6  S   UNL     1      40.920 -11.761   0.939  1.00  0.00    -0.147 SA
BRANCH   6   7
HETATM    7  C   UNL     1      41.923 -12.488  -0.419  1.00  0.00     0.113 C 
HETATM    8  C   UNL     1      42.723 -11.422  -1.164  1.00  0.00     0.029 C 
BRANCH   7   9
HETATM    9  C   UNL     1      41.107 -13.341  -1.338  1.00  0.00     0.118 A 
HETATM   10  N   UNL     1      41.412 -14.539  -1.801  1.00  0.00    -0.232 NA
HETATM   11  C   UNL     1      40.339 -14.924  -2.573  1.00  0.00     0.085 A 
HETATM   12  C   UNL     1      39.366 -13.932  -2.597  1.00  0.00     0.062 A 
HETATM   13  C   UNL     1      40.127 -16.105  -3.296  1.00  0.00     0.034 A 
HETATM   14  N   UNL     1      39.878 -12.936  -1.809  1.00  0.00    -0.342 N 
HETATM   15  C   UNL     1      38.176 -14.040  -3.318  1.00  0.00     0.032 A 
HETATM   16  H   UNL     1      39.453 -12.036  -1.638  1.00  0.00     0.167 HD
HETATM   17  C   UNL     1      37.984 -15.224  -4.039  1.00  0.00     0.002 A 
HETATM   18  C   UNL     1      38.942 -16.242  -4.031  1.00  0.00     0.002 A 
ENDBRANCH   7   9
ENDBRANCH   6   7
ENDBRANCH   5   6
ENDBRANCH   1   5
BRANCH   2  19
HETATM   19  C   UNL     1      43.303 -15.906   2.750  1.00  0.00     0.034 A 
HETATM   20  C   UNL     1      43.668 -16.628   1.612  1.00  0.00     0.030 A 
HETATM   21  C   UNL     1      44.022 -17.981   1.708  1.00  0.00     0.019 A 
HETATM   22  C   UNL     1      44.029 -18.622   2.952  1.00  0.00     0.032 A 
HETATM   23  C   UNL     1      43.656 -17.905   4.091  1.00  0.00     0.019 A 
HETATM   24  C   UNL     1      43.300 -16.557   3.990  1.00  0.00     0.030 A 
BRANCH  22  25
HETATM   25  C   UNL     1      44.395 -20.057   3.112  1.00  0.00     0.251 C 
HETATM   26  N   UNL     1      44.113 -20.888   2.048  1.00  0.00    -0.361 N 
HETATM   27  C   UNL     1      44.411 -22.297   2.088  1.00  0.00     0.149 C 
HETATM   28  H   UNL     1      43.714 -20.511   1.200  1.00  0.00     0.162 HD
HETATM   29  O   UNL     1      44.944 -20.437   4.140  1.00  0.00    -0.268 OA
ENDBRANCH  22  25
ENDBRANCH   2  19
TORSDOF 6
ENDMDL
MODEL 10
REMARK VINA RESULT:      -7.0      4.608      8.608
REMARK  6 active torsions:
REMARK  status: ('A' for Active; 'I' for Inactive)
REMARK    1  A    between atoms: C_2  and  S_3 
REMARK    2  A    between atoms: C_2  and  C_18 
REMARK    3  A    between atoms: S_3  and  C_4 
REMARK    4  A    between atoms: C_4  and  C_5 
REMARK       I    between atoms: C_5  and  N_6 
REMARK    5  A    between atoms: N_6  and  C_7 
REMARK    6  A    between atoms: C_10  and  C_11 
REMARK       I    between atoms: C_11  and  N_12 
ROOT
HETATM    1  C   UNL     1      43.030 -13.760   3.990  1.00  0.00     0.231 C 
HETATM    2  N   UNL     1      42.378 -14.979   4.077  1.00  0.00    -0.327 N 
HETATM    3  O   UNL     1      44.216 -13.589   3.717  1.00  0.00    -0.272 OA
HETATM    4  H   UNL     1      41.367 -14.952   4.118  1.00  0.00     0.169 HD
ENDROOT
BRANCH   1   5
HETATM    5  C   UNL     1      42.117 -12.582   4.312  1.00  0.00     0.177 C 
BRANCH   5   6
HETATM    6  S   UNL     1      41.037 -12.904   5.744  1.00  0.00    -0.147 SA
BRANCH   6   7
HETATM    7  C   UNL     1      40.096 -11.331   5.881  1.00  0.00     0.113 C 
HETATM    8  C   UNL     1      40.732 -10.217   5.052  1.00  0.00     0.029 C 
BRANCH   7   9
HETATM    9  C   UNL     1      39.863 -10.927   7.303  1.00  0.00     0.118 A 
HETATM   10  N   UNL     1      38.929 -10.116   7.763  1.00  0.00    -0.232 NA
HETATM   11  C   UNL     1      39.101 -10.087   9.129  1.00  0.00     0.085 A 
HETATM   12  C   UNL     1      40.175 -10.882   9.510  1.00  0.00     0.062 A 
HETATM   13  C   UNL     1      38.383  -9.393  10.112  1.00  0.00     0.034 A 
HETATM   14  N   UNL     1      40.645 -11.402   8.333  1.00  0.00    -0.342 N 
HETATM   15  C   UNL     1      40.595 -11.025  10.833  1.00  0.00     0.032 A 
HETATM   16  H   UNL     1      41.456 -11.994   8.227  1.00  0.00     0.167 HD
HETATM   17  C   UNL     1      39.870 -10.320  11.800  1.00  0.00     0.002 A 
HETATM   18  C   UNL     1      38.782  -9.516  11.450  1.00  0.00     0.002 A 
ENDBRANCH   7   9
ENDBRANCH   6   7
ENDBRANCH   5   6
ENDBRANCH   1   5
BRANCH   2  19
HETATM   19  C   UNL     1      42.929 -16.267   3.919  1.00  0.00     0.034 A 
HETATM   20  C   UNL     1      43.361 -16.793   2.700  1.00  0.00     0.030 A 
HETATM   21  C   UNL     1      43.888 -18.090   2.631  1.00  0.00     0.019 A 
HETATM   22  C   UNL     1      44.003 -18.868   3.788  1.00  0.00     0.032 A 
HETATM   23  C   UNL     1      43.564 -18.347   5.007  1.00  0.00     0.019 A 
HETATM   24  C   UNL     1      43.035 -17.055   5.071  1.00  0.00     0.030 A 
BRANCH  22  25
HETATM   25  C   UNL     1      44.555 -20.252   3.771  1.00  0.00     0.251 C 
HETATM   26  N   UNL     1      44.621 -20.904   4.985  1.00  0.00    -0.361 N 
HETATM   27  C   UNL     1      45.145 -22.242   5.098  1.00  0.00     0.149 C 
HETATM   28  H   UNL     1      44.270 -20.459   5.821  1.00  0.00     0.162 HD
HETATM   29  O   UNL     1      44.896 -20.761   2.710  1.00  0.00    -0.268 OA
ENDBRANCH  22  25
ENDBRANCH   2  19
TORSDOF 6
ENDMDL
