MODEL 1
REMARK VINA RESULT:      -8.6      0.000      0.000
REMARK  8 active torsions:
REMARK  status: ('A' for Active; 'I' for Inactive)
REMARK    1  A    between atoms: C_2  and  C_3 
REMARK    2  A    between atoms: C_3  and  O_4 
REMARK    3  A    between atoms: O_4  and  C_5 
REMARK    4  A    between atoms: C_7  and  C_8 
REMARK    5  A    between atoms: N_9  and  C_10 
REMARK    6  A    between atoms: C_10  and  C_11 
REMARK    7  A    between atoms: C_24  and  C_25 
REMARK    8  A    between atoms: C_26  and  O_27 
ROOT
HETATM    1  C   UNL     1      41.581 -16.008   4.406  1.00  0.00     0.159 A 
HETATM    2  N   UNL     1      41.163 -14.640   3.993  1.00  0.00    -0.329 N 
HETATM    3  C   UNL     1      41.725 -13.619   4.764  1.00  0.00     0.273 A 
HETATM    4  O   UNL     1      41.529 -12.420   4.697  1.00  0.00    -0.266 OA
HETATM    5  C   UNL     1      42.559 -14.313   5.670  1.00  0.00     0.129 A 
HETATM    6  C   UNL     1      42.502 -15.667   5.515  1.00  0.00     0.034 A 
HETATM    7  N   UNL     1      43.409 -14.044   6.670  1.00  0.00    -0.272 N 
HETATM    8  H   UNL     1      43.691 -13.144   7.047  1.00  0.00     0.189 HD
HETATM    9  N   UNL     1      43.929 -15.182   7.198  1.00  0.00    -0.173 NA
HETATM   10  C   UNL     1      43.337 -16.198   6.515  1.00  0.00     0.101 A 
ENDROOT
BRANCH   1  11
HETATM   11  C   UNL     1      42.371 -16.739   3.346  1.00  0.00    -0.028 A 
HETATM   12  C   UNL     1      42.163 -18.102   3.059  1.00  0.00     0.046 A 
HETATM   13  C   UNL     1      42.910 -18.768   2.083  1.00  0.00     0.069 A 
HETATM   14  C   UNL     1      43.881 -18.067   1.370  1.00  0.00     0.037 A 
HETATM   15  C   UNL     1      44.107 -16.717   1.644  1.00  0.00     0.003 A 
HETATM   16  C   UNL     1      43.364 -16.060   2.627  1.00  0.00     0.010 A 
BRANCH  13  17
HETATM   17  O   UNL     1      42.591 -20.089   1.929  1.00  0.00    -0.348 OA
BRANCH  17  18
HETATM   18  C   UNL     1      43.660 -20.990   1.649  1.00  0.00     0.202 C 
BRANCH  18  19
HETATM   19  C   UNL     1      44.349 -21.280   2.949  1.00  0.00    -0.011 C 
HETATM   20  C   UNL     1      44.559 -22.505   3.448  1.00  0.00     0.009 C 
ENDBRANCH  18  19
ENDBRANCH  17  18
ENDBRANCH  13  17
ENDBRANCH   1  11
BRANCH   2  21
HETATM   21  C   UNL     1      40.132 -14.412   3.005  1.00  0.00     0.167 C 
BRANCH  21  22
HETATM   22  C   UNL     1      40.706 -14.220   1.630  1.00  0.00    -0.023 A 
HETATM   23  C   UNL     1      41.425 -13.076   1.303  1.00  0.00     0.125 A 
HETATM   24  N   UNL     1      41.991 -12.856   0.095  1.00  0.00    -0.273 NA
HETATM   25  C   UNL     1      41.825 -13.818  -0.839  1.00  0.00     0.116 A 
HETATM   26  C   UNL     1      41.124 -14.991  -0.618  1.00  0.00     0.020 A 
HETATM   27  C   UNL     1      40.559 -15.193   0.636  1.00  0.00     0.012 A 
ENDBRANCH  21  22
ENDBRANCH   2  21
BRANCH  10  28
HETATM   28  C   UNL     1      43.628 -17.594   6.855  1.00  0.00     0.028 A 
HETATM   29  C   UNL     1      43.713 -18.020   8.194  1.00  0.00     0.078 A 
HETATM   30  C   UNL     1      44.016 -19.342   8.517  1.00  0.00     0.037 A 
HETATM   31  C   UNL     1      44.221 -20.274   7.503  1.00  0.00     0.003 A 
HETATM   32  C   UNL     1      44.114 -19.882   6.170  1.00  0.00     0.001 A 
HETATM   33  C   UNL     1      43.815 -18.553   5.849  1.00  0.00     0.017 A 
BRANCH  29  34
HETATM   34  O   UNL     1      43.496 -17.173   9.251  1.00  0.00    -0.360 OA
HETATM   35  H   UNL     1      42.704 -17.524   9.720  1.00  0.00     0.217 HD
ENDBRANCH  29  34
ENDBRANCH  10  28
TORSDOF 8
ENDMDL
MODEL 2
REMARK VINA RESULT:      -8.5      2.242      4.997
REMARK  8 active torsions:
REMARK  status: ('A' for Active; 'I' for Inactive)
REMARK    1  A    between atoms: C_2  and  C_3 
REMARK    2  A    between atoms: C_3  and  O_4 
REMARK    3  A    between atoms: O_4  and  C_5 
REMARK    4  A    between atoms: C_7  and  C_8 
REMARK    5  A    between atoms: N_9  and  C_10 
REMARK    6  A    between atoms: C_10  and  C_11 
REMARK    7  A    between atoms: C_24  and  C_25 
REMARK    8  A    between atoms: C_26  and  O_27 
ROOT
HETATM    1  C   UNL     1      42.246 -17.477   5.097  1.00  0.00     0.159 A 
HETATM    2  N   UNL     1      42.249 -16.450   6.174  1.00  0.00    -0.329 N 
HETATM    3  C   UNL     1      43.402 -16.459   6.962  1.00  0.00     0.273 A 
HETATM    4  O   UNL     1      43.660 -15.779   7.938  1.00  0.00    -0.266 OA
HETATM    5  C   UNL     1      44.192 -17.474   6.378  1.00  0.00     0.129 A 
HETATM    6  C   UNL     1      43.576 -18.088   5.326  1.00  0.00     0.034 A 
HETATM    7  N   UNL     1      45.393 -18.042   6.545  1.00  0.00    -0.272 N 
HETATM    8  H   UNL     1      46.114 -17.828   7.229  1.00  0.00     0.189 HD
HETATM    9  N   UNL     1      45.608 -19.027   5.635  1.00  0.00    -0.173 NA
HETATM   10  C   UNL     1      44.464 -19.092   4.901  1.00  0.00     0.101 A 
ENDROOT
BRANCH   1  11
HETATM   11  C   UNL     1      42.232 -16.889   3.706  1.00  0.00    -0.028 A 
HETATM   12  C   UNL     1      41.035 -16.648   3.003  1.00  0.00     0.046 A 
HETATM   13  C   UNL     1      41.040 -16.114   1.711  1.00  0.00     0.069 A 
HETATM   14  C   UNL     1      42.255 -15.804   1.104  1.00  0.00     0.037 A 
HETATM   15  C   UNL     1      43.452 -16.042   1.781  1.00  0.00     0.003 A 
HETATM   16  C   UNL     1      43.442 -16.585   3.067  1.00  0.00     0.010 A 
BRANCH  13  17
HETATM   17  O   UNL     1      39.797 -15.946   1.164  1.00  0.00    -0.348 OA
BRANCH  17  18
HETATM   18  C   UNL     1      38.901 -15.068   1.840  1.00  0.00     0.202 C 
BRANCH  18  19
HETATM   19  C   UNL     1      38.604 -13.931   0.908  1.00  0.00    -0.011 C 
HETATM   20  C   UNL     1      37.380 -13.453   0.648  1.00  0.00     0.009 C 
ENDBRANCH  18  19
ENDBRANCH  17  18
ENDBRANCH  13  17
ENDBRANCH   1  11
BRANCH   2  21
HETATM   21  C   UNL     1      41.086 -15.646   6.478  1.00  0.00     0.167 C 
BRANCH  21  22
HETATM   22  C   UNL     1      41.029 -14.401   5.640  1.00  0.00    -0.023 A 
HETATM   23  C   UNL     1      39.814 -13.844   5.259  1.00  0.00     0.125 A 
HETATM   24  N   UNL     1      39.694 -12.710   4.531  1.00  0.00    -0.273 NA
HETATM   25  C   UNL     1      40.841 -12.106   4.154  1.00  0.00     0.116 A 
HETATM   26  C   UNL     1      42.102 -12.579   4.476  1.00  0.00     0.020 A 
HETATM   27  C   UNL     1      42.194 -13.743   5.231  1.00  0.00     0.012 A 
ENDBRANCH  21  22
ENDBRANCH   2  21
BRANCH  10  28
HETATM   28  C   UNL     1      44.316 -20.092   3.839  1.00  0.00     0.028 A 
HETATM   29  C   UNL     1      44.669 -21.439   4.047  1.00  0.00     0.078 A 
HETATM   30  C   UNL     1      44.552 -22.385   3.029  1.00  0.00     0.037 A 
HETATM   31  C   UNL     1      44.060 -22.005   1.783  1.00  0.00     0.003 A 
HETATM   32  C   UNL     1      43.678 -20.683   1.562  1.00  0.00     0.001 A 
HETATM   33  C   UNL     1      43.801 -19.735   2.585  1.00  0.00     0.017 A 
BRANCH  29  34
HETATM   34  O   UNL     1      45.133 -21.902   5.252  1.00  0.00    -0.360 OA
HETATM   35  H   UNL     1      46.087 -22.105   5.115  1.00  0.00     0.217 HD
ENDBRANCH  29  34
ENDBRANCH  10  28
TORSDOF 8
ENDMDL
MODEL 3
REMARK VINA RESULT:      -8.2      2.038      6.497
REMARK  8 active torsions:
REMARK  status: ('A' for Active; 'I' for Inactive)
REMARK    1  A    between atoms: C_2  and  C_3 
REMARK    2  A    between atoms: C_3  and  O_4 
REMARK    3  A    between atoms: O_4  and  C_5 
REMARK    4  A    between atoms: C_7  and  C_8 
REMARK    5  A    between atoms: N_9  and  C_10 
REMARK    6  A    between atoms: C_10  and  C_11 
REMARK    7  A    between atoms: C_24  and  C_25 
REMARK    8  A    between atoms: C_26  and  O_27 
ROOT
HETATM    1  C   UNL     1      43.024 -13.962   2.733  1.00  0.00     0.159 A 
HETATM    2  N   UNL     1      42.957 -13.561   4.165  1.00  0.00    -0.329 N 
HETATM    3  C   UNL     1      42.025 -12.555   4.429  1.00  0.00     0.273 A 
HETATM    4  O   UNL     1      41.790 -11.994   5.483  1.00  0.00    -0.266 OA
HETATM    5  C   UNL     1      41.437 -12.313   3.167  1.00  0.00     0.129 A 
HETATM    6  C   UNL     1      41.977 -13.076   2.173  1.00  0.00     0.034 A 
HETATM    7  N   UNL     1      40.488 -11.538   2.627  1.00  0.00    -0.272 N 
HETATM    8  H   UNL     1      39.884 -10.856   3.076  1.00  0.00     0.189 HD
HETATM    9  N   UNL     1      40.371 -11.755   1.291  1.00  0.00    -0.173 NA
HETATM   10  C   UNL     1      41.324 -12.678   0.993  1.00  0.00     0.101 A 
ENDROOT
BRANCH   1  11
HETATM   11  C   UNL     1      42.609 -15.394   2.490  1.00  0.00    -0.028 A 
HETATM   12  C   UNL     1      43.546 -16.438   2.367  1.00  0.00     0.046 A 
HETATM   13  C   UNL     1      43.145 -17.757   2.131  1.00  0.00     0.069 A 
HETATM   14  C   UNL     1      41.788 -18.050   2.020  1.00  0.00     0.037 A 
HETATM   15  C   UNL     1      40.844 -17.028   2.132  1.00  0.00     0.003 A 
HETATM   16  C   UNL     1      41.250 -15.711   2.358  1.00  0.00     0.010 A 
BRANCH  13  17
HETATM   17  O   UNL     1      44.176 -18.651   2.032  1.00  0.00    -0.348 OA
BRANCH  17  18
HETATM   18  C   UNL     1      44.346 -19.572   3.107  1.00  0.00     0.202 C 
BRANCH  18  19
HETATM   19  C   UNL     1      44.509 -20.935   2.503  1.00  0.00    -0.011 C 
HETATM   20  C   UNL     1      43.596 -21.548   1.740  1.00  0.00     0.009 C 
ENDBRANCH  18  19
ENDBRANCH  17  18
ENDBRANCH  13  17
ENDBRANCH   1  11
BRANCH   2  21
HETATM   21  C   UNL     1      43.899 -14.048   5.149  1.00  0.00     0.167 C 
BRANCH  21  22
HETATM   22  C   UNL     1      43.368 -15.240   5.893  1.00  0.00    -0.023 A 
HETATM   23  C   UNL     1      44.212 -16.063   6.630  1.00  0.00     0.125 A 
HETATM   24  N   UNL     1      43.794 -17.132   7.345  1.00  0.00    -0.273 NA
HETATM   25  C   UNL     1      42.471 -17.403   7.317  1.00  0.00     0.116 A 
HETATM   26  C   UNL     1      41.547 -16.650   6.612  1.00  0.00     0.020 A 
HETATM   27  C   UNL     1      42.005 -15.553   5.892  1.00  0.00     0.012 A 
ENDBRANCH  21  22
ENDBRANCH   2  21
BRANCH  10  28
HETATM   28  C   UNL     1      41.524 -13.124  -0.390  1.00  0.00     0.028 A 
HETATM   29  C   UNL     1      42.440 -12.479  -1.242  1.00  0.00     0.078 A 
HETATM   30  C   UNL     1      42.611 -12.886  -2.565  1.00  0.00     0.037 A 
HETATM   31  C   UNL     1      41.880 -13.965  -3.058  1.00  0.00     0.003 A 
HETATM   32  C   UNL     1      40.989 -14.636  -2.225  1.00  0.00     0.001 A 
HETATM   33  C   UNL     1      40.815 -14.222  -0.899  1.00  0.00     0.017 A 
BRANCH  29  34
HETATM   34  O   UNL     1      43.219 -11.429  -0.827  1.00  0.00    -0.360 OA
HETATM   35  H   UNL     1      42.618 -10.822  -0.338  1.00  0.00     0.217 HD
ENDBRANCH  29  34
ENDBRANCH  10  28
TORSDOF 8
ENDMDL
MODEL 4
REMARK VINA RESULT:      -7.7      2.828      8.203
REMARK  8 active torsions:
REMARK  status: ('A' for Active; 'I' for Inactive)
REMARK    1  A    between atoms: C_2  and  C_3 
REMARK    2  A    between atoms: C_3  and  O_4 
REMARK    3  A    between atoms: O_4  and  C_5 
REMARK    4  A    between atoms: C_7  and  C_8 
REMARK    5  A    between atoms: N_9  and  C_10 
REMARK    6  A    between atoms: C_10  and  C_11 
REMARK    7  A    between atoms: C_24  and  C_25 
REMARK    8  A    between atoms: C_26  and  O_27 
ROOT
HETATM    1  C   UNL     1      40.550 -16.067   3.201  1.00  0.00     0.159 A 
HETATM    2  N   UNL     1      41.469 -17.234   3.308  1.00  0.00    -0.329 N 
HETATM    3  C   UNL     1      42.128 -17.546   2.118  1.00  0.00     0.273 A 
HETATM    4  O   UNL     1      42.889 -18.469   1.890  1.00  0.00    -0.266 OA
HETATM    5  C   UNL     1      41.677 -16.552   1.221  1.00  0.00     0.129 A 
HETATM    6  C   UNL     1      40.774 -15.698   1.784  1.00  0.00     0.034 A 
HETATM    7  N   UNL     1      41.863 -16.179  -0.052  1.00  0.00    -0.272 N 
HETATM    8  H   UNL     1      42.470 -16.588  -0.758  1.00  0.00     0.189 HD
HETATM    9  N   UNL     1      41.108 -15.096  -0.368  1.00  0.00    -0.173 NA
HETATM   10  C   UNL     1      40.393 -14.817   0.756  1.00  0.00     0.101 A 
ENDROOT
BRANCH   1  11
HETATM   11  C   UNL     1      40.963 -14.897   4.063  1.00  0.00    -0.028 A 
HETATM   12  C   UNL     1      40.122 -14.361   5.057  1.00  0.00     0.046 A 
HETATM   13  C   UNL     1      40.515 -13.270   5.838  1.00  0.00     0.069 A 
HETATM   14  C   UNL     1      41.771 -12.702   5.636  1.00  0.00     0.037 A 
HETATM   15  C   UNL     1      42.617 -13.214   4.651  1.00  0.00     0.003 A 
HETATM   16  C   UNL     1      42.216 -14.298   3.867  1.00  0.00     0.010 A 
BRANCH  13  17
HETATM   17  O   UNL     1      39.583 -12.866   6.754  1.00  0.00    -0.348 OA
BRANCH  17  18
HETATM   18  C   UNL     1      39.603 -11.495   7.144  1.00  0.00     0.202 C 
BRANCH  18  19
HETATM   19  C   UNL     1      39.256 -11.441   8.602  1.00  0.00    -0.011 C 
HETATM   20  C   UNL     1      40.051 -10.948   9.560  1.00  0.00     0.009 C 
ENDBRANCH  18  19
ENDBRANCH  17  18
ENDBRANCH  13  17
ENDBRANCH   1  11
BRANCH   2  21
HETATM   21  C   UNL     1      41.525 -18.067   4.489  1.00  0.00     0.167 C 
BRANCH  21  22
HETATM   22  C   UNL     1      42.833 -17.923   5.215  1.00  0.00    -0.023 A 
HETATM   23  C   UNL     1      43.842 -18.869   5.073  1.00  0.00     0.125 A 
HETATM   24  N   UNL     1      45.051 -18.783   5.674  1.00  0.00    -0.273 NA
HETATM   25  C   UNL     1      45.262 -17.709   6.464  1.00  0.00     0.116 A 
HETATM   26  C   UNL     1      44.324 -16.714   6.676  1.00  0.00     0.020 A 
HETATM   27  C   UNL     1      43.093 -16.824   6.040  1.00  0.00     0.012 A 
ENDBRANCH  21  22
ENDBRANCH   2  21
BRANCH  10  28
HETATM   28  C   UNL     1      39.420 -13.721   0.767  1.00  0.00     0.028 A 
HETATM   29  C   UNL     1      38.444 -13.596  -0.239  1.00  0.00     0.078 A 
HETATM   30  C   UNL     1      37.536 -12.539  -0.242  1.00  0.00     0.037 A 
HETATM   31  C   UNL     1      37.572 -11.591   0.778  1.00  0.00     0.003 A 
HETATM   32  C   UNL     1      38.510 -11.709   1.800  1.00  0.00     0.001 A 
HETATM   33  C   UNL     1      39.425 -12.769   1.798  1.00  0.00     0.017 A 
BRANCH  29  34
HETATM   34  O   UNL     1      38.321 -14.502  -1.262  1.00  0.00    -0.360 OA
HETATM   35  H   UNL     1      38.431 -13.987  -2.095  1.00  0.00     0.217 HD
ENDBRANCH  29  34
ENDBRANCH  10  28
TORSDOF 8
ENDMDL
MODEL 5
REMARK VINA RESULT:      -7.7      2.442      7.694
REMARK  8 active torsions:
REMARK  status: ('A' for Active; 'I' for Inactive)
REMARK    1  A    between atoms: C_2  and  C_3 
REMARK    2  A    between atoms: C_3  and  O_4 
REMARK    3  A    between atoms: O_4  and  C_5 
REMARK    4  A    between atoms: C_7  and  C_8 
REMARK    5  A    between atoms: N_9  and  C_10 
REMARK    6  A    between atoms: C_10  and  C_11 
REMARK    7  A    between atoms: C_24  and  C_25 
REMARK    8  A    between atoms: C_26  and  O_27 
ROOT
HETATM    1  C   UNL     1      40.763 -16.421   3.306  1.00  0.00     0.159 A 
HETATM    2  N   UNL     1      41.750 -17.528   3.443  1.00  0.00    -0.329 N 
HETATM    3  C   UNL     1      42.538 -17.727   2.308  1.00  0.00     0.273 A 
HETATM    4  O   UNL     1      43.382 -18.582   2.109  1.00  0.00    -0.266 OA
HETATM    5  C   UNL     1      42.102 -16.716   1.422  1.00  0.00     0.129 A 
HETATM    6  C   UNL     1      41.091 -15.959   1.937  1.00  0.00     0.034 A 
HETATM    7  N   UNL     1      42.378 -16.261   0.193  1.00  0.00    -0.272 N 
HETATM    8  H   UNL     1      43.075 -16.588  -0.470  1.00  0.00     0.189 HD
HETATM    9  N   UNL     1      41.579 -15.215  -0.140  1.00  0.00    -0.173 NA
HETATM   10  C   UNL     1      40.745 -15.049   0.922  1.00  0.00     0.101 A 
ENDROOT
BRANCH   1  11
HETATM   11  C   UNL     1      41.008 -15.276   4.260  1.00  0.00    -0.028 A 
HETATM   12  C   UNL     1      42.283 -14.705   4.439  1.00  0.00     0.046 A 
HETATM   13  C   UNL     1      42.495 -13.653   5.335  1.00  0.00     0.069 A 
HETATM   14  C   UNL     1      41.421 -13.150   6.065  1.00  0.00     0.037 A 
HETATM   15  C   UNL     1      40.150 -13.707   5.908  1.00  0.00     0.003 A 
HETATM   16  C   UNL     1      39.946 -14.764   5.019  1.00  0.00     0.010 A 
BRANCH  13  17
HETATM   17  O   UNL     1      43.790 -13.215   5.396  1.00  0.00    -0.348 OA
BRANCH  17  18
HETATM   18  C   UNL     1      44.720 -14.026   6.109  1.00  0.00     0.202 C 
BRANCH  18  19
HETATM   19  C   UNL     1      44.656 -13.613   7.550  1.00  0.00    -0.011 C 
HETATM   20  C   UNL     1      45.547 -12.822   8.160  1.00  0.00     0.009 C 
ENDBRANCH  18  19
ENDBRANCH  17  18
ENDBRANCH  13  17
ENDBRANCH   1  11
BRANCH   2  21
HETATM   21  C   UNL     1      41.757 -18.420   4.581  1.00  0.00     0.167 C 
BRANCH  21  22
HETATM   22  C   UNL     1      42.772 -18.010   5.609  1.00  0.00    -0.023 A 
HETATM   23  C   UNL     1      42.387 -17.413   6.804  1.00  0.00     0.125 A 
HETATM   24  N   UNL     1      43.247 -17.049   7.782  1.00  0.00    -0.273 NA
HETATM   25  C   UNL     1      44.558 -17.280   7.555  1.00  0.00     0.116 A 
HETATM   26  C   UNL     1      45.048 -17.864   6.399  1.00  0.00     0.020 A 
HETATM   27  C   UNL     1      44.139 -18.235   5.414  1.00  0.00     0.012 A 
ENDBRANCH  21  22
ENDBRANCH   2  21
BRANCH  10  28
HETATM   28  C   UNL     1      39.698 -14.023   0.893  1.00  0.00     0.028 A 
HETATM   29  C   UNL     1      38.858 -13.863  -0.225  1.00  0.00     0.078 A 
HETATM   30  C   UNL     1      37.880 -12.871  -0.262  1.00  0.00     0.037 A 
HETATM   31  C   UNL     1      37.707 -12.026   0.833  1.00  0.00     0.003 A 
HETATM   32  C   UNL     1      38.508 -12.183   1.962  1.00  0.00     0.001 A 
HETATM   33  C   UNL     1      39.493 -13.177   1.994  1.00  0.00     0.017 A 
BRANCH  29  34
HETATM   34  O   UNL     1      38.941 -14.672  -1.330  1.00  0.00    -0.360 OA
HETATM   35  H   UNL     1      39.836 -15.083  -1.297  1.00  0.00     0.217 HD
ENDBRANCH  29  34
ENDBRANCH  10  28
TORSDOF 8
ENDMDL
MODEL 6
REMARK VINA RESULT:      -7.5      2.569      5.643
REMARK  8 active torsions:
REMARK  status: ('A' for Active; 'I' for Inactive)
REMARK    1  A    between atoms: C_2  and  C_3 
REMARK    2  A    between atoms: C_3  and  O_4 
REMARK    3  A    between atoms: O_4  and  C_5 
REMARK    4  A    between atoms: C_7  and  C_8 
REMARK    5  A    between atoms: N_9  and  C_10 
REMARK    6  A    between atoms: C_10  and  C_11 
REMARK    7  A    between atoms: C_24  and  C_25 
REMARK    8  A    between atoms: C_26  and  O_27 
ROOT
HETATM    1  C   UNL     1      42.404 -14.674   2.117  1.00  0.00     0.159 A 
HETATM    2  N   UNL     1      41.693 -13.966   1.017  1.00  0.00    -0.329 N 
HETATM    3  C   UNL     1      41.021 -14.816   0.137  1.00  0.00     0.273 A 
HETATM    4  O   UNL     1      40.406 -14.532  -0.874  1.00  0.00    -0.266 OA
HETATM    5  C   UNL     1      41.251 -16.101   0.680  1.00  0.00     0.129 A 
HETATM    6  C   UNL     1      42.038 -16.073   1.794  1.00  0.00     0.034 A 
HETATM    7  N   UNL     1      40.931 -17.376   0.428  1.00  0.00    -0.272 N 
HETATM    8  H   UNL     1      40.356 -17.759  -0.318  1.00  0.00     0.189 HD
HETATM    9  N   UNL     1      41.482 -18.216   1.343  1.00  0.00    -0.173 NA
HETATM   10  C   UNL     1      42.209 -17.418   2.170  1.00  0.00     0.101 A 
ENDROOT
BRANCH   1  11
HETATM   11  C   UNL     1      41.861 -14.351   3.489  1.00  0.00    -0.028 A 
HETATM   12  C   UNL     1      42.667 -13.804   4.507  1.00  0.00     0.046 A 
HETATM   13  C   UNL     1      42.151 -13.521   5.776  1.00  0.00     0.069 A 
HETATM   14  C   UNL     1      40.809 -13.778   6.041  1.00  0.00     0.037 A 
HETATM   15  C   UNL     1      39.995 -14.326   5.048  1.00  0.00     0.003 A 
HETATM   16  C   UNL     1      40.517 -14.616   3.785  1.00  0.00     0.010 A 
BRANCH  13  17
HETATM   17  O   UNL     1      43.063 -12.999   6.652  1.00  0.00    -0.348 OA
BRANCH  17  18
HETATM   18  C   UNL     1      44.265 -13.737   6.859  1.00  0.00     0.202 C 
BRANCH  18  19
HETATM   19  C   UNL     1      44.869 -13.252   8.143  1.00  0.00    -0.011 C 
HETATM   20  C   UNL     1      45.988 -12.522   8.235  1.00  0.00     0.009 C 
ENDBRANCH  18  19
ENDBRANCH  17  18
ENDBRANCH  13  17
ENDBRANCH   1  11
BRANCH   2  21
HETATM   21  C   UNL     1      41.842 -12.546   0.790  1.00  0.00     0.167 C 
BRANCH  21  22
HETATM   22  C   UNL     1      40.743 -11.754   1.440  1.00  0.00    -0.023 A 
HETATM   23  C   UNL     1      39.476 -11.682   0.873  1.00  0.00     0.125 A 
HETATM   24  N   UNL     1      38.437 -11.013   1.422  1.00  0.00    -0.273 NA
HETATM   25  C   UNL     1      38.673 -10.374   2.589  1.00  0.00     0.116 A 
HETATM   26  C   UNL     1      39.898 -10.379   3.233  1.00  0.00     0.020 A 
HETATM   27  C   UNL     1      40.946 -11.081   2.649  1.00  0.00     0.012 A 
ENDBRANCH  21  22
ENDBRANCH   2  21
BRANCH  10  28
HETATM   28  C   UNL     1      42.993 -17.997   3.266  1.00  0.00     0.028 A 
HETATM   29  C   UNL     1      43.701 -19.203   3.103  1.00  0.00     0.078 A 
HETATM   30  C   UNL     1      44.424 -19.766   4.153  1.00  0.00     0.037 A 
HETATM   31  C   UNL     1      44.471 -19.122   5.387  1.00  0.00     0.003 A 
HETATM   32  C   UNL     1      43.802 -17.914   5.564  1.00  0.00     0.001 A 
HETATM   33  C   UNL     1      43.071 -17.353   4.509  1.00  0.00     0.017 A 
BRANCH  29  34
HETATM   34  O   UNL     1      43.731 -19.884   1.913  1.00  0.00    -0.360 OA
HETATM   35  H   UNL     1      44.653 -20.219   1.816  1.00  0.00     0.217 HD
ENDBRANCH  29  34
ENDBRANCH  10  28
TORSDOF 8
ENDMDL
MODEL 7
REMARK VINA RESULT:      -7.5      2.563      6.633
REMARK  8 active torsions:
REMARK  status: ('A' for Active; 'I' for Inactive)
REMARK    1  A    between atoms: C_2  and  C_3 
REMARK    2  A    between atoms: C_3  and  O_4 
REMARK    3  A    between atoms: O_4  and  C_5 
REMARK    4  A    between atoms: C_7  and  C_8 
REMARK    5  A    between atoms: N_9  and  C_10 
REMARK    6  A    between atoms: C_10  and  C_11 
REMARK    7  A    between atoms: C_24  and  C_25 
REMARK    8  A    between atoms: C_26  and  O_27 
ROOT
HETATM    1  C   UNL     1      42.930 -14.010   3.413  1.00  0.00     0.159 A 
HETATM    2  N   UNL     1      42.703 -13.916   4.881  1.00  0.00    -0.329 N 
HETATM    3  C   UNL     1      41.885 -12.850   5.261  1.00  0.00     0.273 A 
HETATM    4  O   UNL     1      41.572 -12.494   6.382  1.00  0.00    -0.266 OA
HETATM    5  C   UNL     1      41.531 -12.253   4.030  1.00  0.00     0.129 A 
HETATM    6  C   UNL     1      42.106 -12.867   2.956  1.00  0.00     0.034 A 
HETATM    7  N   UNL     1      40.786 -11.236   3.578  1.00  0.00    -0.272 N 
HETATM    8  H   UNL     1      40.218 -10.575   4.100  1.00  0.00     0.189 HD
HETATM    9  N   UNL     1      40.842 -11.143   2.224  1.00  0.00    -0.173 NA
HETATM   10  C   UNL     1      41.697 -12.126   1.832  1.00  0.00     0.101 A 
ENDROOT
BRANCH   1  11
HETATM   11  C   UNL     1      42.368 -15.270   2.797  1.00  0.00    -0.028 A 
HETATM   12  C   UNL     1      43.193 -16.294   2.293  1.00  0.00     0.046 A 
HETATM   13  C   UNL     1      42.657 -17.449   1.716  1.00  0.00     0.069 A 
HETATM   14  C   UNL     1      41.274 -17.598   1.643  1.00  0.00     0.037 A 
HETATM   15  C   UNL     1      40.438 -16.592   2.132  1.00  0.00     0.003 A 
HETATM   16  C   UNL     1      40.979 -15.436   2.698  1.00  0.00     0.010 A 
BRANCH  13  17
HETATM   17  O   UNL     1      43.590 -18.344   1.269  1.00  0.00    -0.348 OA
BRANCH  17  18
HETATM   18  C   UNL     1      44.100 -19.281   2.214  1.00  0.00     0.202 C 
BRANCH  18  19
HETATM   19  C   UNL     1      43.496 -20.614   1.888  1.00  0.00    -0.011 C 
HETATM   20  C   UNL     1      44.173 -21.768   1.830  1.00  0.00     0.009 C 
ENDBRANCH  18  19
ENDBRANCH  17  18
ENDBRANCH  13  17
ENDBRANCH   1  11
BRANCH   2  21
HETATM   21  C   UNL     1      43.413 -14.748   5.827  1.00  0.00     0.167 C 
BRANCH  21  22
HETATM   22  C   UNL     1      44.480 -13.983   6.556  1.00  0.00    -0.023 A 
HETATM   23  C   UNL     1      45.718 -13.739   5.971  1.00  0.00     0.125 A 
HETATM   24  N   UNL     1      46.709 -13.032   6.561  1.00  0.00    -0.273 NA
HETATM   25  C   UNL     1      46.461 -12.555   7.800  1.00  0.00     0.116 A 
HETATM   26  C   UNL     1      45.266 -12.746   8.473  1.00  0.00     0.020 A 
HETATM   27  C   UNL     1      44.263 -13.469   7.839  1.00  0.00     0.012 A 
ENDBRANCH  21  22
ENDBRANCH   2  21
BRANCH  10  28
HETATM   28  C   UNL     1      42.041 -12.295   0.417  1.00  0.00     0.028 A 
HETATM   29  C   UNL     1      42.731 -11.296  -0.294  1.00  0.00     0.078 A 
HETATM   30  C   UNL     1      43.034 -11.446  -1.647  1.00  0.00     0.037 A 
HETATM   31  C   UNL     1      42.670 -12.613  -2.313  1.00  0.00     0.003 A 
HETATM   32  C   UNL     1      42.011 -13.628  -1.624  1.00  0.00     0.001 A 
HETATM   33  C   UNL     1      41.702 -13.472  -0.267  1.00  0.00     0.017 A 
BRANCH  29  34
HETATM   34  O   UNL     1      43.152 -10.131   0.294  1.00  0.00    -0.360 OA
HETATM   35  H   UNL     1      44.009  -9.905  -0.136  1.00  0.00     0.217 HD
ENDBRANCH  29  34
ENDBRANCH  10  28
TORSDOF 8
ENDMDL
MODEL 8
REMARK VINA RESULT:      -7.5      2.584      6.522
REMARK  8 active torsions:
REMARK  status: ('A' for Active; 'I' for Inactive)
REMARK    1  A    between atoms: C_2  and  C_3 
REMARK    2  A    between atoms: C_3  and  O_4 
REMARK    3  A    between atoms: O_4  and  C_5 
REMARK    4  A    between atoms: C_7  and  C_8 
REMARK    5  A    between atoms: N_9  and  C_10 
REMARK    6  A    between atoms: C_10  and  C_11 
REMARK    7  A    between atoms: C_24  and  C_25 
REMARK    8  A    between atoms: C_26  and  O_27 
ROOT
HETATM    1  C   UNL     1      42.660 -16.200   4.066  1.00  0.00     0.159 A 
HETATM    2  N   UNL     1      43.238 -17.475   4.573  1.00  0.00    -0.329 N 
HETATM    3  C   UNL     1      42.550 -18.014   5.662  1.00  0.00     0.273 A 
HETATM    4  O   UNL     1      42.818 -19.007   6.314  1.00  0.00    -0.266 OA
HETATM    5  C   UNL     1      41.479 -17.112   5.855  1.00  0.00     0.129 A 
HETATM    6  C   UNL     1      41.505 -16.063   4.983  1.00  0.00     0.034 A 
HETATM    7  N   UNL     1      40.417 -16.962   6.656  1.00  0.00    -0.272 N 
HETATM    8  H   UNL     1      40.093 -17.559   7.412  1.00  0.00     0.189 HD
HETATM    9  N   UNL     1      39.722 -15.835   6.352  1.00  0.00    -0.173 NA
HETATM   10  C   UNL     1      40.417 -15.247   5.342  1.00  0.00     0.101 A 
ENDROOT
BRANCH   1  11
HETATM   11  C   UNL     1      42.131 -16.300   2.655  1.00  0.00    -0.028 A 
HETATM   12  C   UNL     1      42.315 -15.275   1.707  1.00  0.00     0.046 A 
HETATM   13  C   UNL     1      41.809 -15.378   0.408  1.00  0.00     0.069 A 
HETATM   14  C   UNL     1      41.111 -16.524   0.036  1.00  0.00     0.037 A 
HETATM   15  C   UNL     1      40.911 -17.550   0.962  1.00  0.00     0.003 A 
HETATM   16  C   UNL     1      41.410 -17.437   2.262  1.00  0.00     0.010 A 
BRANCH  13  17
HETATM   17  O   UNL     1      42.069 -14.296  -0.388  1.00  0.00    -0.348 OA
BRANCH  17  18
HETATM   18  C   UNL     1      41.217 -14.095  -1.513  1.00  0.00     0.202 C 
BRANCH  18  19
HETATM   19  C   UNL     1      40.171 -13.100  -1.106  1.00  0.00    -0.011 C 
HETATM   20  C   UNL     1      38.917 -13.409  -0.753  1.00  0.00     0.009 C 
ENDBRANCH  18  19
ENDBRANCH  17  18
ENDBRANCH  13  17
ENDBRANCH   1  11
BRANCH   2  21
HETATM   21  C   UNL     1      44.497 -17.998   4.091  1.00  0.00     0.167 C 
BRANCH  21  22
HETATM   22  C   UNL     1      44.351 -19.384   3.531  1.00  0.00    -0.023 A 
HETATM   23  C   UNL     1      44.822 -20.493   4.224  1.00  0.00     0.125 A 
HETATM   24  N   UNL     1      44.695 -21.768   3.791  1.00  0.00    -0.273 NA
HETATM   25  C   UNL     1      44.080 -21.948   2.602  1.00  0.00     0.116 A 
HETATM   26  C   UNL     1      43.579 -20.913   1.831  1.00  0.00     0.020 A 
HETATM   27  C   UNL     1      43.717 -19.613   2.306  1.00  0.00     0.012 A 
ENDBRANCH  21  22
ENDBRANCH   2  21
BRANCH  10  28
HETATM   28  C   UNL     1      39.978 -13.964   4.784  1.00  0.00     0.028 A 
HETATM   29  C   UNL     1      39.808 -12.829   5.600  1.00  0.00     0.078 A 
HETATM   30  C   UNL     1      39.366 -11.617   5.073  1.00  0.00     0.037 A 
HETATM   31  C   UNL     1      39.103 -11.508   3.710  1.00  0.00     0.003 A 
HETATM   32  C   UNL     1      39.291 -12.609   2.878  1.00  0.00     0.001 A 
HETATM   33  C   UNL     1      39.729 -13.827   3.410  1.00  0.00     0.017 A 
BRANCH  29  34
HETATM   34  O   UNL     1      40.075 -12.843   6.945  1.00  0.00    -0.360 OA
HETATM   35  H   UNL     1      41.056 -12.821   7.027  1.00  0.00     0.217 HD
ENDBRANCH  29  34
ENDBRANCH  10  28
TORSDOF 8
ENDMDL
MODEL 9
REMARK VINA RESULT:      -7.4      2.276      6.717
REMARK  8 active torsions:
REMARK  status: ('A' for Active; 'I' for Inactive)
REMARK    1  A    between atoms: C_2  and  C_3 
REMARK    2  A    between atoms: C_3  and  O_4 
REMARK    3  A    between atoms: O_4  and  C_5 
REMARK    4  A    between atoms: C_7  and  C_8 
REMARK    5  A    between atoms: N_9  and  C_10 
REMARK    6  A    between atoms: C_10  and  C_11 
REMARK    7  A    between atoms: C_24  and  C_25 
REMARK    8  A    between atoms: C_26  and  O_27 
ROOT
HETATM    1  C   UNL     1      41.812 -13.626   2.798  1.00  0.00     0.159 A 
HETATM    2  N   UNL     1      42.168 -13.523   4.240  1.00  0.00    -0.329 N 
HETATM    3  C   UNL     1      41.238 -12.815   5.004  1.00  0.00     0.273 A 
HETATM    4  O   UNL     1      41.287 -12.526   6.185  1.00  0.00    -0.266 OA
HETATM    5  C   UNL     1      40.231 -12.480   4.069  1.00  0.00     0.129 A 
HETATM    6  C   UNL     1      40.517 -12.907   2.805  1.00  0.00     0.034 A 
HETATM    7  N   UNL     1      39.051 -11.849   4.038  1.00  0.00    -0.272 N 
HETATM    8  H   UNL     1      38.536 -11.413   4.799  1.00  0.00     0.189 HD
HETATM    9  N   UNL     1      38.528 -11.835   2.785  1.00  0.00    -0.173 NA
HETATM   10  C   UNL     1      39.455 -12.452   2.003  1.00  0.00     0.101 A 
ENDROOT
BRANCH   1  11
HETATM   11  C   UNL     1      41.561 -15.044   2.341  1.00  0.00    -0.028 A 
HETATM   12  C   UNL     1      42.588 -15.866   1.839  1.00  0.00     0.046 A 
HETATM   13  C   UNL     1      42.336 -17.173   1.410  1.00  0.00     0.069 A 
HETATM   14  C   UNL     1      41.041 -17.679   1.486  1.00  0.00     0.037 A 
HETATM   15  C   UNL     1      40.007 -16.878   1.974  1.00  0.00     0.003 A 
HETATM   16  C   UNL     1      40.262 -15.571   2.393  1.00  0.00     0.010 A 
BRANCH  13  17
HETATM   17  O   UNL     1      43.438 -17.837   0.945  1.00  0.00    -0.348 OA
BRANCH  17  18
HETATM   18  C   UNL     1      44.366 -18.319   1.913  1.00  0.00     0.202 C 
BRANCH  18  19
HETATM   19  C   UNL     1      43.785 -19.571   2.501  1.00  0.00    -0.011 C 
HETATM   20  C   UNL     1      43.604 -20.718   1.834  1.00  0.00     0.009 C 
ENDBRANCH  18  19
ENDBRANCH  17  18
ENDBRANCH  13  17
ENDBRANCH   1  11
BRANCH   2  21
HETATM   21  C   UNL     1      43.447 -13.962   4.753  1.00  0.00     0.167 C 
BRANCH  21  22
HETATM   22  C   UNL     1      43.298 -15.067   5.759  1.00  0.00    -0.023 A 
HETATM   23  C   UNL     1      44.023 -15.063   6.946  1.00  0.00     0.125 A 
HETATM   24  N   UNL     1      43.913 -16.010   7.905  1.00  0.00    -0.273 NA
HETATM   25  C   UNL     1      43.048 -17.019   7.666  1.00  0.00     0.116 A 
HETATM   26  C   UNL     1      42.283 -17.121   6.516  1.00  0.00     0.020 A 
HETATM   27  C   UNL     1      42.411 -16.128   5.552  1.00  0.00     0.012 A 
ENDBRANCH  21  22
ENDBRANCH   2  21
BRANCH  10  28
HETATM   28  C   UNL     1      39.245 -12.578   0.557  1.00  0.00     0.028 A 
HETATM   29  C   UNL     1      38.223 -13.391   0.033  1.00  0.00     0.078 A 
HETATM   30  C   UNL     1      38.041 -13.531  -1.342  1.00  0.00     0.037 A 
HETATM   31  C   UNL     1      38.869 -12.841  -2.225  1.00  0.00     0.003 A 
HETATM   32  C   UNL     1      39.869 -12.009  -1.729  1.00  0.00     0.001 A 
HETATM   33  C   UNL     1      40.054 -11.875  -0.348  1.00  0.00     0.017 A 
BRANCH  29  34
HETATM   34  O   UNL     1      37.346 -14.079   0.832  1.00  0.00    -0.360 OA
HETATM   35  H   UNL     1      36.842 -14.675   0.232  1.00  0.00     0.217 HD
ENDBRANCH  29  34
ENDBRANCH  10  28
TORSDOF 8
ENDMDL
MODEL 10
REMARK VINA RESULT:      -7.4      2.990      6.467
REMARK  8 active torsions:
REMARK  status: ('A' for Active; 'I' for Inactive)
REMARK    1  A    between atoms: C_2  and  C_3 
REMARK    2  A    between atoms: C_3  and  O_4 
REMARK    3  A    between atoms: O_4  and  C_5 
REMARK    4  A    between atoms: C_7  and  C_8 
REMARK    5  A    between atoms: N_9  and  C_10 
REMARK    6  A    between atoms: C_10  and  C_11 
REMARK    7  A    between atoms: C_24  and  C_25 
REMARK    8  A    between atoms: C_26  and  O_27 
ROOT
HETATM    1  C   UNL     1      40.730 -14.387   4.600  1.00  0.00     0.159 A 
HETATM    2  N   UNL     1      40.865 -14.841   3.189  1.00  0.00    -0.329 N 
HETATM    3  C   UNL     1      41.040 -13.801   2.273  1.00  0.00     0.273 A 
HETATM    4  O   UNL     1      41.123 -13.862   1.060  1.00  0.00    -0.266 OA
HETATM    5  C   UNL     1      41.063 -12.646   3.088  1.00  0.00     0.129 A 
HETATM    6  C   UNL     1      40.881 -12.925   4.411  1.00  0.00     0.034 A 
HETATM    7  N   UNL     1      41.209 -11.321   2.958  1.00  0.00    -0.272 N 
HETATM    8  H   UNL     1      41.367 -10.772   2.118  1.00  0.00     0.189 HD
HETATM    9  N   UNL     1      41.128 -10.693   4.160  1.00  0.00    -0.173 NA
HETATM   10  C   UNL     1      40.879 -11.679   5.064  1.00  0.00     0.101 A 
ENDROOT
BRANCH   1  11
HETATM   11  C   UNL     1      41.851 -14.863   5.494  1.00  0.00    -0.028 A 
HETATM   12  C   UNL     1      43.062 -14.156   5.625  1.00  0.00     0.046 A 
HETATM   13  C   UNL     1      44.094 -14.617   6.448  1.00  0.00     0.069 A 
HETATM   14  C   UNL     1      43.921 -15.800   7.163  1.00  0.00     0.037 A 
HETATM   15  C   UNL     1      42.730 -16.519   7.043  1.00  0.00     0.003 A 
HETATM   16  C   UNL     1      41.706 -16.059   6.211  1.00  0.00     0.010 A 
BRANCH  13  17
HETATM   17  O   UNL     1      45.205 -13.820   6.461  1.00  0.00    -0.348 OA
BRANCH  17  18
HETATM   18  C   UNL     1      45.652 -13.344   7.728  1.00  0.00     0.202 C 
BRANCH  18  19
HETATM   19  C   UNL     1      44.546 -12.511   8.305  1.00  0.00    -0.011 C 
HETATM   20  C   UNL     1      44.605 -11.865   9.476  1.00  0.00     0.009 C 
ENDBRANCH  18  19
ENDBRANCH  17  18
ENDBRANCH  13  17
ENDBRANCH   1  11
BRANCH   2  21
HETATM   21  C   UNL     1      40.653 -16.216   2.796  1.00  0.00     0.167 C 
BRANCH  21  22
HETATM   22  C   UNL     1      41.948 -16.946   2.582  1.00  0.00    -0.023 A 
HETATM   23  C   UNL     1      42.786 -16.627   1.520  1.00  0.00     0.125 A 
HETATM   24  N   UNL     1      43.978 -17.224   1.289  1.00  0.00    -0.273 NA
HETATM   25  C   UNL     1      44.349 -18.194   2.152  1.00  0.00     0.116 A 
HETATM   26  C   UNL     1      43.588 -18.590   3.238  1.00  0.00     0.020 A 
HETATM   27  C   UNL     1      42.371 -17.954   3.455  1.00  0.00     0.012 A 
ENDBRANCH  21  22
ENDBRANCH   2  21
BRANCH  10  28
HETATM   28  C   UNL     1      40.680 -11.359   6.481  1.00  0.00     0.028 A 
HETATM   29  C   UNL     1      39.569 -11.847   7.194  1.00  0.00     0.078 A 
HETATM   30  C   UNL     1      39.367 -11.522   8.534  1.00  0.00     0.037 A 
HETATM   31  C   UNL     1      40.286 -10.712   9.197  1.00  0.00     0.003 A 
HETATM   32  C   UNL     1      41.408 -10.240   8.520  1.00  0.00     0.001 A 
HETATM   33  C   UNL     1      41.606 -10.564   7.172  1.00  0.00     0.017 A 
BRANCH  29  34
HETATM   34  O   UNL     1      38.634 -12.674   6.624  1.00  0.00    -0.360 OA
HETATM   35  H   UNL     1      38.471 -13.391   7.280  1.00  0.00     0.217 HD
ENDBRANCH  29  34
ENDBRANCH  10  28
TORSDOF 8
ENDMDL
