MODEL 1
REMARK VINA RESULT:      -8.6      0.000      0.000
REMARK  6 active torsions:
REMARK  status: ('A' for Active; 'I' for Inactive)
REMARK    1  A    between atoms: C_2  and  N_3 
REMARK    2  A    between atoms: C_2  and  C_19 
REMARK       I    between atoms: N_3  and  C_4 
REMARK    3  A    between atoms: C_4  and  C_5 
REMARK    4  A    between atoms: C_9  and  C_10 
REMARK    5  A    between atoms: C_13  and  O_14 
REMARK    6  A    between atoms: C_19  and  C_20 
ROOT
HETATM    1  N   UNL     1      41.948 -16.138   3.608  1.00  0.00    -0.347 N 
HETATM    2  C   UNL     1      42.589 -15.135   2.917  1.00  0.00     0.270 C 
HETATM    3  O   UNL     1      43.637 -14.619   3.285  1.00  0.00    -0.266 OA
HETATM    4  H   UNL     1      41.223 -16.630   3.106  1.00  0.00     0.163 HD
ENDROOT
BRANCH   2   5
HETATM    5  C   UNL     1      41.958 -14.766   1.677  1.00  0.00     0.120 A 
HETATM    6  N   UNL     1      42.032 -13.496   1.179  1.00  0.00    -0.272 N 
HETATM    7  H   UNL     1      42.498 -12.701   1.607  1.00  0.00     0.189 HD
HETATM    8  N   UNL     1      41.434 -13.335  -0.012  1.00  0.00    -0.174 NA
HETATM    9  C   UNL     1      40.920 -14.541  -0.302  1.00  0.00     0.089 A 
HETATM   10  C   UNL     1      41.216 -15.460   0.743  1.00  0.00     0.071 A 
BRANCH   9  11
HETATM   11  C   UNL     1      40.190 -14.797  -1.550  1.00  0.00    -0.005 A 
HETATM   12  C   UNL     1      40.647 -15.766  -2.459  1.00  0.00     0.016 A 
HETATM   13  C   UNL     1      39.947 -16.034  -3.640  1.00  0.00     0.037 A 
HETATM   14  C   UNL     1      38.784 -15.328  -3.919  1.00  0.00     0.065 A 
HETATM   15  C   UNL     1      38.314 -14.361  -3.041  1.00  0.00     0.037 A 
HETATM   16  C   UNL     1      39.014 -14.095  -1.861  1.00  0.00     0.016 A 
BRANCH  14  17
HETATM   17  O   UNL     1      38.065 -15.558  -5.053  1.00  0.00    -0.361 OA
HETATM   18  H   UNL     1      37.562 -16.381  -4.938  1.00  0.00     0.217 HD
ENDBRANCH  14  17
ENDBRANCH   9  11
ENDBRANCH   2   5
BRANCH   1  19
HETATM   19  C   UNL     1      42.499 -16.848   4.776  1.00  0.00     0.030 C 
HETATM   20  C   UNL     1      42.563 -15.917   6.005  1.00  0.00     0.038 C 
HETATM   21  C   UNL     1      41.517 -17.985   5.130  1.00  0.00     0.038 C 
BRANCH  19  22
HETATM   22  C   UNL     1      43.925 -17.415   4.498  1.00  0.00     0.069 C 
BRANCH  22  23
HETATM   23  C   UNL     1      43.977 -18.713   3.716  1.00  0.00    -0.056 A 
HETATM   24  C   UNL     1      44.549 -19.862   4.290  1.00  0.00     0.010 A 
HETATM   25  C   UNL     1      44.619 -21.055   3.569  1.00  0.00     0.043 A 
HETATM   26  C   UNL     1      44.110 -21.105   2.279  1.00  0.00     0.116 A 
HETATM   27  F   UNL     1      44.177 -22.250   1.587  1.00  0.00    -0.206 F 
HETATM   28  C   UNL     1      43.526 -19.987   1.697  1.00  0.00     0.043 A 
HETATM   29  C   UNL     1      43.456 -18.792   2.415  1.00  0.00     0.010 A 
ENDBRANCH  22  23
ENDBRANCH  19  22
ENDBRANCH   1  19
TORSDOF 6
ENDMDL
MODEL 2
REMARK VINA RESULT:      -8.5      2.985      7.738
REMARK  6 active torsions:
REMARK  status: ('A' for Active; 'I' for Inactive)
REMARK    1  A    between atoms: C_2  and  N_3 
REMARK    2  A    between atoms: C_2  and  C_19 
REMARK       I    between atoms: N_3  and  C_4 
REMARK    3  A    between atoms: C_4  and  C_5 
REMARK    4  A    between atoms: C_9  and  C_10 
REMARK    5  A    between atoms: C_13  and  O_14 
REMARK    6  A    between atoms: C_19  and  C_20 
ROOT
HETATM    1  N   UNL     1      40.256 -14.847   1.266  1.00  0.00    -0.347 N 
HETATM    2  C   UNL     1      41.612 -14.664   1.410  1.00  0.00     0.270 C 
HETATM    3  O   UNL     1      42.195 -13.630   1.105  1.00  0.00    -0.266 OA
HETATM    4  H   UNL     1      39.862 -15.643   1.747  1.00  0.00     0.163 HD
ENDROOT
BRANCH   2   5
HETATM    5  C   UNL     1      42.305 -15.776   2.007  1.00  0.00     0.120 A 
HETATM    6  N   UNL     1      42.938 -15.670   3.213  1.00  0.00    -0.272 N 
HETATM    7  H   UNL     1      43.008 -14.838   3.791  1.00  0.00     0.189 HD
HETATM    8  N   UNL     1      43.488 -16.814   3.649  1.00  0.00    -0.174 NA
HETATM    9  C   UNL     1      43.231 -17.707   2.680  1.00  0.00     0.089 A 
HETATM   10  C   UNL     1      42.504 -17.088   1.627  1.00  0.00     0.071 A 
BRANCH   9  11
HETATM   11  C   UNL     1      43.657 -19.109   2.782  1.00  0.00    -0.005 A 
HETATM   12  C   UNL     1      44.384 -19.555   3.898  1.00  0.00     0.016 A 
HETATM   13  C   UNL     1      44.776 -20.893   4.017  1.00  0.00     0.037 A 
HETATM   14  C   UNL     1      44.443 -21.793   3.012  1.00  0.00     0.065 A 
HETATM   15  C   UNL     1      43.731 -21.377   1.896  1.00  0.00     0.037 A 
HETATM   16  C   UNL     1      43.339 -20.040   1.780  1.00  0.00     0.016 A 
BRANCH  14  17
HETATM   17  O   UNL     1      44.797 -23.107   3.086  1.00  0.00    -0.361 OA
HETATM   18  H   UNL     1      45.765 -23.168   3.044  1.00  0.00     0.217 HD
ENDBRANCH  14  17
ENDBRANCH   9  11
ENDBRANCH   2   5
BRANCH   1  19
HETATM   19  C   UNL     1      39.294 -13.794   0.896  1.00  0.00     0.030 C 
HETATM   20  C   UNL     1      37.852 -14.345   0.883  1.00  0.00     0.038 C 
HETATM   21  C   UNL     1      39.346 -12.713   1.997  1.00  0.00     0.038 C 
BRANCH  19  22
HETATM   22  C   UNL     1      39.609 -13.176  -0.501  1.00  0.00     0.069 C 
BRANCH  22  23
HETATM   23  C   UNL     1      39.429 -14.102  -1.688  1.00  0.00    -0.056 A 
HETATM   24  C   UNL     1      40.484 -14.932  -2.104  1.00  0.00     0.010 A 
HETATM   25  C   UNL     1      40.333 -15.772  -3.208  1.00  0.00     0.043 A 
HETATM   26  C   UNL     1      39.125 -15.793  -3.891  1.00  0.00     0.116 A 
HETATM   27  F   UNL     1      38.979 -16.599  -4.951  1.00  0.00    -0.206 F 
HETATM   28  C   UNL     1      38.062 -14.992  -3.489  1.00  0.00     0.043 A 
HETATM   29  C   UNL     1      38.212 -14.150  -2.386  1.00  0.00     0.010 A 
ENDBRANCH  22  23
ENDBRANCH  19  22
ENDBRANCH   1  19
TORSDOF 6
ENDMDL
MODEL 3
REMARK VINA RESULT:      -8.2      3.612      8.844
REMARK  6 active torsions:
REMARK  status: ('A' for Active; 'I' for Inactive)
REMARK    1  A    between atoms: C_2  and  N_3 
REMARK    2  A    between atoms: C_2  and  C_19 
REMARK       I    between atoms: N_3  and  C_4 
REMARK    3  A    between atoms: C_4  and  C_5 
REMARK    4  A    between atoms: C_9  and  C_10 
REMARK    5  A    between atoms: C_13  and  O_14 
REMARK    6  A    between atoms: C_19  and  C_20 
ROOT
HETATM    1  N   UNL     1      41.809 -15.468  -0.745  1.00  0.00    -0.347 N 
HETATM    2  C   UNL     1      41.989 -15.140   0.579  1.00  0.00     0.270 C 
HETATM    3  O   UNL     1      41.636 -14.074   1.070  1.00  0.00    -0.266 OA
HETATM    4  H   UNL     1      41.936 -16.441  -0.982  1.00  0.00     0.163 HD
ENDROOT
BRANCH   2   5
HETATM    5  C   UNL     1      42.584 -16.180   1.377  1.00  0.00     0.120 A 
HETATM    6  N   UNL     1      43.033 -15.950   2.646  1.00  0.00    -0.272 N 
HETATM    7  H   UNL     1      43.020 -15.064   3.145  1.00  0.00     0.189 HD
HETATM    8  N   UNL     1      43.511 -17.039   3.268  1.00  0.00    -0.174 NA
HETATM    9  C   UNL     1      43.396 -18.026   2.365  1.00  0.00     0.089 A 
HETATM   10  C   UNL     1      42.833 -17.520   1.161  1.00  0.00     0.071 A 
BRANCH   9  11
HETATM   11  C   UNL     1      43.799 -19.405   2.665  1.00  0.00    -0.005 A 
HETATM   12  C   UNL     1      44.427 -19.717   3.882  1.00  0.00     0.016 A 
HETATM   13  C   UNL     1      44.795 -21.032   4.189  1.00  0.00     0.037 A 
HETATM   14  C   UNL     1      44.537 -22.044   3.272  1.00  0.00     0.065 A 
HETATM   15  C   UNL     1      43.923 -21.762   2.060  1.00  0.00     0.037 A 
HETATM   16  C   UNL     1      43.555 -20.448   1.756  1.00  0.00     0.016 A 
BRANCH  14  17
HETATM   17  O   UNL     1      44.871 -23.339   3.528  1.00  0.00    -0.361 OA
HETATM   18  H   UNL     1      45.381 -23.369   4.354  1.00  0.00     0.217 HD
ENDBRANCH  14  17
ENDBRANCH   9  11
ENDBRANCH   2   5
BRANCH   1  19
HETATM   19  C   UNL     1      41.028 -14.680  -1.714  1.00  0.00     0.030 C 
HETATM   20  C   UNL     1      41.733 -13.345  -2.034  1.00  0.00     0.038 C 
HETATM   21  C   UNL     1      40.979 -15.484  -3.031  1.00  0.00     0.038 C 
BRANCH  19  22
HETATM   22  C   UNL     1      39.587 -14.377  -1.198  1.00  0.00     0.069 C 
BRANCH  22  23
HETATM   23  C   UNL     1      38.584 -13.951  -2.253  1.00  0.00    -0.056 A 
HETATM   24  C   UNL     1      37.870 -14.918  -2.980  1.00  0.00     0.010 A 
HETATM   25  C   UNL     1      36.960 -14.534  -3.967  1.00  0.00     0.043 A 
HETATM   26  C   UNL     1      36.756 -13.185  -4.221  1.00  0.00     0.116 A 
HETATM   27  F   UNL     1      35.884 -12.816  -5.169  1.00  0.00    -0.206 F 
HETATM   28  C   UNL     1      37.441 -12.211  -3.505  1.00  0.00     0.043 A 
HETATM   29  C   UNL     1      38.351 -12.593  -2.518  1.00  0.00     0.010 A 
ENDBRANCH  22  23
ENDBRANCH  19  22
ENDBRANCH   1  19
TORSDOF 6
ENDMDL
MODEL 4
REMARK VINA RESULT:      -8.2      1.827      2.551
REMARK  6 active torsions:
REMARK  status: ('A' for Active; 'I' for Inactive)
REMARK    1  A    between atoms: C_2  and  N_3 
REMARK    2  A    between atoms: C_2  and  C_19 
REMARK       I    between atoms: N_3  and  C_4 
REMARK    3  A    between atoms: C_4  and  C_5 
REMARK    4  A    between atoms: C_9  and  C_10 
REMARK    5  A    between atoms: C_13  and  O_14 
REMARK    6  A    between atoms: C_19  and  C_20 
ROOT
HETATM    1  N   UNL     1      42.982 -17.574   4.964  1.00  0.00    -0.347 N 
HETATM    2  C   UNL     1      42.016 -16.632   5.236  1.00  0.00     0.270 C 
HETATM    3  O   UNL     1      41.765 -16.222   6.363  1.00  0.00    -0.266 OA
HETATM    4  H   UNL     1      43.247 -17.670   3.995  1.00  0.00     0.163 HD
ENDROOT
BRANCH   2   5
HETATM    5  C   UNL     1      41.344 -16.113   4.074  1.00  0.00     0.120 A 
HETATM    6  N   UNL     1      40.200 -15.372   4.172  1.00  0.00    -0.272 N 
HETATM    7  H   UNL     1      39.704 -15.129   5.025  1.00  0.00     0.189 HD
HETATM    8  N   UNL     1      39.733 -14.921   2.998  1.00  0.00    -0.174 NA
HETATM    9  C   UNL     1      40.588 -15.404   2.082  1.00  0.00     0.089 A 
HETATM   10  C   UNL     1      41.603 -16.170   2.720  1.00  0.00     0.071 A 
BRANCH   9  11
HETATM   11  C   UNL     1      40.437 -15.118   0.650  1.00  0.00    -0.005 A 
HETATM   12  C   UNL     1      39.507 -14.164   0.206  1.00  0.00     0.016 A 
HETATM   13  C   UNL     1      39.370 -13.867  -1.154  1.00  0.00     0.037 A 
HETATM   14  C   UNL     1      40.166 -14.530  -2.080  1.00  0.00     0.065 A 
HETATM   15  C   UNL     1      41.089 -15.481  -1.670  1.00  0.00     0.037 A 
HETATM   16  C   UNL     1      41.225 -15.776  -0.310  1.00  0.00     0.016 A 
BRANCH  14  17
HETATM   17  O   UNL     1      40.074 -14.270  -3.415  1.00  0.00    -0.361 OA
HETATM   18  H   UNL     1      39.172 -13.966  -3.608  1.00  0.00     0.217 HD
ENDBRANCH  14  17
ENDBRANCH   9  11
ENDBRANCH   2   5
BRANCH   1  19
HETATM   19  C   UNL     1      43.958 -18.092   5.938  1.00  0.00     0.030 C 
HETATM   20  C   UNL     1      44.578 -16.943   6.762  1.00  0.00     0.038 C 
HETATM   21  C   UNL     1      43.188 -18.987   6.933  1.00  0.00     0.038 C 
BRANCH  19  22
HETATM   22  C   UNL     1      45.106 -18.893   5.249  1.00  0.00     0.069 C 
BRANCH  22  23
HETATM   23  C   UNL     1      44.681 -19.821   4.128  1.00  0.00    -0.056 A 
HETATM   24  C   UNL     1      44.857 -21.209   4.254  1.00  0.00     0.010 A 
HETATM   25  C   UNL     1      44.488 -22.069   3.219  1.00  0.00     0.043 A 
HETATM   26  C   UNL     1      43.932 -21.544   2.060  1.00  0.00     0.116 A 
HETATM   27  F   UNL     1      43.577 -22.368   1.065  1.00  0.00    -0.206 F 
HETATM   28  C   UNL     1      43.734 -20.175   1.918  1.00  0.00     0.043 A 
HETATM   29  C   UNL     1      44.104 -19.314   2.952  1.00  0.00     0.010 A 
ENDBRANCH  22  23
ENDBRANCH  19  22
ENDBRANCH   1  19
TORSDOF 6
ENDMDL
MODEL 5
REMARK VINA RESULT:      -8.2      4.396      8.636
REMARK  6 active torsions:
REMARK  status: ('A' for Active; 'I' for Inactive)
REMARK    1  A    between atoms: C_2  and  N_3 
REMARK    2  A    between atoms: C_2  and  C_19 
REMARK       I    between atoms: N_3  and  C_4 
REMARK    3  A    between atoms: C_4  and  C_5 
REMARK    4  A    between atoms: C_9  and  C_10 
REMARK    5  A    between atoms: C_13  and  O_14 
REMARK    6  A    between atoms: C_19  and  C_20 
ROOT
HETATM    1  N   UNL     1      43.071 -15.879   5.124  1.00  0.00    -0.347 N 
HETATM    2  C   UNL     1      43.661 -14.647   4.954  1.00  0.00     0.270 C 
HETATM    3  O   UNL     1      43.855 -14.132   3.859  1.00  0.00    -0.266 OA
HETATM    4  H   UNL     1      42.768 -16.100   6.061  1.00  0.00     0.163 HD
ENDROOT
BRANCH   2   5
HETATM    5  C   UNL     1      43.992 -13.969   6.179  1.00  0.00     0.120 A 
HETATM    6  N   UNL     1      45.215 -14.106   6.774  1.00  0.00    -0.272 N 
HETATM    7  H   UNL     1      45.986 -14.684   6.452  1.00  0.00     0.189 HD
HETATM    8  N   UNL     1      45.377 -13.364   7.880  1.00  0.00    -0.174 NA
HETATM    9  C   UNL     1      44.205 -12.728   8.039  1.00  0.00     0.089 A 
HETATM   10  C   UNL     1      43.306 -13.096   6.999  1.00  0.00     0.071 A 
BRANCH   9  11
HETATM   11  C   UNL     1      43.972 -11.789   9.144  1.00  0.00    -0.005 A 
HETATM   12  C   UNL     1      42.914 -10.867   9.086  1.00  0.00     0.016 A 
HETATM   13  C   UNL     1      42.668  -9.983  10.141  1.00  0.00     0.037 A 
HETATM   14  C   UNL     1      43.488 -10.015  11.263  1.00  0.00     0.065 A 
HETATM   15  C   UNL     1      44.544 -10.911  11.343  1.00  0.00     0.037 A 
HETATM   16  C   UNL     1      44.787 -11.795  10.287  1.00  0.00     0.016 A 
BRANCH  14  17
HETATM   17  O   UNL     1      43.285  -9.178  12.318  1.00  0.00    -0.361 OA
HETATM   18  H   UNL     1      44.036  -9.264  12.929  1.00  0.00     0.217 HD
ENDBRANCH  14  17
ENDBRANCH   9  11
ENDBRANCH   2   5
BRANCH   1  19
HETATM   19  C   UNL     1      42.439 -16.670   4.054  1.00  0.00     0.030 C 
HETATM   20  C   UNL     1      41.727 -17.910   4.634  1.00  0.00     0.038 C 
HETATM   21  C   UNL     1      41.346 -15.789   3.412  1.00  0.00     0.038 C 
BRANCH  19  22
HETATM   22  C   UNL     1      43.472 -17.138   2.982  1.00  0.00     0.069 C 
BRANCH  22  23
HETATM   23  C   UNL     1      43.790 -18.620   2.975  1.00  0.00    -0.056 A 
HETATM   24  C   UNL     1      44.497 -19.197   4.044  1.00  0.00     0.010 A 
HETATM   25  C   UNL     1      44.811 -20.557   4.035  1.00  0.00     0.043 A 
HETATM   26  C   UNL     1      44.411 -21.344   2.964  1.00  0.00     0.116 A 
HETATM   27  F   UNL     1      44.712 -22.649   2.955  1.00  0.00    -0.206 F 
HETATM   28  C   UNL     1      43.697 -20.799   1.903  1.00  0.00     0.043 A 
HETATM   29  C   UNL     1      43.383 -19.439   1.910  1.00  0.00     0.010 A 
ENDBRANCH  22  23
ENDBRANCH  19  22
ENDBRANCH   1  19
TORSDOF 6
ENDMDL
MODEL 6
REMARK VINA RESULT:      -8.1      4.244      8.791
REMARK  6 active torsions:
REMARK  status: ('A' for Active; 'I' for Inactive)
REMARK    1  A    between atoms: C_2  and  N_3 
REMARK    2  A    between atoms: C_2  and  C_19 
REMARK       I    between atoms: N_3  and  C_4 
REMARK    3  A    between atoms: C_4  and  C_5 
REMARK    4  A    between atoms: C_9  and  C_10 
REMARK    5  A    between atoms: C_13  and  O_14 
REMARK    6  A    between atoms: C_19  and  C_20 
ROOT
HETATM    1  N   UNL     1      41.776 -15.094  -0.891  1.00  0.00    -0.347 N 
HETATM    2  C   UNL     1      41.266 -15.424   0.344  1.00  0.00     0.270 C 
HETATM    3  O   UNL     1      40.195 -15.008   0.770  1.00  0.00    -0.266 OA
HETATM    4  H   UNL     1      42.546 -15.660  -1.219  1.00  0.00     0.163 HD
ENDROOT
BRANCH   2   5
HETATM    5  C   UNL     1      42.070 -16.353   1.094  1.00  0.00     0.120 A 
HETATM    6  N   UNL     1      42.862 -15.950   2.132  1.00  0.00    -0.272 N 
HETATM    7  H   UNL     1      42.987 -15.000   2.468  1.00  0.00     0.189 HD
HETATM    8  N   UNL     1      43.503 -16.950   2.756  1.00  0.00    -0.174 NA
HETATM    9  C   UNL     1      43.141 -18.057   2.089  1.00  0.00     0.089 A 
HETATM   10  C   UNL     1      42.255 -17.719   1.029  1.00  0.00     0.071 A 
BRANCH   9  11
HETATM   11  C   UNL     1      43.620 -19.391   2.475  1.00  0.00    -0.005 A 
HETATM   12  C   UNL     1      44.324 -19.576   3.677  1.00  0.00     0.016 A 
HETATM   13  C   UNL     1      44.765 -20.844   4.067  1.00  0.00     0.037 A 
HETATM   14  C   UNL     1      44.507 -21.938   3.249  1.00  0.00     0.065 A 
HETATM   15  C   UNL     1      43.820 -21.782   2.054  1.00  0.00     0.037 A 
HETATM   16  C   UNL     1      43.378 -20.513   1.666  1.00  0.00     0.016 A 
BRANCH  14  17
HETATM   17  O   UNL     1      44.911 -23.194   3.589  1.00  0.00    -0.361 OA
HETATM   18  H   UNL     1      44.514 -23.824   2.967  1.00  0.00     0.217 HD
ENDBRANCH  14  17
ENDBRANCH   9  11
ENDBRANCH   2   5
BRANCH   1  19
HETATM   19  C   UNL     1      41.051 -14.350  -1.936  1.00  0.00     0.030 C 
HETATM   20  C   UNL     1      40.032 -15.260  -2.652  1.00  0.00     0.038 C 
HETATM   21  C   UNL     1      40.240 -13.239  -1.234  1.00  0.00     0.038 C 
BRANCH  19  22
HETATM   22  C   UNL     1      42.017 -13.740  -2.999  1.00  0.00     0.069 C 
BRANCH  22  23
HETATM   23  C   UNL     1      42.399 -12.288  -2.787  1.00  0.00    -0.056 A 
HETATM   24  C   UNL     1      43.023 -11.888  -1.593  1.00  0.00     0.010 A 
HETATM   25  C   UNL     1      43.359 -10.550  -1.382  1.00  0.00     0.043 A 
HETATM   26  C   UNL     1      43.081  -9.612  -2.366  1.00  0.00     0.116 A 
HETATM   27  F   UNL     1      43.403  -8.327  -2.164  1.00  0.00    -0.206 F 
HETATM   28  C   UNL     1      42.478  -9.987  -3.561  1.00  0.00     0.043 A 
HETATM   29  C   UNL     1      42.140 -11.324  -3.774  1.00  0.00     0.010 A 
ENDBRANCH  22  23
ENDBRANCH  19  22
ENDBRANCH   1  19
TORSDOF 6
ENDMDL
MODEL 7
REMARK VINA RESULT:      -7.8      3.070      3.661
REMARK  6 active torsions:
REMARK  status: ('A' for Active; 'I' for Inactive)
REMARK    1  A    between atoms: C_2  and  N_3 
REMARK    2  A    between atoms: C_2  and  C_19 
REMARK       I    between atoms: N_3  and  C_4 
REMARK    3  A    between atoms: C_4  and  C_5 
REMARK    4  A    between atoms: C_9  and  C_10 
REMARK    5  A    between atoms: C_13  and  O_14 
REMARK    6  A    between atoms: C_19  and  C_20 
ROOT
HETATM    1  N   UNL     1      42.443 -16.204   0.444  1.00  0.00    -0.347 N 
HETATM    2  C   UNL     1      41.193 -15.628   0.420  1.00  0.00     0.270 C 
HETATM    3  O   UNL     1      40.391 -15.706   1.343  1.00  0.00    -0.266 OA
HETATM    4  H   UNL     1      43.088 -15.893  -0.268  1.00  0.00     0.163 HD
ENDROOT
BRANCH   2   5
HETATM    5  C   UNL     1      40.908 -14.866  -0.767  1.00  0.00     0.120 A 
HETATM    6  N   UNL     1      39.833 -15.143  -1.563  1.00  0.00    -0.272 N 
HETATM    7  H   UNL     1      39.155 -15.888  -1.432  1.00  0.00     0.189 HD
HETATM    8  N   UNL     1      39.684 -14.303  -2.600  1.00  0.00    -0.174 NA
HETATM    9  C   UNL     1      40.717 -13.451  -2.501  1.00  0.00     0.089 A 
HETATM   10  C   UNL     1      41.515 -13.784  -1.371  1.00  0.00     0.071 A 
BRANCH   9  11
HETATM   11  C   UNL     1      40.910 -12.349  -3.451  1.00  0.00    -0.005 A 
HETATM   12  C   UNL     1      42.202 -11.973  -3.855  1.00  0.00     0.016 A 
HETATM   13  C   UNL     1      42.398 -10.939  -4.776  1.00  0.00     0.037 A 
HETATM   14  C   UNL     1      41.297 -10.272  -5.298  1.00  0.00     0.065 A 
HETATM   15  C   UNL     1      40.010 -10.619  -4.911  1.00  0.00     0.037 A 
HETATM   16  C   UNL     1      39.816 -11.653  -3.991  1.00  0.00     0.016 A 
BRANCH  14  17
HETATM   17  O   UNL     1      41.437  -9.263  -6.203  1.00  0.00    -0.361 OA
HETATM   18  H   UNL     1      42.008  -9.574  -6.924  1.00  0.00     0.217 HD
ENDBRANCH  14  17
ENDBRANCH   9  11
ENDBRANCH   2   5
BRANCH   1  19
HETATM   19  C   UNL     1      43.061 -16.839   1.621  1.00  0.00     0.030 C 
HETATM   20  C   UNL     1      44.550 -17.149   1.361  1.00  0.00     0.038 C 
HETATM   21  C   UNL     1      43.014 -15.816   2.776  1.00  0.00     0.038 C 
BRANCH  19  22
HETATM   22  C   UNL     1      42.334 -18.160   2.023  1.00  0.00     0.069 C 
BRANCH  22  23
HETATM   23  C   UNL     1      43.177 -19.174   2.773  1.00  0.00    -0.056 A 
HETATM   24  C   UNL     1      43.495 -18.966   4.126  1.00  0.00     0.010 A 
HETATM   25  C   UNL     1      44.287 -19.884   4.817  1.00  0.00     0.043 A 
HETATM   26  C   UNL     1      44.754 -21.015   4.162  1.00  0.00     0.116 A 
HETATM   27  F   UNL     1      45.514 -21.896   4.825  1.00  0.00    -0.206 F 
HETATM   28  C   UNL     1      44.439 -21.249   2.828  1.00  0.00     0.043 A 
HETATM   29  C   UNL     1      43.648 -20.331   2.135  1.00  0.00     0.010 A 
ENDBRANCH  22  23
ENDBRANCH  19  22
ENDBRANCH   1  19
TORSDOF 6
ENDMDL
MODEL 8
REMARK VINA RESULT:      -7.7      2.921      3.321
REMARK  6 active torsions:
REMARK  status: ('A' for Active; 'I' for Inactive)
REMARK    1  A    between atoms: C_2  and  N_3 
REMARK    2  A    between atoms: C_2  and  C_19 
REMARK       I    between atoms: N_3  and  C_4 
REMARK    3  A    between atoms: C_4  and  C_5 
REMARK    4  A    between atoms: C_9  and  C_10 
REMARK    5  A    between atoms: C_13  and  O_14 
REMARK    6  A    between atoms: C_19  and  C_20 
ROOT
HETATM    1  N   UNL     1      41.777 -15.551   2.921  1.00  0.00    -0.347 N 
HETATM    2  C   UNL     1      40.930 -15.962   1.918  1.00  0.00     0.270 C 
HETATM    3  O   UNL     1      40.028 -16.775   2.081  1.00  0.00    -0.266 OA
HETATM    4  H   UNL     1      42.330 -14.729   2.725  1.00  0.00     0.163 HD
ENDROOT
BRANCH   2   5
HETATM    5  C   UNL     1      41.147 -15.317   0.650  1.00  0.00     0.120 A 
HETATM    6  N   UNL     1      40.873 -15.940  -0.535  1.00  0.00    -0.272 N 
HETATM    7  H   UNL     1      40.523 -16.886  -0.657  1.00  0.00     0.189 HD
HETATM    8  N   UNL     1      41.082 -15.179  -1.620  1.00  0.00    -0.174 NA
HETATM    9  C   UNL     1      41.537 -14.012  -1.136  1.00  0.00     0.089 A 
HETATM   10  C   UNL     1      41.605 -14.067   0.284  1.00  0.00     0.071 A 
BRANCH   9  11
HETATM   11  C   UNL     1      41.872 -12.883  -2.013  1.00  0.00    -0.005 A 
HETATM   12  C   UNL     1      41.546 -12.919  -3.379  1.00  0.00     0.016 A 
HETATM   13  C   UNL     1      41.840 -11.840  -4.220  1.00  0.00     0.037 A 
HETATM   14  C   UNL     1      42.468 -10.718  -3.695  1.00  0.00     0.065 A 
HETATM   15  C   UNL     1      42.807 -10.659  -2.351  1.00  0.00     0.037 A 
HETATM   16  C   UNL     1      42.511 -11.737  -1.512  1.00  0.00     0.016 A 
BRANCH  14  17
HETATM   17  O   UNL     1      42.769  -9.640  -4.473  1.00  0.00    -0.361 OA
HETATM   18  H   UNL     1      43.055  -9.960  -5.345  1.00  0.00     0.217 HD
ENDBRANCH  14  17
ENDBRANCH   9  11
ENDBRANCH   2   5
BRANCH   1  19
HETATM   19  C   UNL     1      41.625 -15.883   4.348  1.00  0.00     0.030 C 
HETATM   20  C   UNL     1      42.899 -15.515   5.138  1.00  0.00     0.038 C 
HETATM   21  C   UNL     1      40.485 -15.006   4.908  1.00  0.00     0.038 C 
BRANCH  19  22
HETATM   22  C   UNL     1      41.316 -17.397   4.567  1.00  0.00     0.069 C 
BRANCH  22  23
HETATM   23  C   UNL     1      42.512 -18.327   4.523  1.00  0.00    -0.056 A 
HETATM   24  C   UNL     1      43.083 -18.802   5.716  1.00  0.00     0.010 A 
HETATM   25  C   UNL     1      44.196 -19.642   5.685  1.00  0.00     0.043 A 
HETATM   26  C   UNL     1      44.736 -20.017   4.462  1.00  0.00     0.116 A 
HETATM   27  F   UNL     1      45.805 -20.824   4.431  1.00  0.00    -0.206 F 
HETATM   28  C   UNL     1      44.180 -19.572   3.269  1.00  0.00     0.043 A 
HETATM   29  C   UNL     1      43.066 -18.731   3.299  1.00  0.00     0.010 A 
ENDBRANCH  22  23
ENDBRANCH  19  22
ENDBRANCH   1  19
TORSDOF 6
ENDMDL
MODEL 9
REMARK VINA RESULT:      -7.6      5.852      9.088
REMARK  6 active torsions:
REMARK  status: ('A' for Active; 'I' for Inactive)
REMARK    1  A    between atoms: C_2  and  N_3 
REMARK    2  A    between atoms: C_2  and  C_19 
REMARK       I    between atoms: N_3  and  C_4 
REMARK    3  A    between atoms: C_4  and  C_5 
REMARK    4  A    between atoms: C_9  and  C_10 
REMARK    5  A    between atoms: C_13  and  O_14 
REMARK    6  A    between atoms: C_19  and  C_20 
ROOT
HETATM    1  N   UNL     1      40.978 -12.669   6.582  1.00  0.00    -0.347 N 
HETATM    2  C   UNL     1      41.793 -12.931   5.505  1.00  0.00     0.270 C 
HETATM    3  O   UNL     1      42.065 -12.104   4.642  1.00  0.00    -0.266 OA
HETATM    4  H   UNL     1      41.002 -13.346   7.331  1.00  0.00     0.163 HD
ENDROOT
BRANCH   2   5
HETATM    5  C   UNL     1      42.358 -14.254   5.490  1.00  0.00     0.120 A 
HETATM    6  N   UNL     1      42.722 -14.897   6.639  1.00  0.00    -0.272 N 
HETATM    7  H   UNL     1      42.659 -14.534   7.586  1.00  0.00     0.189 HD
HETATM    8  N   UNL     1      43.182 -16.144   6.452  1.00  0.00    -0.174 NA
HETATM    9  C   UNL     1      43.146 -16.324   5.122  1.00  0.00     0.089 A 
HETATM   10  C   UNL     1      42.649 -15.153   4.485  1.00  0.00     0.071 A 
BRANCH   9  11
HETATM   11  C   UNL     1      43.558 -17.587   4.496  1.00  0.00    -0.005 A 
HETATM   12  C   UNL     1      43.221 -17.866   3.161  1.00  0.00     0.016 A 
HETATM   13  C   UNL     1      43.627 -19.055   2.547  1.00  0.00     0.037 A 
HETATM   14  C   UNL     1      44.372 -19.977   3.272  1.00  0.00     0.065 A 
HETATM   15  C   UNL     1      44.714 -19.730   4.594  1.00  0.00     0.037 A 
HETATM   16  C   UNL     1      44.308 -18.540   5.205  1.00  0.00     0.016 A 
BRANCH  14  17
HETATM   17  O   UNL     1      44.796 -21.147   2.715  1.00  0.00    -0.361 OA
HETATM   18  H   UNL     1      45.743 -21.066   2.514  1.00  0.00     0.217 HD
ENDBRANCH  14  17
ENDBRANCH   9  11
ENDBRANCH   2   5
BRANCH   1  19
HETATM   19  C   UNL     1      40.461 -11.339   6.950  1.00  0.00     0.030 C 
HETATM   20  C   UNL     1      39.536 -10.784   5.847  1.00  0.00     0.038 C 
HETATM   21  C   UNL     1      39.591 -11.515   8.214  1.00  0.00     0.038 C 
BRANCH  19  22
HETATM   22  C   UNL     1      41.609 -10.315   7.209  1.00  0.00     0.069 C 
BRANCH  22  23
HETATM   23  C   UNL     1      42.227 -10.353   8.593  1.00  0.00    -0.056 A 
HETATM   24  C   UNL     1      41.742  -9.509   9.607  1.00  0.00     0.010 A 
HETATM   25  C   UNL     1      42.319  -9.523  10.877  1.00  0.00     0.043 A 
HETATM   26  C   UNL     1      43.374 -10.386  11.140  1.00  0.00     0.116 A 
HETATM   27  F   UNL     1      43.928 -10.399  12.359  1.00  0.00    -0.206 F 
HETATM   28  C   UNL     1      43.860 -11.240  10.157  1.00  0.00     0.043 A 
HETATM   29  C   UNL     1      43.285 -11.226   8.886  1.00  0.00     0.010 A 
ENDBRANCH  22  23
ENDBRANCH  19  22
ENDBRANCH   1  19
TORSDOF 6
ENDMDL
MODEL 10
REMARK VINA RESULT:      -7.6      4.141      7.199
REMARK  6 active torsions:
REMARK  status: ('A' for Active; 'I' for Inactive)
REMARK    1  A    between atoms: C_2  and  N_3 
REMARK    2  A    between atoms: C_2  and  C_19 
REMARK       I    between atoms: N_3  and  C_4 
REMARK    3  A    between atoms: C_4  and  C_5 
REMARK    4  A    between atoms: C_9  and  C_10 
REMARK    5  A    between atoms: C_13  and  O_14 
REMARK    6  A    between atoms: C_19  and  C_20 
ROOT
HETATM    1  N   UNL     1      42.078 -15.604   4.389  1.00  0.00    -0.347 N 
HETATM    2  C   UNL     1      42.435 -14.442   3.742  1.00  0.00     0.270 C 
HETATM    3  O   UNL     1      42.971 -14.415   2.641  1.00  0.00    -0.266 OA
HETATM    4  H   UNL     1      41.455 -15.499   5.176  1.00  0.00     0.163 HD
ENDROOT
BRANCH   2   5
HETATM    5  C   UNL     1      42.077 -13.235   4.441  1.00  0.00     0.120 A 
HETATM    6  N   UNL     1      41.865 -12.056   3.784  1.00  0.00    -0.272 N 
HETATM    7  H   UNL     1      41.947 -11.894   2.784  1.00  0.00     0.189 HD
HETATM    8  N   UNL     1      41.488 -11.043   4.579  1.00  0.00    -0.174 NA
HETATM    9  C   UNL     1      41.474 -11.565   5.815  1.00  0.00     0.089 A 
HETATM   10  C   UNL     1      41.854 -12.935   5.769  1.00  0.00     0.071 A 
BRANCH   9  11
HETATM   11  C   UNL     1      41.090 -10.773   6.991  1.00  0.00    -0.005 A 
HETATM   12  C   UNL     1      39.811 -10.199   7.078  1.00  0.00     0.016 A 
HETATM   13  C   UNL     1      39.426  -9.462   8.202  1.00  0.00     0.037 A 
HETATM   14  C   UNL     1      40.325  -9.292   9.248  1.00  0.00     0.065 A 
HETATM   15  C   UNL     1      41.597  -9.844   9.185  1.00  0.00     0.037 A 
HETATM   16  C   UNL     1      41.980 -10.582   8.061  1.00  0.00     0.016 A 
BRANCH  14  17
HETATM   17  O   UNL     1      39.993  -8.588  10.366  1.00  0.00    -0.361 OA
HETATM   18  H   UNL     1      40.530  -7.779  10.391  1.00  0.00     0.217 HD
ENDBRANCH  14  17
ENDBRANCH   9  11
ENDBRANCH   2   5
BRANCH   1  19
HETATM   19  C   UNL     1      42.125 -16.952   3.796  1.00  0.00     0.030 C 
HETATM   20  C   UNL     1      41.680 -18.018   4.818  1.00  0.00     0.038 C 
HETATM   21  C   UNL     1      41.100 -16.985   2.642  1.00  0.00     0.038 C 
BRANCH  19  22
HETATM   22  C   UNL     1      43.552 -17.315   3.278  1.00  0.00     0.069 C 
BRANCH  22  23
HETATM   23  C   UNL     1      43.847 -18.796   3.143  1.00  0.00    -0.056 A 
HETATM   24  C   UNL     1      44.540 -19.474   4.160  1.00  0.00     0.010 A 
HETATM   25  C   UNL     1      44.833 -20.833   4.034  1.00  0.00     0.043 A 
HETATM   26  C   UNL     1      44.426 -21.518   2.898  1.00  0.00     0.116 A 
HETATM   27  F   UNL     1      44.708 -22.821   2.776  1.00  0.00    -0.206 F 
HETATM   28  C   UNL     1      43.727 -20.871   1.886  1.00  0.00     0.043 A 
HETATM   29  C   UNL     1      43.434 -19.512   2.009  1.00  0.00     0.010 A 
ENDBRANCH  22  23
ENDBRANCH  19  22
ENDBRANCH   1  19
TORSDOF 6
ENDMDL
