MODEL 1
REMARK VINA RESULT:      -8.5      0.000      0.000
REMARK  4 active torsions:
REMARK  status: ('A' for Active; 'I' for Inactive)
REMARK    1  A    between atoms: C_8  and  N_9 
REMARK       I    between atoms: N_9  and  C_10 
REMARK       I    between atoms: C_10  and  N_11 
REMARK    2  A    between atoms: N_11  and  C_12 
REMARK    3  A    between atoms: C_15  and  O_16 
REMARK    4  A    between atoms: O_16  and  C_17 
ROOT
HETATM    1  C   UNL     1      41.774 -16.390   6.186  1.00  0.00     0.054 A 
HETATM    2  C   UNL     1      41.500 -17.559   5.481  1.00  0.00     0.149 A 
HETATM    3  N   UNL     1      42.425 -18.508   5.184  1.00  0.00    -0.235 NA
HETATM    4  C   UNL     1      43.686 -18.290   5.614  1.00  0.00     0.169 A 
HETATM    5  C   UNL     1      44.060 -17.166   6.333  1.00  0.00     0.060 A 
HETATM    6  C   UNL     1      43.089 -16.206   6.622  1.00  0.00     0.035 A 
ENDROOT
BRANCH   1   7
HETATM    7  N   UNL     1      40.837 -15.377   6.488  1.00  0.00    -0.307 N 
HETATM    8  C   UNL     1      40.734 -14.136   5.875  1.00  0.00     0.325 C 
HETATM    9  N   UNL     1      39.714 -13.397   6.445  1.00  0.00    -0.305 N 
HETATM   10  O   UNL     1      41.451 -13.760   4.961  1.00  0.00    -0.247 OA
HETATM   11  H   UNL     1      39.010 -13.903   6.959  1.00  0.00     0.171 HD
HETATM   12  H   UNL     1      40.258 -15.531   7.298  1.00  0.00     0.170 HD
BRANCH   9  13
HETATM   13  C   UNL     1      39.433 -12.058   6.214  1.00  0.00     0.086 A 
HETATM   14  C   UNL     1      39.565 -11.104   7.207  1.00  0.00     0.052 A 
HETATM   15  C   UNL     1      39.971 -11.186   8.629  1.00  0.00     0.072 C 
HETATM   16  N   UNL     1      39.215  -9.916   6.633  1.00  0.00    -0.280 N 
HETATM   17  H   UNL     1      39.182  -8.997   7.062  1.00  0.00     0.189 HD
HETATM   18  N   UNL     1      38.895 -10.014   5.342  1.00  0.00    -0.177 NA
HETATM   19  C   UNL     1      39.028 -11.320   5.062  1.00  0.00     0.079 A 
HETATM   20  C   UNL     1      38.782 -11.760   3.665  1.00  0.00     0.075 C 
ENDBRANCH   9  13
ENDBRANCH   1   7
BRANCH   4  21
HETATM   21  O   UNL     1      44.701 -19.200   5.333  1.00  0.00    -0.292 OA
BRANCH  21  22
HETATM   22  C   UNL     1      44.538 -19.978   4.212  1.00  0.00     0.078 A 
HETATM   23  C   UNL     1      44.727 -21.356   4.327  1.00  0.00     0.040 A 
HETATM   24  C   UNL     1      44.516 -22.174   3.218  1.00  0.00     0.045 A 
HETATM   25  C   UNL     1      44.105 -21.607   2.015  1.00  0.00     0.116 A 
HETATM   26  F   UNL     1      43.901 -22.395   0.951  1.00  0.00    -0.206 F 
HETATM   27  C   UNL     1      43.894 -20.235   1.901  1.00  0.00     0.045 A 
HETATM   28  C   UNL     1      44.102 -19.414   3.010  1.00  0.00     0.040 A 
ENDBRANCH  21  22
ENDBRANCH   4  21
TORSDOF 4
ENDMDL
MODEL 2
REMARK VINA RESULT:      -8.4      0.198      1.901
REMARK  4 active torsions:
REMARK  status: ('A' for Active; 'I' for Inactive)
REMARK    1  A    between atoms: C_8  and  N_9 
REMARK       I    between atoms: N_9  and  C_10 
REMARK       I    between atoms: C_10  and  N_11 
REMARK    2  A    between atoms: N_11  and  C_12 
REMARK    3  A    between atoms: C_15  and  O_16 
REMARK    4  A    between atoms: O_16  and  C_17 
ROOT
HETATM    1  C   UNL     1      41.689 -16.426   6.116  1.00  0.00     0.054 A 
HETATM    2  C   UNL     1      41.450 -17.545   5.321  1.00  0.00     0.149 A 
HETATM    3  N   UNL     1      42.384 -18.485   5.025  1.00  0.00    -0.235 NA
HETATM    4  C   UNL     1      43.616 -18.311   5.547  1.00  0.00     0.169 A 
HETATM    5  C   UNL     1      43.954 -17.240   6.358  1.00  0.00     0.060 A 
HETATM    6  C   UNL     1      42.975 -16.288   6.645  1.00  0.00     0.035 A 
ENDROOT
BRANCH   1   7
HETATM    7  N   UNL     1      40.745 -15.422   6.420  1.00  0.00    -0.307 N 
HETATM    8  C   UNL     1      40.775 -14.100   5.998  1.00  0.00     0.325 C 
HETATM    9  N   UNL     1      39.698 -13.401   6.510  1.00  0.00    -0.305 N 
HETATM   10  O   UNL     1      41.641 -13.630   5.275  1.00  0.00    -0.247 OA
HETATM   11  H   UNL     1      38.907 -13.940   6.823  1.00  0.00     0.171 HD
HETATM   12  H   UNL     1      40.038 -15.663   7.097  1.00  0.00     0.170 HD
BRANCH   9  13
HETATM   13  C   UNL     1      39.496 -12.030   6.447  1.00  0.00     0.086 A 
HETATM   14  C   UNL     1      39.169 -11.397   5.261  1.00  0.00     0.052 A 
HETATM   15  C   UNL     1      38.973 -11.892   3.879  1.00  0.00     0.072 C 
HETATM   16  N   UNL     1      39.042 -10.072   5.568  1.00  0.00    -0.280 N 
HETATM   17  H   UNL     1      38.818  -9.302   4.946  1.00  0.00     0.189 HD
HETATM   18  N   UNL     1      39.230  -9.797   6.860  1.00  0.00    -0.177 NA
HETATM   19  C   UNL     1      39.504 -10.986   7.419  1.00  0.00     0.079 A 
HETATM   20  C   UNL     1      39.724 -11.029   8.887  1.00  0.00     0.075 C 
ENDBRANCH   9  13
ENDBRANCH   1   7
BRANCH   4  21
HETATM   21  O   UNL     1      44.639 -19.216   5.274  1.00  0.00    -0.292 OA
BRANCH  21  22
HETATM   22  C   UNL     1      44.450 -20.053   4.202  1.00  0.00     0.078 A 
HETATM   23  C   UNL     1      44.115 -19.489   2.970  1.00  0.00     0.040 A 
HETATM   24  C   UNL     1      43.970 -20.312   1.853  1.00  0.00     0.045 A 
HETATM   25  C   UNL     1      44.177 -21.682   1.979  1.00  0.00     0.116 A 
HETATM   26  F   UNL     1      44.039 -22.471   0.905  1.00  0.00    -0.206 F 
HETATM   27  C   UNL     1      44.534 -22.247   3.201  1.00  0.00     0.045 A 
HETATM   28  C   UNL     1      44.681 -21.427   4.320  1.00  0.00     0.040 A 
ENDBRANCH  21  22
ENDBRANCH   4  21
TORSDOF 4
ENDMDL
MODEL 3
REMARK VINA RESULT:      -8.4      5.363      6.531
REMARK  4 active torsions:
REMARK  status: ('A' for Active; 'I' for Inactive)
REMARK    1  A    between atoms: C_8  and  N_9 
REMARK       I    between atoms: N_9  and  C_10 
REMARK       I    between atoms: C_10  and  N_11 
REMARK    2  A    between atoms: N_11  and  C_12 
REMARK    3  A    between atoms: C_15  and  O_16 
REMARK    4  A    between atoms: O_16  and  C_17 
ROOT
HETATM    1  C   UNL     1      41.798 -16.752   0.933  1.00  0.00     0.054 A 
HETATM    2  C   UNL     1      41.082 -17.010   2.099  1.00  0.00     0.149 A 
HETATM    3  N   UNL     1      41.650 -17.342   3.287  1.00  0.00    -0.235 NA
HETATM    4  C   UNL     1      42.997 -17.418   3.322  1.00  0.00     0.169 A 
HETATM    5  C   UNL     1      43.801 -17.169   2.222  1.00  0.00     0.060 A 
HETATM    6  C   UNL     1      43.191 -16.831   1.013  1.00  0.00     0.035 A 
ENDROOT
BRANCH   1   7
HETATM    7  N   UNL     1      41.233 -16.428  -0.320  1.00  0.00    -0.307 N 
HETATM    8  C   UNL     1      41.123 -15.162  -0.877  1.00  0.00     0.325 C 
HETATM    9  N   UNL     1      40.495 -15.224  -2.106  1.00  0.00    -0.305 N 
HETATM   10  O   UNL     1      41.530 -14.140  -0.344  1.00  0.00    -0.247 OA
HETATM   11  H   UNL     1      40.485 -16.116  -2.574  1.00  0.00     0.171 HD
HETATM   12  H   UNL     1      40.768 -17.177  -0.808  1.00  0.00     0.170 HD
BRANCH   9  13
HETATM   13  C   UNL     1      40.059 -14.150  -2.868  1.00  0.00     0.086 A 
HETATM   14  C   UNL     1      38.743 -14.038  -3.283  1.00  0.00     0.052 A 
HETATM   15  C   UNL     1      37.554 -14.900  -3.094  1.00  0.00     0.072 C 
HETATM   16  N   UNL     1      38.674 -12.875  -3.996  1.00  0.00    -0.280 N 
HETATM   17  H   UNL     1      37.869 -12.471  -4.461  1.00  0.00     0.189 HD
HETATM   18  N   UNL     1      39.828 -12.208  -4.054  1.00  0.00    -0.177 NA
HETATM   19  C   UNL     1      40.691 -12.970  -3.363  1.00  0.00     0.079 A 
HETATM   20  C   UNL     1      42.081 -12.473  -3.201  1.00  0.00     0.075 C 
ENDBRANCH   9  13
ENDBRANCH   1   7
BRANCH   4  21
HETATM   21  O   UNL     1      43.659 -17.775   4.493  1.00  0.00    -0.292 OA
BRANCH  21  22
HETATM   22  C   UNL     1      44.042 -19.090   4.608  1.00  0.00     0.078 A 
HETATM   23  C   UNL     1      44.001 -19.686   5.869  1.00  0.00     0.040 A 
HETATM   24  C   UNL     1      44.334 -21.033   6.004  1.00  0.00     0.045 A 
HETATM   25  C   UNL     1      44.688 -21.769   4.877  1.00  0.00     0.116 A 
HETATM   26  F   UNL     1      45.006 -23.063   5.009  1.00  0.00    -0.206 F 
HETATM   27  C   UNL     1      44.710 -21.185   3.613  1.00  0.00     0.045 A 
HETATM   28  C   UNL     1      44.375 -19.837   3.474  1.00  0.00     0.040 A 
ENDBRANCH  21  22
ENDBRANCH   4  21
TORSDOF 4
ENDMDL
MODEL 4
REMARK VINA RESULT:      -8.3      5.034      6.123
REMARK  4 active torsions:
REMARK  status: ('A' for Active; 'I' for Inactive)
REMARK    1  A    between atoms: C_8  and  N_9 
REMARK       I    between atoms: N_9  and  C_10 
REMARK       I    between atoms: C_10  and  N_11 
REMARK    2  A    between atoms: N_11  and  C_12 
REMARK    3  A    between atoms: C_15  and  O_16 
REMARK    4  A    between atoms: O_16  and  C_17 
ROOT
HETATM    1  C   UNL     1      41.178 -16.101   1.501  1.00  0.00     0.054 A 
HETATM    2  C   UNL     1      42.546 -15.961   1.285  1.00  0.00     0.149 A 
HETATM    3  N   UNL     1      43.504 -16.515   2.072  1.00  0.00    -0.235 NA
HETATM    4  C   UNL     1      43.085 -17.249   3.124  1.00  0.00     0.169 A 
HETATM    5  C   UNL     1      41.748 -17.460   3.419  1.00  0.00     0.060 A 
HETATM    6  C   UNL     1      40.784 -16.877   2.595  1.00  0.00     0.035 A 
ENDROOT
BRANCH   1   7
HETATM    7  N   UNL     1      40.161 -15.517   0.714  1.00  0.00    -0.307 N 
HETATM    8  C   UNL     1      40.327 -14.848  -0.490  1.00  0.00     0.325 C 
HETATM    9  N   UNL     1      39.112 -14.392  -0.964  1.00  0.00    -0.305 N 
HETATM   10  O   UNL     1      41.404 -14.690  -1.045  1.00  0.00    -0.247 OA
HETATM   11  H   UNL     1      38.281 -14.833  -0.603  1.00  0.00     0.171 HD
HETATM   12  H   UNL     1      39.239 -15.493   1.121  1.00  0.00     0.170 HD
BRANCH   9  13
HETATM   13  C   UNL     1      38.910 -13.539  -2.040  1.00  0.00     0.086 A 
HETATM   14  C   UNL     1      38.168 -13.921  -3.143  1.00  0.00     0.052 A 
HETATM   15  C   UNL     1      37.467 -15.177  -3.495  1.00  0.00     0.072 C 
HETATM   16  N   UNL     1      38.175 -12.848  -3.988  1.00  0.00    -0.280 N 
HETATM   17  H   UNL     1      37.741 -12.765  -4.900  1.00  0.00     0.189 HD
HETATM   18  N   UNL     1      38.834 -11.791  -3.512  1.00  0.00    -0.177 NA
HETATM   19  C   UNL     1      39.289 -12.190  -2.314  1.00  0.00     0.079 A 
HETATM   20  C   UNL     1      40.042 -11.208  -1.493  1.00  0.00     0.075 C 
ENDBRANCH   9  13
ENDBRANCH   1   7
BRANCH   4  21
HETATM   21  O   UNL     1      44.001 -17.833   3.995  1.00  0.00    -0.292 OA
BRANCH  21  22
HETATM   22  C   UNL     1      44.249 -19.173   3.821  1.00  0.00     0.078 A 
HETATM   23  C   UNL     1      44.550 -19.944   4.945  1.00  0.00     0.040 A 
HETATM   24  C   UNL     1      44.753 -21.316   4.803  1.00  0.00     0.045 A 
HETATM   25  C   UNL     1      44.638 -21.901   3.545  1.00  0.00     0.116 A 
HETATM   26  F   UNL     1      44.832 -23.220   3.412  1.00  0.00    -0.206 F 
HETATM   27  C   UNL     1      44.316 -21.140   2.424  1.00  0.00     0.045 A 
HETATM   28  C   UNL     1      44.110 -19.767   2.563  1.00  0.00     0.040 A 
ENDBRANCH  21  22
ENDBRANCH   4  21
TORSDOF 4
ENDMDL
MODEL 5
REMARK VINA RESULT:      -8.3      5.020      5.943
REMARK  4 active torsions:
REMARK  status: ('A' for Active; 'I' for Inactive)
REMARK    1  A    between atoms: C_8  and  N_9 
REMARK       I    between atoms: N_9  and  C_10 
REMARK       I    between atoms: C_10  and  N_11 
REMARK    2  A    between atoms: N_11  and  C_12 
REMARK    3  A    between atoms: C_15  and  O_16 
REMARK    4  A    between atoms: O_16  and  C_17 
ROOT
HETATM    1  C   UNL     1      41.703 -15.853   2.995  1.00  0.00     0.054 A 
HETATM    2  C   UNL     1      41.118 -17.023   3.473  1.00  0.00     0.149 A 
HETATM    3  N   UNL     1      41.582 -17.731   4.535  1.00  0.00    -0.235 NA
HETATM    4  C   UNL     1      42.679 -17.252   5.159  1.00  0.00     0.169 A 
HETATM    5  C   UNL     1      43.328 -16.091   4.770  1.00  0.00     0.060 A 
HETATM    6  C   UNL     1      42.831 -15.385   3.675  1.00  0.00     0.035 A 
ENDROOT
BRANCH   1   7
HETATM    7  N   UNL     1      41.256 -15.111   1.880  1.00  0.00    -0.307 N 
HETATM    8  C   UNL     1      41.588 -15.331   0.551  1.00  0.00     0.325 C 
HETATM    9  N   UNL     1      40.982 -14.394  -0.263  1.00  0.00    -0.305 N 
HETATM   10  O   UNL     1      42.318 -16.233   0.166  1.00  0.00    -0.247 OA
HETATM   11  H   UNL     1      40.181 -13.909   0.109  1.00  0.00     0.171 HD
HETATM   12  H   UNL     1      40.730 -14.275   2.081  1.00  0.00     0.170 HD
BRANCH   9  13
HETATM   13  C   UNL     1      41.219 -14.194  -1.616  1.00  0.00     0.086 A 
HETATM   14  C   UNL     1      41.997 -13.144  -2.071  1.00  0.00     0.052 A 
HETATM   15  C   UNL     1      42.708 -12.047  -1.376  1.00  0.00     0.072 C 
HETATM   16  N   UNL     1      42.019 -13.258  -3.431  1.00  0.00    -0.280 N 
HETATM   17  H   UNL     1      42.483 -12.658  -4.104  1.00  0.00     0.189 HD
HETATM   18  N   UNL     1      41.345 -14.311  -3.896  1.00  0.00    -0.177 NA
HETATM   19  C   UNL     1      40.851 -14.904  -2.798  1.00  0.00     0.079 A 
HETATM   20  C   UNL     1      40.072 -16.156  -2.974  1.00  0.00     0.075 C 
ENDBRANCH   9  13
ENDBRANCH   1   7
BRANCH   4  21
HETATM   21  O   UNL     1      43.234 -17.928   6.241  1.00  0.00    -0.292 OA
BRANCH  21  22
HETATM   22  C   UNL     1      43.793 -19.156   5.980  1.00  0.00     0.078 A 
HETATM   23  C   UNL     1      43.506 -20.213   6.845  1.00  0.00     0.040 A 
HETATM   24  C   UNL     1      44.016 -21.482   6.573  1.00  0.00     0.045 A 
HETATM   25  C   UNL     1      44.793 -21.680   5.434  1.00  0.00     0.116 A 
HETATM   26  F   UNL     1      45.281 -22.900   5.174  1.00  0.00    -0.206 F 
HETATM   27  C   UNL     1      45.064 -20.633   4.557  1.00  0.00     0.045 A 
HETATM   28  C   UNL     1      44.552 -19.362   4.825  1.00  0.00     0.040 A 
ENDBRANCH  21  22
ENDBRANCH   4  21
TORSDOF 4
ENDMDL
MODEL 6
REMARK VINA RESULT:      -8.0      3.630      4.524
REMARK  4 active torsions:
REMARK  status: ('A' for Active; 'I' for Inactive)
REMARK    1  A    between atoms: C_8  and  N_9 
REMARK       I    between atoms: N_9  and  C_10 
REMARK       I    between atoms: C_10  and  N_11 
REMARK    2  A    between atoms: N_11  and  C_12 
REMARK    3  A    between atoms: C_15  and  O_16 
REMARK    4  A    between atoms: O_16  and  C_17 
ROOT
HETATM    1  C   UNL     1      42.284 -14.056   5.448  1.00  0.00     0.054 A 
HETATM    2  C   UNL     1      43.072 -14.217   4.311  1.00  0.00     0.149 A 
HETATM    3  N   UNL     1      42.943 -15.243   3.431  1.00  0.00    -0.235 NA
HETATM    4  C   UNL     1      41.980 -16.154   3.688  1.00  0.00     0.169 A 
HETATM    5  C   UNL     1      41.136 -16.078   4.784  1.00  0.00     0.060 A 
HETATM    6  C   UNL     1      41.292 -15.014   5.673  1.00  0.00     0.035 A 
ENDROOT
BRANCH   1   7
HETATM    7  N   UNL     1      42.412 -13.013   6.391  1.00  0.00    -0.307 N 
HETATM    8  C   UNL     1      43.409 -12.878   7.347  1.00  0.00     0.325 C 
HETATM    9  N   UNL     1      43.200 -11.745   8.111  1.00  0.00    -0.305 N 
HETATM   10  O   UNL     1      44.337 -13.660   7.486  1.00  0.00    -0.247 OA
HETATM   11  H   UNL     1      42.605 -11.031   7.722  1.00  0.00     0.171 HD
HETATM   12  H   UNL     1      41.646 -12.360   6.443  1.00  0.00     0.170 HD
BRANCH   9  13
HETATM   13  C   UNL     1      43.885 -11.385   9.262  1.00  0.00     0.086 A 
HETATM   14  C   UNL     1      43.224 -11.099  10.443  1.00  0.00     0.052 A 
HETATM   15  C   UNL     1      41.789 -11.072  10.809  1.00  0.00     0.072 C 
HETATM   16  N   UNL     1      44.197 -10.793  11.351  1.00  0.00    -0.280 N 
HETATM   17  H   UNL     1      44.087 -10.523  12.323  1.00  0.00     0.189 HD
HETATM   18  N   UNL     1      45.436 -10.885  10.866  1.00  0.00    -0.177 NA
HETATM   19  C   UNL     1      45.269 -11.253   9.586  1.00  0.00     0.079 A 
HETATM   20  C   UNL     1      46.484 -11.487   8.766  1.00  0.00     0.075 C 
ENDBRANCH   9  13
ENDBRANCH   1   7
BRANCH   4  21
HETATM   21  O   UNL     1      41.795 -17.249   2.850  1.00  0.00    -0.292 OA
BRANCH  21  22
HETATM   22  C   UNL     1      42.628 -18.324   3.048  1.00  0.00     0.078 A 
HETATM   23  C   UNL     1      42.893 -19.166   1.967  1.00  0.00     0.040 A 
HETATM   24  C   UNL     1      43.777 -20.232   2.126  1.00  0.00     0.045 A 
HETATM   25  C   UNL     1      44.395 -20.433   3.357  1.00  0.00     0.116 A 
HETATM   26  F   UNL     1      45.245 -21.457   3.508  1.00  0.00    -0.206 F 
HETATM   27  C   UNL     1      44.151 -19.583   4.432  1.00  0.00     0.045 A 
HETATM   28  C   UNL     1      43.268 -18.513   4.276  1.00  0.00     0.040 A 
ENDBRANCH  21  22
ENDBRANCH   4  21
TORSDOF 4
ENDMDL
MODEL 7
REMARK VINA RESULT:      -7.7      1.979      2.748
REMARK  4 active torsions:
REMARK  status: ('A' for Active; 'I' for Inactive)
REMARK    1  A    between atoms: C_8  and  N_9 
REMARK       I    between atoms: N_9  and  C_10 
REMARK       I    between atoms: C_10  and  N_11 
REMARK    2  A    between atoms: N_11  and  C_12 
REMARK    3  A    between atoms: C_15  and  O_16 
REMARK    4  A    between atoms: O_16  and  C_17 
ROOT
HETATM    1  C   UNL     1      41.885 -15.525   4.872  1.00  0.00     0.054 A 
HETATM    2  C   UNL     1      41.081 -16.549   4.377  1.00  0.00     0.149 A 
HETATM    3  N   UNL     1      41.487 -17.462   3.457  1.00  0.00    -0.235 NA
HETATM    4  C   UNL     1      42.756 -17.360   3.010  1.00  0.00     0.169 A 
HETATM    5  C   UNL     1      43.640 -16.386   3.448  1.00  0.00     0.060 A 
HETATM    6  C   UNL     1      43.196 -15.459   4.392  1.00  0.00     0.035 A 
ENDROOT
BRANCH   1   7
HETATM    7  N   UNL     1      41.482 -14.549   5.809  1.00  0.00    -0.307 N 
HETATM    8  C   UNL     1      41.603 -13.173   5.677  1.00  0.00     0.325 C 
HETATM    9  N   UNL     1      41.122 -12.532   6.802  1.00  0.00    -0.305 N 
HETATM   10  O   UNL     1      42.073 -12.617   4.695  1.00  0.00    -0.247 OA
HETATM   11  H   UNL     1      40.493 -13.051   7.394  1.00  0.00     0.171 HD
HETATM   12  H   UNL     1      41.174 -14.891   6.706  1.00  0.00     0.170 HD
BRANCH   9  13
HETATM   13  C   UNL     1      41.239 -11.182   7.100  1.00  0.00     0.086 A 
HETATM   14  C   UNL     1      40.439 -10.231   6.492  1.00  0.00     0.052 A 
HETATM   15  C   UNL     1      39.370 -10.322   5.470  1.00  0.00     0.072 C 
HETATM   16  N   UNL     1      40.819  -9.030   7.019  1.00  0.00    -0.280 N 
HETATM   17  H   UNL     1      40.459  -8.107   6.803  1.00  0.00     0.189 HD
HETATM   18  N   UNL     1      41.779  -9.125   7.941  1.00  0.00    -0.177 NA
HETATM   19  C   UNL     1      42.048 -10.438   8.010  1.00  0.00     0.079 A 
HETATM   20  C   UNL     1      43.063 -10.889   8.996  1.00  0.00     0.075 C 
ENDBRANCH   9  13
ENDBRANCH   1   7
BRANCH   4  21
HETATM   21  O   UNL     1      43.246 -18.240   2.050  1.00  0.00    -0.292 OA
BRANCH  21  22
HETATM   22  C   UNL     1      43.715 -19.449   2.505  1.00  0.00     0.078 A 
HETATM   23  C   UNL     1      44.293 -19.501   3.775  1.00  0.00     0.040 A 
HETATM   24  C   UNL     1      44.728 -20.725   4.282  1.00  0.00     0.045 A 
HETATM   25  C   UNL     1      44.566 -21.880   3.522  1.00  0.00     0.116 A 
HETATM   26  F   UNL     1      44.983 -23.055   4.013  1.00  0.00    -0.206 F 
HETATM   27  C   UNL     1      43.970 -21.837   2.265  1.00  0.00     0.045 A 
HETATM   28  C   UNL     1      43.531 -20.614   1.755  1.00  0.00     0.040 A 
ENDBRANCH  21  22
ENDBRANCH   4  21
TORSDOF 4
ENDMDL
MODEL 8
REMARK VINA RESULT:      -7.5      5.637      9.101
REMARK  4 active torsions:
REMARK  status: ('A' for Active; 'I' for Inactive)
REMARK    1  A    between atoms: C_8  and  N_9 
REMARK       I    between atoms: N_9  and  C_10 
REMARK       I    between atoms: C_10  and  N_11 
REMARK    2  A    between atoms: N_11  and  C_12 
REMARK    3  A    between atoms: C_15  and  O_16 
REMARK    4  A    between atoms: O_16  and  C_17 
ROOT
HETATM    1  C   UNL     1      40.708 -15.836   1.200  1.00  0.00     0.054 A 
HETATM    2  C   UNL     1      41.408 -15.886  -0.003  1.00  0.00     0.149 A 
HETATM    3  N   UNL     1      41.171 -15.067  -1.060  1.00  0.00    -0.235 NA
HETATM    4  C   UNL     1      40.194 -14.148  -0.916  1.00  0.00     0.169 A 
HETATM    5  C   UNL     1      39.448 -14.007   0.243  1.00  0.00     0.060 A 
HETATM    6  C   UNL     1      39.711 -14.863   1.313  1.00  0.00     0.035 A 
ENDROOT
BRANCH   1   7
HETATM    7  N   UNL     1      40.918 -16.689   2.305  1.00  0.00    -0.307 N 
HETATM    8  C   UNL     1      42.106 -16.871   2.999  1.00  0.00     0.325 C 
HETATM    9  N   UNL     1      41.943 -17.800   4.008  1.00  0.00    -0.305 N 
HETATM   10  O   UNL     1      43.147 -16.285   2.741  1.00  0.00    -0.247 OA
HETATM   11  H   UNL     1      41.002 -17.980   4.321  1.00  0.00     0.171 HD
HETATM   12  H   UNL     1      40.157 -17.304   2.546  1.00  0.00     0.170 HD
BRANCH   9  13
HETATM   13  C   UNL     1      42.944 -18.361   4.787  1.00  0.00     0.086 A 
HETATM   14  C   UNL     1      43.050 -18.092   6.141  1.00  0.00     0.052 A 
HETATM   15  C   UNL     1      42.262 -17.238   7.059  1.00  0.00     0.072 C 
HETATM   16  N   UNL     1      44.128 -18.805   6.580  1.00  0.00    -0.280 N 
HETATM   17  H   UNL     1      44.514 -18.847   7.517  1.00  0.00     0.189 HD
HETATM   18  N   UNL     1      44.714 -19.538   5.631  1.00  0.00    -0.177 NA
HETATM   19  C   UNL     1      44.000 -19.284   4.524  1.00  0.00     0.079 A 
HETATM   20  C   UNL     1      44.377 -19.996   3.276  1.00  0.00     0.075 C 
ENDBRANCH   9  13
ENDBRANCH   1   7
BRANCH   4  21
HETATM   21  O   UNL     1      39.870 -13.284  -1.958  1.00  0.00    -0.292 OA
BRANCH  21  22
HETATM   22  C   UNL     1      38.763 -13.607  -2.704  1.00  0.00     0.078 A 
HETATM   23  C   UNL     1      37.823 -12.609  -2.964  1.00  0.00     0.040 A 
HETATM   24  C   UNL     1      36.717 -12.896  -3.764  1.00  0.00     0.045 A 
HETATM   25  C   UNL     1      36.574 -14.171  -4.304  1.00  0.00     0.116 A 
HETATM   26  F   UNL     1      35.511 -14.445  -5.072  1.00  0.00    -0.206 F 
HETATM   27  C   UNL     1      37.520 -15.165  -4.065  1.00  0.00     0.045 A 
HETATM   28  C   UNL     1      38.629 -14.880  -3.267  1.00  0.00     0.040 A 
ENDBRANCH  21  22
ENDBRANCH   4  21
TORSDOF 4
ENDMDL
MODEL 9
REMARK VINA RESULT:      -7.5      5.247      9.821
REMARK  4 active torsions:
REMARK  status: ('A' for Active; 'I' for Inactive)
REMARK    1  A    between atoms: C_8  and  N_9 
REMARK       I    between atoms: N_9  and  C_10 
REMARK       I    between atoms: C_10  and  N_11 
REMARK    2  A    between atoms: N_11  and  C_12 
REMARK    3  A    between atoms: C_15  and  O_16 
REMARK    4  A    between atoms: O_16  and  C_17 
ROOT
HETATM    1  C   UNL     1      42.557 -16.070   1.086  1.00  0.00     0.054 A 
HETATM    2  C   UNL     1      42.503 -14.857   1.767  1.00  0.00     0.149 A 
HETATM    3  N   UNL     1      41.676 -13.831   1.436  1.00  0.00    -0.235 NA
HETATM    4  C   UNL     1      40.857 -14.020   0.380  1.00  0.00     0.169 A 
HETATM    5  C   UNL     1      40.825 -15.193  -0.356  1.00  0.00     0.060 A 
HETATM    6  C   UNL     1      41.687 -16.230   0.004  1.00  0.00     0.035 A 
ENDROOT
BRANCH   1   7
HETATM    7  N   UNL     1      43.422 -17.143   1.393  1.00  0.00    -0.307 N 
HETATM    8  C   UNL     1      43.190 -18.158   2.310  1.00  0.00     0.325 C 
HETATM    9  N   UNL     1      44.268 -19.022   2.362  1.00  0.00    -0.305 N 
HETATM   10  O   UNL     1      42.170 -18.263   2.975  1.00  0.00    -0.247 OA
HETATM   11  H   UNL     1      44.898 -19.021   1.575  1.00  0.00     0.171 HD
HETATM   12  H   UNL     1      44.342 -17.107   0.983  1.00  0.00     0.170 HD
BRANCH   9  13
HETATM   13  C   UNL     1      44.467 -20.043   3.280  1.00  0.00     0.086 A 
HETATM   14  C   UNL     1      44.449 -21.374   2.902  1.00  0.00     0.052 A 
HETATM   15  C   UNL     1      44.229 -22.046   1.601  1.00  0.00     0.072 C 
HETATM   16  N   UNL     1      44.682 -22.088   4.043  1.00  0.00    -0.280 N 
HETATM   17  H   UNL     1      44.729 -23.096   4.154  1.00  0.00     0.189 HD
HETATM   18  N   UNL     1      44.878 -21.332   5.124  1.00  0.00    -0.177 NA
HETATM   19  C   UNL     1      44.757 -20.072   4.677  1.00  0.00     0.079 A 
HETATM   20  C   UNL     1      44.969 -18.967   5.646  1.00  0.00     0.075 C 
ENDBRANCH   9  13
ENDBRANCH   1   7
BRANCH   4  21
HETATM   21  O   UNL     1      39.995 -13.012  -0.041  1.00  0.00    -0.292 OA
BRANCH  21  22
HETATM   22  C   UNL     1      40.215 -12.496  -1.295  1.00  0.00     0.078 A 
HETATM   23  C   UNL     1      41.466 -11.944  -1.575  1.00  0.00     0.040 A 
HETATM   24  C   UNL     1      41.734 -11.462  -2.856  1.00  0.00     0.045 A 
HETATM   25  C   UNL     1      40.755 -11.552  -3.841  1.00  0.00     0.116 A 
HETATM   26  F   UNL     1      41.015 -11.090  -5.072  1.00  0.00    -0.206 F 
HETATM   27  C   UNL     1      39.513 -12.122  -3.573  1.00  0.00     0.045 A 
HETATM   28  C   UNL     1      39.243 -12.607  -2.293  1.00  0.00     0.040 A 
ENDBRANCH  21  22
ENDBRANCH   4  21
TORSDOF 4
ENDMDL
MODEL 10
REMARK VINA RESULT:      -7.5      5.217      8.916
REMARK  4 active torsions:
REMARK  status: ('A' for Active; 'I' for Inactive)
REMARK    1  A    between atoms: C_8  and  N_9 
REMARK       I    between atoms: N_9  and  C_10 
REMARK       I    between atoms: C_10  and  N_11 
REMARK    2  A    between atoms: N_11  and  C_12 
REMARK    3  A    between atoms: C_15  and  O_16 
REMARK    4  A    between atoms: O_16  and  C_17 
ROOT
HETATM    1  C   UNL     1      40.564 -16.093   1.504  1.00  0.00     0.054 A 
HETATM    2  C   UNL     1      39.598 -15.092   1.570  1.00  0.00     0.149 A 
HETATM    3  N   UNL     1      39.341 -14.212   0.569  1.00  0.00    -0.235 NA
HETATM    4  C   UNL     1      40.075 -14.332  -0.557  1.00  0.00     0.169 A 
HETATM    5  C   UNL     1      41.051 -15.300  -0.728  1.00  0.00     0.060 A 
HETATM    6  C   UNL     1      41.296 -16.191   0.318  1.00  0.00     0.035 A 
ENDROOT
BRANCH   1   7
HETATM    7  N   UNL     1      40.868 -17.006   2.538  1.00  0.00    -0.307 N 
HETATM    8  C   UNL     1      42.002 -17.005   3.337  1.00  0.00     0.325 C 
HETATM    9  N   UNL     1      41.970 -18.062   4.227  1.00  0.00    -0.305 N 
HETATM   10  O   UNL     1      42.899 -16.180   3.254  1.00  0.00    -0.247 OA
HETATM   11  H   UNL     1      41.072 -18.479   4.415  1.00  0.00     0.171 HD
HETATM   12  H   UNL     1      40.250 -17.797   2.631  1.00  0.00     0.170 HD
BRANCH   9  13
HETATM   13  C   UNL     1      43.003 -18.479   5.054  1.00  0.00     0.086 A 
HETATM   14  C   UNL     1      44.036 -19.271   4.585  1.00  0.00     0.052 A 
HETATM   15  C   UNL     1      44.328 -19.858   3.257  1.00  0.00     0.072 C 
HETATM   16  N   UNL     1      44.861 -19.481   5.653  1.00  0.00    -0.280 N 
HETATM   17  H   UNL     1      45.716 -20.024   5.689  1.00  0.00     0.189 HD
HETATM   18  N   UNL     1      44.465 -18.866   6.769  1.00  0.00    -0.177 NA
HETATM   19  C   UNL     1      43.329 -18.241   6.423  1.00  0.00     0.079 A 
HETATM   20  C   UNL     1      42.649 -17.413   7.452  1.00  0.00     0.075 C 
ENDBRANCH   9  13
ENDBRANCH   1   7
BRANCH   4  21
HETATM   21  O   UNL     1      39.893 -13.455  -1.623  1.00  0.00    -0.292 OA
BRANCH  21  22
HETATM   22  C   UNL     1      40.852 -12.488  -1.796  1.00  0.00     0.078 A 
HETATM   23  C   UNL     1      41.133 -11.633  -0.730  1.00  0.00     0.040 A 
HETATM   24  C   UNL     1      42.140 -10.677  -0.861  1.00  0.00     0.045 A 
HETATM   25  C   UNL     1      42.861 -10.599  -2.049  1.00  0.00     0.116 A 
HETATM   26  F   UNL     1      43.829  -9.681  -2.172  1.00  0.00    -0.206 F 
HETATM   27  C   UNL     1      42.600 -11.464  -3.108  1.00  0.00     0.045 A 
HETATM   28  C   UNL     1      41.594 -12.423  -2.979  1.00  0.00     0.040 A 
ENDBRANCH  21  22
ENDBRANCH   4  21
TORSDOF 4
ENDMDL
