MODEL 1
REMARK VINA RESULT:      -8.4      0.000      0.000
REMARK  6 active torsions:
REMARK  status: ('A' for Active; 'I' for Inactive)
REMARK    1  A    between atoms: C_2  and  O_3 
REMARK    2  A    between atoms: C_2  and  C_4 
REMARK    3  A    between atoms: C_6  and  N_7 
REMARK       I    between atoms: N_7  and  C_8 
REMARK    4  A    between atoms: C_8  and  C_9 
REMARK    5  A    between atoms: C_12  and  C_13 
REMARK    6  A    between atoms: C_18  and  C_19 
ROOT
HETATM    1  C   UNL     1      41.625 -15.397   2.593  1.00  0.00     0.096 A 
HETATM    2  C   UNL     1      41.400 -14.515   1.553  1.00  0.00     0.138 A 
HETATM    3  N   UNL     1      40.181 -13.936   1.811  1.00  0.00    -0.240 N 
HETATM    4  C   UNL     1      39.570 -12.891   1.011  1.00  0.00     0.221 C 
HETATM    5  C   UNL     1      40.587 -12.313   0.010  1.00  0.00     0.067 C 
HETATM    6  C   UNL     1      41.529 -13.358  -0.613  1.00  0.00     0.125 C 
HETATM    7  N   UNL     1      42.129 -14.175   0.455  1.00  0.00    -0.365 N 
HETATM    8  N   UNL     1      39.593 -14.384   2.930  1.00  0.00    -0.181 NA
HETATM    9  C   UNL     1      40.452 -15.304   3.380  1.00  0.00     0.160 A 
HETATM   10  H   UNL     1      42.790 -14.861   0.080  1.00  0.00     0.162 HD
ENDROOT
BRANCH   1  11
HETATM   11  C   UNL     1      42.785 -16.227   2.872  1.00  0.00     0.261 C 
HETATM   12  N   UNL     1      42.458 -17.421   3.488  1.00  0.00    -0.323 N 
HETATM   13  H   UNL     1      41.464 -17.593   3.595  1.00  0.00     0.169 HD
HETATM   14  O   UNL     1      43.903 -15.877   2.516  1.00  0.00    -0.267 OA
BRANCH  12  15
HETATM   15  C   UNL     1      43.320 -18.481   3.832  1.00  0.00     0.035 A 
HETATM   16  C   UNL     1      43.591 -19.569   2.999  1.00  0.00     0.039 A 
HETATM   17  C   UNL     1      44.442 -20.608   3.416  1.00  0.00    -0.028 A 
HETATM   18  C   UNL     1      45.012 -20.545   4.697  1.00  0.00     0.010 A 
HETATM   19  C   UNL     1      44.759 -19.456   5.528  1.00  0.00     0.003 A 
HETATM   20  C   UNL     1      43.922 -18.427   5.095  1.00  0.00     0.029 A 
BRANCH  17  21
HETATM   21  C   UNL     1      44.696 -21.788   2.502  1.00  0.00     0.147 C 
HETATM   22  C   UNL     1      43.644 -21.899   1.408  1.00  0.00     0.044 C 
BRANCH  21  23
HETATM   23  O   UNL     1      44.714 -23.003   3.249  1.00  0.00    -0.391 OA
HETATM   24  H   UNL     1      45.035 -23.695   2.647  1.00  0.00     0.210 HD
ENDBRANCH  21  23
ENDBRANCH  17  21
ENDBRANCH  12  15
ENDBRANCH   1  11
BRANCH   4  25
HETATM   25  C   UNL     1      38.288 -13.383   0.375  1.00  0.00     0.409 C 
HETATM   26  F   UNL     1      38.314 -14.685   0.036  1.00  0.00    -0.169 F 
HETATM   27  F   UNL     1      37.214 -13.192   1.174  1.00  0.00    -0.169 F 
HETATM   28  F   UNL     1      38.036 -12.681  -0.762  1.00  0.00    -0.169 F 
ENDBRANCH   4  25
BRANCH   6  29
HETATM   29  C   UNL     1      40.912 -14.146  -1.746  1.00  0.00     0.005 A 
HETATM   30  S   UNL     1      40.187 -13.315  -3.067  1.00  0.00    -0.104 SA
HETATM   31  C   UNL     1      39.771 -14.774  -3.850  1.00  0.00     0.050 A 
HETATM   32  C   UNL     1      40.196 -15.877  -3.146  1.00  0.00     0.008 A 
HETATM   33  C   UNL     1      40.865 -15.515  -1.941  1.00  0.00     0.017 A 
ENDBRANCH   6  29
TORSDOF 6
ENDMDL
MODEL 2
REMARK VINA RESULT:      -8.4      4.137      8.069
REMARK  6 active torsions:
REMARK  status: ('A' for Active; 'I' for Inactive)
REMARK    1  A    between atoms: C_2  and  O_3 
REMARK    2  A    between atoms: C_2  and  C_4 
REMARK    3  A    between atoms: C_6  and  N_7 
REMARK       I    between atoms: N_7  and  C_8 
REMARK    4  A    between atoms: C_8  and  C_9 
REMARK    5  A    between atoms: C_12  and  C_13 
REMARK    6  A    between atoms: C_18  and  C_19 
ROOT
HETATM    1  C   UNL     1      42.379 -15.032   2.493  1.00  0.00     0.096 A 
HETATM    2  C   UNL     1      42.091 -15.803   3.604  1.00  0.00     0.138 A 
HETATM    3  N   UNL     1      42.474 -15.053   4.689  1.00  0.00    -0.240 N 
HETATM    4  C   UNL     1      42.295 -15.441   6.075  1.00  0.00     0.221 C 
HETATM    5  C   UNL     1      41.363 -16.662   6.177  1.00  0.00     0.067 C 
HETATM    6  C   UNL     1      41.563 -17.708   5.066  1.00  0.00     0.125 C 
HETATM    7  N   UNL     1      41.542 -17.040   3.754  1.00  0.00    -0.365 N 
HETATM    8  N   UNL     1      42.999 -13.861   4.367  1.00  0.00    -0.181 NA
HETATM    9  C   UNL     1      42.981 -13.870   3.030  1.00  0.00     0.160 A 
HETATM   10  H   UNL     1      41.638 -17.710   2.987  1.00  0.00     0.162 HD
ENDROOT
BRANCH   1  11
HETATM   11  C   UNL     1      42.119 -15.296   1.088  1.00  0.00     0.261 C 
HETATM   12  N   UNL     1      41.719 -14.170   0.392  1.00  0.00    -0.323 N 
HETATM   13  H   UNL     1      41.732 -13.308   0.926  1.00  0.00     0.169 HD
HETATM   14  O   UNL     1      42.315 -16.409   0.615  1.00  0.00    -0.267 OA
BRANCH  12  15
HETATM   15  C   UNL     1      41.457 -14.054  -0.987  1.00  0.00     0.035 A 
HETATM   16  C   UNL     1      40.545 -14.856  -1.679  1.00  0.00     0.039 A 
HETATM   17  C   UNL     1      40.351 -14.704  -3.064  1.00  0.00    -0.028 A 
HETATM   18  C   UNL     1      41.099 -13.737  -3.751  1.00  0.00     0.010 A 
HETATM   19  C   UNL     1      41.998 -12.922  -3.067  1.00  0.00     0.003 A 
HETATM   20  C   UNL     1      42.171 -13.077  -1.690  1.00  0.00     0.029 A 
BRANCH  17  21
HETATM   21  C   UNL     1      39.377 -15.606  -3.791  1.00  0.00     0.147 C 
HETATM   22  C   UNL     1      37.931 -15.191  -3.557  1.00  0.00     0.044 C 
BRANCH  21  23
HETATM   23  O   UNL     1      39.541 -16.959  -3.372  1.00  0.00    -0.391 OA
HETATM   24  H   UNL     1      40.450 -17.214  -3.604  1.00  0.00     0.210 HD
ENDBRANCH  21  23
ENDBRANCH  17  21
ENDBRANCH  12  15
ENDBRANCH   1  11
BRANCH   4  25
HETATM   25  C   UNL     1      43.633 -15.627   6.757  1.00  0.00     0.409 C 
HETATM   26  F   UNL     1      44.562 -16.214   5.981  1.00  0.00    -0.169 F 
HETATM   27  F   UNL     1      44.151 -14.457   7.196  1.00  0.00    -0.169 F 
HETATM   28  F   UNL     1      43.487 -16.407   7.861  1.00  0.00    -0.169 F 
ENDBRANCH   4  25
BRANCH   6  29
HETATM   29  C   UNL     1      42.740 -18.630   5.291  1.00  0.00     0.005 A 
HETATM   30  S   UNL     1      43.828 -18.957   3.999  1.00  0.00    -0.104 SA
HETATM   31  C   UNL     1      44.790 -19.979   4.972  1.00  0.00     0.050 A 
HETATM   32  C   UNL     1      44.320 -20.055   6.263  1.00  0.00     0.008 A 
HETATM   33  C   UNL     1      43.148 -19.266   6.451  1.00  0.00     0.017 A 
ENDBRANCH   6  29
TORSDOF 6
ENDMDL
MODEL 3
REMARK VINA RESULT:      -8.1      4.311      8.224
REMARK  6 active torsions:
REMARK  status: ('A' for Active; 'I' for Inactive)
REMARK    1  A    between atoms: C_2  and  O_3 
REMARK    2  A    between atoms: C_2  and  C_4 
REMARK    3  A    between atoms: C_6  and  N_7 
REMARK       I    between atoms: N_7  and  C_8 
REMARK    4  A    between atoms: C_8  and  C_9 
REMARK    5  A    between atoms: C_12  and  C_13 
REMARK    6  A    between atoms: C_18  and  C_19 
ROOT
HETATM    1  C   UNL     1      40.702 -14.658   2.759  1.00  0.00     0.096 A 
HETATM    2  C   UNL     1      40.968 -15.531   3.797  1.00  0.00     0.138 A 
HETATM    3  N   UNL     1      41.660 -14.800   4.732  1.00  0.00    -0.240 N 
HETATM    4  C   UNL     1      42.091 -15.297   6.025  1.00  0.00     0.221 C 
HETATM    5  C   UNL     1      41.424 -16.650   6.333  1.00  0.00     0.067 C 
HETATM    6  C   UNL     1      41.288 -17.582   5.116  1.00  0.00     0.125 C 
HETATM    7  N   UNL     1      40.671 -16.844   4.001  1.00  0.00    -0.365 N 
HETATM    8  N   UNL     1      41.873 -13.525   4.375  1.00  0.00    -0.181 NA
HETATM    9  C   UNL     1      41.329 -13.453   3.156  1.00  0.00     0.160 A 
HETATM   10  H   UNL     1      40.532 -17.443   3.183  1.00  0.00     0.162 HD
ENDROOT
BRANCH   1  11
HETATM   11  C   UNL     1      39.939 -14.871   1.540  1.00  0.00     0.261 C 
HETATM   12  N   UNL     1      40.648 -14.547   0.398  1.00  0.00    -0.323 N 
HETATM   13  H   UNL     1      41.614 -14.280   0.552  1.00  0.00     0.169 HD
HETATM   14  O   UNL     1      38.814 -15.350   1.583  1.00  0.00    -0.267 OA
BRANCH  12  15
HETATM   15  C   UNL     1      40.243 -14.697  -0.943  1.00  0.00     0.035 A 
HETATM   16  C   UNL     1      39.163 -14.017  -1.512  1.00  0.00     0.039 A 
HETATM   17  C   UNL     1      38.795 -14.234  -2.853  1.00  0.00    -0.028 A 
HETATM   18  C   UNL     1      39.523 -15.159  -3.615  1.00  0.00     0.010 A 
HETATM   19  C   UNL     1      40.611 -15.829  -3.060  1.00  0.00     0.003 A 
HETATM   20  C   UNL     1      40.971 -15.594  -1.732  1.00  0.00     0.029 A 
BRANCH  17  21
HETATM   21  C   UNL     1      37.603 -13.503  -3.435  1.00  0.00     0.147 C 
HETATM   22  C   UNL     1      36.716 -14.423  -4.260  1.00  0.00     0.044 C 
BRANCH  21  23
HETATM   23  O   UNL     1      38.036 -12.421  -4.257  1.00  0.00    -0.391 OA
HETATM   24  H   UNL     1      37.321 -12.252  -4.894  1.00  0.00     0.210 HD
ENDBRANCH  21  23
ENDBRANCH  17  21
ENDBRANCH  12  15
ENDBRANCH   1  11
BRANCH   4  25
HETATM   25  C   UNL     1      43.602 -15.318   6.115  1.00  0.00     0.409 C 
HETATM   26  F   UNL     1      44.145 -14.130   6.438  1.00  0.00    -0.169 F 
HETATM   27  F   UNL     1      44.048 -16.227   7.013  1.00  0.00    -0.169 F 
HETATM   28  F   UNL     1      44.133 -15.686   4.918  1.00  0.00    -0.169 F 
ENDBRANCH   4  25
BRANCH   6  29
HETATM   29  C   UNL     1      42.555 -18.326   4.764  1.00  0.00     0.005 A 
HETATM   30  S   UNL     1      43.431 -19.151   5.995  1.00  0.00    -0.104 SA
HETATM   31  C   UNL     1      44.616 -19.690   4.890  1.00  0.00     0.050 A 
HETATM   32  C   UNL     1      44.347 -19.282   3.604  1.00  0.00     0.008 A 
HETATM   33  C   UNL     1      43.152 -18.508   3.529  1.00  0.00     0.017 A 
ENDBRANCH   6  29
TORSDOF 6
ENDMDL
MODEL 4
REMARK VINA RESULT:      -8.0      4.190      8.069
REMARK  6 active torsions:
REMARK  status: ('A' for Active; 'I' for Inactive)
REMARK    1  A    between atoms: C_2  and  O_3 
REMARK    2  A    between atoms: C_2  and  C_4 
REMARK    3  A    between atoms: C_6  and  N_7 
REMARK       I    between atoms: N_7  and  C_8 
REMARK    4  A    between atoms: C_8  and  C_9 
REMARK    5  A    between atoms: C_12  and  C_13 
REMARK    6  A    between atoms: C_18  and  C_19 
ROOT
HETATM    1  C   UNL     1      40.747 -14.630   3.355  1.00  0.00     0.096 A 
HETATM    2  C   UNL     1      41.059 -15.610   4.279  1.00  0.00     0.138 A 
HETATM    3  N   UNL     1      41.791 -14.982   5.257  1.00  0.00    -0.240 N 
HETATM    4  C   UNL     1      42.278 -15.616   6.468  1.00  0.00     0.221 C 
HETATM    5  C   UNL     1      41.625 -16.997   6.655  1.00  0.00     0.067 C 
HETATM    6  C   UNL     1      41.436 -17.791   5.350  1.00  0.00     0.125 C 
HETATM    7  N   UNL     1      40.771 -16.939   4.350  1.00  0.00    -0.365 N 
HETATM    8  N   UNL     1      41.988 -13.675   5.033  1.00  0.00    -0.181 NA
HETATM    9  C   UNL     1      41.391 -13.472   3.854  1.00  0.00     0.160 A 
HETATM   10  H   UNL     1      40.597 -17.445   3.478  1.00  0.00     0.162 HD
ENDROOT
BRANCH   1  11
HETATM   11  C   UNL     1      39.933 -14.712   2.154  1.00  0.00     0.261 C 
HETATM   12  N   UNL     1      40.311 -13.803   1.183  1.00  0.00    -0.323 N 
HETATM   13  H   UNL     1      41.139 -13.259   1.401  1.00  0.00     0.169 HD
HETATM   14  O   UNL     1      39.058 -15.563   2.050  1.00  0.00    -0.267 OA
BRANCH  12  15
HETATM   15  C   UNL     1      39.788 -13.658  -0.116  1.00  0.00     0.035 A 
HETATM   16  C   UNL     1      40.223 -14.397  -1.220  1.00  0.00     0.039 A 
HETATM   17  C   UNL     1      39.676 -14.183  -2.498  1.00  0.00    -0.028 A 
HETATM   18  C   UNL     1      38.686 -13.201  -2.656  1.00  0.00     0.010 A 
HETATM   19  C   UNL     1      38.235 -12.472  -1.558  1.00  0.00     0.003 A 
HETATM   20  C   UNL     1      38.779 -12.704  -0.295  1.00  0.00     0.029 A 
BRANCH  17  21
HETATM   21  C   UNL     1      40.187 -14.979  -3.679  1.00  0.00     0.147 C 
HETATM   22  C   UNL     1      39.292 -16.169  -3.997  1.00  0.00     0.044 C 
BRANCH  21  23
HETATM   23  O   UNL     1      41.509 -15.452  -3.428  1.00  0.00    -0.391 OA
HETATM   24  H   UNL     1      41.419 -16.267  -2.905  1.00  0.00     0.210 HD
ENDBRANCH  21  23
ENDBRANCH  17  21
ENDBRANCH  12  15
ENDBRANCH   1  11
BRANCH   4  25
HETATM   25  C   UNL     1      43.792 -15.639   6.490  1.00  0.00     0.409 C 
HETATM   26  F   UNL     1      44.347 -14.499   6.940  1.00  0.00    -0.169 F 
HETATM   27  F   UNL     1      44.276 -16.653   7.242  1.00  0.00    -0.169 F 
HETATM   28  F   UNL     1      44.270 -15.845   5.234  1.00  0.00    -0.169 F 
ENDBRANCH   4  25
BRANCH   6  29
HETATM   29  C   UNL     1      42.687 -18.485   4.864  1.00  0.00     0.005 A 
HETATM   30  S   UNL     1      43.632 -19.412   5.964  1.00  0.00    -0.104 SA
HETATM   31  C   UNL     1      44.759 -19.834   4.753  1.00  0.00     0.050 A 
HETATM   32  C   UNL     1      44.420 -19.311   3.526  1.00  0.00     0.008 A 
HETATM   33  C   UNL     1      43.219 -18.546   3.587  1.00  0.00     0.017 A 
ENDBRANCH   6  29
TORSDOF 6
ENDMDL
MODEL 5
REMARK VINA RESULT:      -7.9      1.905      2.338
REMARK  6 active torsions:
REMARK  status: ('A' for Active; 'I' for Inactive)
REMARK    1  A    between atoms: C_2  and  O_3 
REMARK    2  A    between atoms: C_2  and  C_4 
REMARK    3  A    between atoms: C_6  and  N_7 
REMARK       I    between atoms: N_7  and  C_8 
REMARK    4  A    between atoms: C_8  and  C_9 
REMARK    5  A    between atoms: C_12  and  C_13 
REMARK    6  A    between atoms: C_18  and  C_19 
ROOT
HETATM    1  C   UNL     1      42.260 -15.154   3.118  1.00  0.00     0.096 A 
HETATM    2  C   UNL     1      42.036 -14.485   1.928  1.00  0.00     0.138 A 
HETATM    3  N   UNL     1      42.178 -13.150   2.218  1.00  0.00    -0.240 N 
HETATM    4  C   UNL     1      42.096 -12.074   1.249  1.00  0.00     0.221 C 
HETATM    5  C   UNL     1      42.119 -12.636  -0.185  1.00  0.00     0.067 C 
HETATM    6  C   UNL     1      41.332 -13.946  -0.365  1.00  0.00     0.125 C 
HETATM    7  N   UNL     1      41.742 -14.911   0.669  1.00  0.00    -0.365 N 
HETATM    8  N   UNL     1      42.464 -12.901   3.505  1.00  0.00    -0.181 NA
HETATM    9  C   UNL     1      42.469 -14.117   4.059  1.00  0.00     0.160 A 
HETATM   10  H   UNL     1      41.264 -15.809   0.560  1.00  0.00     0.162 HD
ENDROOT
BRANCH   1  11
HETATM   11  C   UNL     1      42.306 -16.582   3.384  1.00  0.00     0.261 C 
HETATM   12  N   UNL     1      43.580 -17.035   3.673  1.00  0.00    -0.323 N 
HETATM   13  H   UNL     1      44.290 -16.314   3.734  1.00  0.00     0.169 HD
HETATM   14  O   UNL     1      41.278 -17.248   3.399  1.00  0.00    -0.267 OA
BRANCH  12  15
HETATM   15  C   UNL     1      43.971 -18.336   4.044  1.00  0.00     0.035 A 
HETATM   16  C   UNL     1      44.164 -19.382   3.138  1.00  0.00     0.039 A 
HETATM   17  C   UNL     1      44.529 -20.667   3.580  1.00  0.00    -0.028 A 
HETATM   18  C   UNL     1      44.687 -20.892   4.955  1.00  0.00     0.010 A 
HETATM   19  C   UNL     1      44.512 -19.850   5.865  1.00  0.00     0.003 A 
HETATM   20  C   UNL     1      44.162 -18.578   5.409  1.00  0.00     0.029 A 
BRANCH  17  21
HETATM   21  C   UNL     1      44.704 -21.787   2.577  1.00  0.00     0.147 C 
HETATM   22  C   UNL     1      43.600 -21.795   1.530  1.00  0.00     0.044 C 
BRANCH  21  23
HETATM   23  O   UNL     1      44.721 -23.051   3.238  1.00  0.00    -0.391 OA
HETATM   24  H   UNL     1      44.173 -23.652   2.706  1.00  0.00     0.210 HD
ENDBRANCH  21  23
ENDBRANCH  17  21
ENDBRANCH  12  15
ENDBRANCH   1  11
BRANCH   4  25
HETATM   25  C   UNL     1      40.912 -11.177   1.542  1.00  0.00     0.409 C 
HETATM   26  F   UNL     1      39.890 -11.807   2.150  1.00  0.00    -0.169 F 
HETATM   27  F   UNL     1      41.251 -10.117   2.309  1.00  0.00    -0.169 F 
HETATM   28  F   UNL     1      40.425 -10.659   0.383  1.00  0.00    -0.169 F 
ENDBRANCH   4  25
BRANCH   6  29
HETATM   29  C   UNL     1      39.839 -13.755  -0.500  1.00  0.00     0.005 A 
HETATM   30  S   UNL     1      39.205 -12.926  -1.869  1.00  0.00    -0.104 SA
HETATM   31  C   UNL     1      37.596 -13.118  -1.329  1.00  0.00     0.050 A 
HETATM   32  C   UNL     1      37.527 -13.821  -0.149  1.00  0.00     0.008 A 
HETATM   33  C   UNL     1      38.818 -14.201   0.322  1.00  0.00     0.017 A 
ENDBRANCH   6  29
TORSDOF 6
ENDMDL
MODEL 6
REMARK VINA RESULT:      -7.9      1.490      2.240
REMARK  6 active torsions:
REMARK  status: ('A' for Active; 'I' for Inactive)
REMARK    1  A    between atoms: C_2  and  O_3 
REMARK    2  A    between atoms: C_2  and  C_4 
REMARK    3  A    between atoms: C_6  and  N_7 
REMARK       I    between atoms: N_7  and  C_8 
REMARK    4  A    between atoms: C_8  and  C_9 
REMARK    5  A    between atoms: C_12  and  C_13 
REMARK    6  A    between atoms: C_18  and  C_19 
ROOT
HETATM    1  C   UNL     1      41.165 -14.808   2.691  1.00  0.00     0.096 A 
HETATM    2  C   UNL     1      41.048 -14.049   1.542  1.00  0.00     0.138 A 
HETATM    3  N   UNL     1      39.824 -13.433   1.624  1.00  0.00    -0.240 N 
HETATM    4  C   UNL     1      39.304 -12.481   0.660  1.00  0.00     0.221 C 
HETATM    5  C   UNL     1      40.414 -12.032  -0.307  1.00  0.00     0.067 C 
HETATM    6  C   UNL     1      41.385 -13.152  -0.723  1.00  0.00     0.125 C 
HETATM    7  N   UNL     1      41.876 -13.846   0.480  1.00  0.00    -0.365 N 
HETATM    8  N   UNL     1      39.133 -13.743   2.731  1.00  0.00    -0.181 NA
HETATM    9  C   UNL     1      39.931 -14.614   3.356  1.00  0.00     0.160 A 
HETATM   10  H   UNL     1      42.553 -14.577   0.245  1.00  0.00     0.162 HD
ENDROOT
BRANCH   1  11
HETATM   11  C   UNL     1      42.281 -15.611   3.163  1.00  0.00     0.261 C 
HETATM   12  N   UNL     1      41.916 -16.906   3.483  1.00  0.00    -0.323 N 
HETATM   13  H   UNL     1      40.951 -17.144   3.279  1.00  0.00     0.169 HD
HETATM   14  O   UNL     1      43.415 -15.150   3.192  1.00  0.00    -0.267 OA
BRANCH  12  15
HETATM   15  C   UNL     1      42.750 -17.962   3.900  1.00  0.00     0.035 A 
HETATM   16  C   UNL     1      42.949 -18.318   5.237  1.00  0.00     0.039 A 
HETATM   17  C   UNL     1      43.819 -19.367   5.585  1.00  0.00    -0.028 A 
HETATM   18  C   UNL     1      44.499 -20.051   4.567  1.00  0.00     0.010 A 
HETATM   19  C   UNL     1      44.293 -19.713   3.231  1.00  0.00     0.003 A 
HETATM   20  C   UNL     1      43.418 -18.678   2.901  1.00  0.00     0.029 A 
BRANCH  17  21
HETATM   21  C   UNL     1      44.036 -19.713   7.043  1.00  0.00     0.147 C 
HETATM   22  C   UNL     1      43.520 -21.103   7.384  1.00  0.00     0.044 C 
BRANCH  21  23
HETATM   23  O   UNL     1      43.384 -18.762   7.883  1.00  0.00    -0.391 OA
HETATM   24  H   UNL     1      42.494 -19.110   8.061  1.00  0.00     0.210 HD
ENDBRANCH  21  23
ENDBRANCH  17  21
ENDBRANCH  12  15
ENDBRANCH   1  11
BRANCH   4  25
HETATM   25  C   UNL     1      38.072 -13.031  -0.026  1.00  0.00     0.409 C 
HETATM   26  F   UNL     1      36.935 -12.852   0.672  1.00  0.00    -0.169 F 
HETATM   27  F   UNL     1      37.886 -12.492  -1.252  1.00  0.00    -0.169 F 
HETATM   28  F   UNL     1      38.210 -14.369  -0.224  1.00  0.00    -0.169 F 
ENDBRANCH   4  25
BRANCH   6  29
HETATM   29  C   UNL     1      40.853 -14.058  -1.808  1.00  0.00     0.005 A 
HETATM   30  S   UNL     1      40.162 -13.375  -3.229  1.00  0.00    -0.104 SA
HETATM   31  C   UNL     1      39.838 -14.913  -3.897  1.00  0.00     0.050 A 
HETATM   32  C   UNL     1      40.268 -15.933  -3.080  1.00  0.00     0.008 A 
HETATM   33  C   UNL     1      40.865 -15.440  -1.883  1.00  0.00     0.017 A 
ENDBRANCH   6  29
TORSDOF 6
ENDMDL
MODEL 7
REMARK VINA RESULT:      -7.8      2.256      3.732
REMARK  6 active torsions:
REMARK  status: ('A' for Active; 'I' for Inactive)
REMARK    1  A    between atoms: C_2  and  O_3 
REMARK    2  A    between atoms: C_2  and  C_4 
REMARK    3  A    between atoms: C_6  and  N_7 
REMARK       I    between atoms: N_7  and  C_8 
REMARK    4  A    between atoms: C_8  and  C_9 
REMARK    5  A    between atoms: C_12  and  C_13 
REMARK    6  A    between atoms: C_18  and  C_19 
ROOT
HETATM    1  C   UNL     1      41.006 -15.656   0.619  1.00  0.00     0.096 A 
HETATM    2  C   UNL     1      39.874 -14.881   0.451  1.00  0.00     0.138 A 
HETATM    3  N   UNL     1      40.083 -14.157  -0.698  1.00  0.00    -0.240 N 
HETATM    4  C   UNL     1      39.121 -13.253  -1.299  1.00  0.00     0.221 C 
HETATM    5  C   UNL     1      37.736 -13.430  -0.651  1.00  0.00     0.067 C 
HETATM    6  C   UNL     1      37.773 -13.674   0.868  1.00  0.00     0.125 C 
HETATM    7  N   UNL     1      38.722 -14.758   1.168  1.00  0.00    -0.365 N 
HETATM    8  N   UNL     1      41.268 -14.394  -1.279  1.00  0.00    -0.181 NA
HETATM    9  C   UNL     1      41.846 -15.271  -0.453  1.00  0.00     0.160 A 
HETATM   10  H   UNL     1      38.748 -14.973   2.168  1.00  0.00     0.162 HD
ENDROOT
BRANCH   1  11
HETATM   11  C   UNL     1      41.302 -16.661   1.627  1.00  0.00     0.261 C 
HETATM   12  N   UNL     1      42.632 -17.038   1.639  1.00  0.00    -0.323 N 
HETATM   13  H   UNL     1      43.232 -16.519   1.006  1.00  0.00     0.169 HD
HETATM   14  O   UNL     1      40.432 -17.048   2.397  1.00  0.00    -0.267 OA
BRANCH  12  15
HETATM   15  C   UNL     1      43.271 -17.928   2.524  1.00  0.00     0.035 A 
HETATM   16  C   UNL     1      43.681 -19.217   2.173  1.00  0.00     0.039 A 
HETATM   17  C   UNL     1      44.290 -20.065   3.116  1.00  0.00    -0.028 A 
HETATM   18  C   UNL     1      44.472 -19.603   4.428  1.00  0.00     0.010 A 
HETATM   19  C   UNL     1      44.080 -18.313   4.781  1.00  0.00     0.003 A 
HETATM   20  C   UNL     1      43.488 -17.479   3.831  1.00  0.00     0.029 A 
BRANCH  17  21
HETATM   21  C   UNL     1      44.700 -21.466   2.714  1.00  0.00     0.147 C 
HETATM   22  C   UNL     1      43.956 -21.946   1.477  1.00  0.00     0.044 C 
BRANCH  21  23
HETATM   23  O   UNL     1      44.458 -22.381   3.781  1.00  0.00    -0.391 OA
HETATM   24  H   UNL     1      43.534 -22.671   3.695  1.00  0.00     0.210 HD
ENDBRANCH  21  23
ENDBRANCH  17  21
ENDBRANCH  12  15
ENDBRANCH   1  11
BRANCH   4  25
HETATM   25  C   UNL     1      39.637 -11.830  -1.278  1.00  0.00     0.409 C 
HETATM   26  F   UNL     1      40.435 -11.525  -2.317  1.00  0.00    -0.169 F 
HETATM   27  F   UNL     1      38.633 -10.923  -1.256  1.00  0.00    -0.169 F 
HETATM   28  F   UNL     1      40.358 -11.615  -0.145  1.00  0.00    -0.169 F 
ENDBRANCH   4  25
BRANCH   6  29
HETATM   29  C   UNL     1      37.959 -12.419   1.689  1.00  0.00     0.005 A 
HETATM   30  S   UNL     1      39.165 -12.374   2.917  1.00  0.00    -0.104 SA
HETATM   31  C   UNL     1      38.779 -10.764   3.337  1.00  0.00     0.050 A 
HETATM   32  C   UNL     1      37.776 -10.251   2.548  1.00  0.00     0.008 A 
HETATM   33  C   UNL     1      37.313 -11.199   1.589  1.00  0.00     0.017 A 
ENDBRANCH   6  29
TORSDOF 6
ENDMDL
MODEL 8
REMARK VINA RESULT:      -7.7      4.122      7.843
REMARK  6 active torsions:
REMARK  status: ('A' for Active; 'I' for Inactive)
REMARK    1  A    between atoms: C_2  and  O_3 
REMARK    2  A    between atoms: C_2  and  C_4 
REMARK    3  A    between atoms: C_6  and  N_7 
REMARK       I    between atoms: N_7  and  C_8 
REMARK    4  A    between atoms: C_8  and  C_9 
REMARK    5  A    between atoms: C_12  and  C_13 
REMARK    6  A    between atoms: C_18  and  C_19 
ROOT
HETATM    1  C   UNL     1      40.037 -13.263   2.628  1.00  0.00     0.096 A 
HETATM    2  C   UNL     1      40.416 -14.473   3.180  1.00  0.00     0.138 A 
HETATM    3  N   UNL     1      41.232 -14.161   4.240  1.00  0.00    -0.240 N 
HETATM    4  C   UNL     1      41.812 -15.124   5.156  1.00  0.00     0.221 C 
HETATM    5  C   UNL     1      41.164 -16.508   4.966  1.00  0.00     0.067 C 
HETATM    6  C   UNL     1      40.861 -16.869   3.501  1.00  0.00     0.125 C 
HETATM    7  N   UNL     1      40.123 -15.765   2.866  1.00  0.00    -0.365 N 
HETATM    8  N   UNL     1      41.421 -12.844   4.410  1.00  0.00    -0.181 NA
HETATM    9  C   UNL     1      40.731 -12.302   3.402  1.00  0.00     0.160 A 
HETATM   10  H   UNL     1      39.872 -15.984   1.899  1.00  0.00     0.162 HD
ENDROOT
BRANCH   1  11
HETATM   11  C   UNL     1      39.125 -12.989   1.530  1.00  0.00     0.261 C 
HETATM   12  N   UNL     1      39.695 -13.205   0.289  1.00  0.00    -0.323 N 
HETATM   13  H   UNL     1      40.633 -13.592   0.308  1.00  0.00     0.169 HD
HETATM   14  O   UNL     1      37.965 -12.664   1.748  1.00  0.00    -0.267 OA
BRANCH  12  15
HETATM   15  C   UNL     1      39.080 -13.106  -0.974  1.00  0.00     0.035 A 
HETATM   16  C   UNL     1      38.695 -14.208  -1.743  1.00  0.00     0.039 A 
HETATM   17  C   UNL     1      38.109 -14.038  -3.010  1.00  0.00    -0.028 A 
HETATM   18  C   UNL     1      37.925 -12.738  -3.504  1.00  0.00     0.010 A 
HETATM   19  C   UNL     1      38.292 -11.634  -2.737  1.00  0.00     0.003 A 
HETATM   20  C   UNL     1      38.861 -11.819  -1.477  1.00  0.00     0.029 A 
BRANCH  17  21
HETATM   21  C   UNL     1      37.726 -15.251  -3.832  1.00  0.00     0.147 C 
HETATM   22  C   UNL     1      38.935 -16.105  -4.187  1.00  0.00     0.044 C 
BRANCH  21  23
HETATM   23  O   UNL     1      37.075 -14.851  -5.037  1.00  0.00    -0.391 OA
HETATM   24  H   UNL     1      37.113 -15.613  -5.639  1.00  0.00     0.210 HD
ENDBRANCH  21  23
ENDBRANCH  17  21
ENDBRANCH  12  15
ENDBRANCH   1  11
BRANCH   4  25
HETATM   25  C   UNL     1      43.322 -15.128   5.046  1.00  0.00     0.409 C 
HETATM   26  F   UNL     1      43.776 -14.907   3.799  1.00  0.00    -0.169 F 
HETATM   27  F   UNL     1      43.896 -14.211   5.857  1.00  0.00    -0.169 F 
HETATM   28  F   UNL     1      43.812 -16.333   5.440  1.00  0.00    -0.169 F 
ENDBRANCH   4  25
BRANCH   6  29
HETATM   29  C   UNL     1      42.061 -17.362   2.726  1.00  0.00     0.005 A 
HETATM   30  S   UNL     1      42.456 -16.639   1.215  1.00  0.00    -0.104 SA
HETATM   31  C   UNL     1      43.813 -17.654   1.002  1.00  0.00     0.050 A 
HETATM   32  C   UNL     1      43.989 -18.510   2.065  1.00  0.00     0.008 A 
HETATM   33  C   UNL     1      42.988 -18.332   3.064  1.00  0.00     0.017 A 
ENDBRANCH   6  29
TORSDOF 6
ENDMDL
MODEL 9
REMARK VINA RESULT:      -7.7      4.202      8.133
REMARK  6 active torsions:
REMARK  status: ('A' for Active; 'I' for Inactive)
REMARK    1  A    between atoms: C_2  and  O_3 
REMARK    2  A    between atoms: C_2  and  C_4 
REMARK    3  A    between atoms: C_6  and  N_7 
REMARK       I    between atoms: N_7  and  C_8 
REMARK    4  A    between atoms: C_8  and  C_9 
REMARK    5  A    between atoms: C_12  and  C_13 
REMARK    6  A    between atoms: C_18  and  C_19 
ROOT
HETATM    1  C   UNL     1      41.524 -14.256   3.416  1.00  0.00     0.096 A 
HETATM    2  C   UNL     1      41.509 -15.344   4.269  1.00  0.00     0.138 A 
HETATM    3  N   UNL     1      42.134 -14.925   5.419  1.00  0.00    -0.240 N 
HETATM    4  C   UNL     1      42.288 -15.723   6.620  1.00  0.00     0.221 C 
HETATM    5  C   UNL     1      41.412 -16.986   6.546  1.00  0.00     0.067 C 
HETATM    6  C   UNL     1      41.349 -17.633   5.151  1.00  0.00     0.125 C 
HETATM    7  N   UNL     1      41.016 -16.607   4.149  1.00  0.00    -0.365 N 
HETATM    8  N   UNL     1      42.564 -13.656   5.371  1.00  0.00    -0.181 NA
HETATM    9  C   UNL     1      42.232 -13.265   4.137  1.00  0.00     0.160 A 
HETATM   10  H   UNL     1      40.931 -17.008   3.211  1.00  0.00     0.162 HD
ENDROOT
BRANCH   1  11
HETATM   11  C   UNL     1      40.942 -14.108   2.092  1.00  0.00     0.261 C 
HETATM   12  N   UNL     1      41.856 -14.312   1.075  1.00  0.00    -0.323 N 
HETATM   13  H   UNL     1      42.778 -14.607   1.378  1.00  0.00     0.169 HD
HETATM   14  O   UNL     1      39.745 -13.887   1.958  1.00  0.00    -0.267 OA
BRANCH  12  15
HETATM   15  C   UNL     1      41.619 -14.315  -0.313  1.00  0.00     0.035 A 
HETATM   16  C   UNL     1      41.741 -13.187  -1.129  1.00  0.00     0.039 A 
HETATM   17  C   UNL     1      41.462 -13.254  -2.506  1.00  0.00    -0.028 A 
HETATM   18  C   UNL     1      41.044 -14.475  -3.055  1.00  0.00     0.010 A 
HETATM   19  C   UNL     1      40.934 -15.609  -2.252  1.00  0.00     0.003 A 
HETATM   20  C   UNL     1      41.226 -15.529  -0.889  1.00  0.00     0.029 A 
BRANCH  17  21
HETATM   21  C   UNL     1      41.577 -12.009  -3.359  1.00  0.00     0.147 C 
HETATM   22  C   UNL     1      40.291 -11.714  -4.117  1.00  0.00     0.044 C 
BRANCH  21  23
HETATM   23  O   UNL     1      42.643 -12.145  -4.298  1.00  0.00    -0.391 OA
HETATM   24  H   UNL     1      42.864 -11.248  -4.601  1.00  0.00     0.210 HD
ENDBRANCH  21  23
ENDBRANCH  17  21
ENDBRANCH  12  15
ENDBRANCH   1  11
BRANCH   4  25
HETATM   25  C   UNL     1      43.751 -16.001   6.895  1.00  0.00     0.409 C 
HETATM   26  F   UNL     1      43.962 -17.063   7.694  1.00  0.00    -0.169 F 
HETATM   27  F   UNL     1      44.456 -16.200   5.758  1.00  0.00    -0.169 F 
HETATM   28  F   UNL     1      44.320 -14.927   7.505  1.00  0.00    -0.169 F 
ENDBRANCH   4  25
BRANCH   6  29
HETATM   29  C   UNL     1      42.549 -18.487   4.813  1.00  0.00     0.005 A 
HETATM   30  S   UNL     1      43.162 -18.500   3.205  1.00  0.00    -0.104 SA
HETATM   31  C   UNL     1      44.404 -19.599   3.611  1.00  0.00     0.050 A 
HETATM   32  C   UNL     1      44.382 -19.935   4.945  1.00  0.00     0.008 A 
HETATM   33  C   UNL     1      43.322 -19.283   5.641  1.00  0.00     0.017 A 
ENDBRANCH   6  29
TORSDOF 6
ENDMDL
MODEL 10
REMARK VINA RESULT:      -7.3      2.498      3.637
REMARK  6 active torsions:
REMARK  status: ('A' for Active; 'I' for Inactive)
REMARK    1  A    between atoms: C_2  and  O_3 
REMARK    2  A    between atoms: C_2  and  C_4 
REMARK    3  A    between atoms: C_6  and  N_7 
REMARK       I    between atoms: N_7  and  C_8 
REMARK    4  A    between atoms: C_8  and  C_9 
REMARK    5  A    between atoms: C_12  and  C_13 
REMARK    6  A    between atoms: C_18  and  C_19 
ROOT
HETATM    1  C   UNL     1      41.517 -14.819   0.461  1.00  0.00     0.096 A 
HETATM    2  C   UNL     1      41.050 -13.545   0.199  1.00  0.00     0.138 A 
HETATM    3  N   UNL     1      40.408 -13.624  -1.013  1.00  0.00    -0.240 N 
HETATM    4  C   UNL     1      39.703 -12.531  -1.655  1.00  0.00     0.221 C 
HETATM    5  C   UNL     1      39.516 -11.359  -0.673  1.00  0.00     0.067 C 
HETATM    6  C   UNL     1      40.721 -11.109   0.251  1.00  0.00     0.125 C 
HETATM    7  N   UNL     1      41.119 -12.374   0.890  1.00  0.00    -0.365 N 
HETATM    8  N   UNL     1      40.435 -14.847  -1.563  1.00  0.00    -0.181 NA
HETATM    9  C   UNL     1      41.148 -15.562  -0.686  1.00  0.00     0.160 A 
HETATM   10  H   UNL     1      41.897 -12.241   1.541  1.00  0.00     0.162 HD
ENDROOT
BRANCH   1  11
HETATM   11  C   UNL     1      42.207 -15.332   1.633  1.00  0.00     0.261 C 
HETATM   12  N   UNL     1      41.969 -16.676   1.853  1.00  0.00    -0.323 N 
HETATM   13  H   UNL     1      41.416 -17.138   1.140  1.00  0.00     0.169 HD
HETATM   14  O   UNL     1      42.957 -14.613   2.281  1.00  0.00    -0.267 OA
BRANCH  12  15
HETATM   15  C   UNL     1      42.528 -17.501   2.849  1.00  0.00     0.035 A 
HETATM   16  C   UNL     1      43.386 -18.572   2.583  1.00  0.00     0.039 A 
HETATM   17  C   UNL     1      43.888 -19.374   3.624  1.00  0.00    -0.028 A 
HETATM   18  C   UNL     1      43.504 -19.092   4.944  1.00  0.00     0.010 A 
HETATM   19  C   UNL     1      42.661 -18.017   5.218  1.00  0.00     0.003 A 
HETATM   20  C   UNL     1      42.181 -17.223   4.175  1.00  0.00     0.029 A 
BRANCH  17  21
HETATM   21  C   UNL     1      44.795 -20.543   3.305  1.00  0.00     0.147 C 
HETATM   22  C   UNL     1      44.285 -21.355   2.123  1.00  0.00     0.044 C 
BRANCH  21  23
HETATM   23  O   UNL     1      44.918 -21.403   4.436  1.00  0.00    -0.391 OA
HETATM   24  H   UNL     1      44.353 -21.028   5.133  1.00  0.00     0.210 HD
ENDBRANCH  21  23
ENDBRANCH  17  21
ENDBRANCH  12  15
ENDBRANCH   1  11
BRANCH   4  25
HETATM   25  C   UNL     1      40.376 -12.147  -2.955  1.00  0.00     0.409 C 
HETATM   26  F   UNL     1      40.259 -10.842  -3.263  1.00  0.00    -0.169 F 
HETATM   27  F   UNL     1      41.694 -12.449  -2.957  1.00  0.00    -0.169 F 
HETATM   28  F   UNL     1      39.831 -12.849  -3.984  1.00  0.00    -0.169 F 
ENDBRANCH   4  25
BRANCH   6  29
HETATM   29  C   UNL     1      41.848 -10.341  -0.398  1.00  0.00     0.005 A 
HETATM   30  S   UNL     1      41.608  -8.702  -0.864  1.00  0.00    -0.104 SA
HETATM   31  C   UNL     1      43.202  -8.561  -1.459  1.00  0.00     0.050 A 
HETATM   32  C   UNL     1      43.922  -9.721  -1.287  1.00  0.00     0.008 A 
HETATM   33  C   UNL     1      43.146 -10.742  -0.663  1.00  0.00     0.017 A 
ENDBRANCH   6  29
TORSDOF 6
ENDMDL
