MODEL 1
REMARK VINA RESULT:      -7.7      0.000      0.000
REMARK  14 active torsions:
REMARK  status: ('A' for Active; 'I' for Inactive)
REMARK    1  A    between atoms: C_2  and  O_3 
REMARK    2  A    between atoms: O_3  and  C_4 
REMARK    3  A    between atoms: C_5  and  O_6 
REMARK    4  A    between atoms: C_9  and  C_10 
REMARK    5  A    between atoms: N_11  and  C_12 
REMARK    6  A    between atoms: C_12  and  C_13 
REMARK    7  A    between atoms: C_13  and  C_14 
REMARK    8  A    between atoms: C_14  and  N_15 
REMARK    9  A    between atoms: C_24  and  O_25 
REMARK   10  A    between atoms: C_26  and  C_27 
REMARK   11  A    between atoms: C_27  and  C_28 
REMARK   12  A    between atoms: C_32  and  O_33 
REMARK   13  A    between atoms: O_33  and  C_34 
REMARK   14  A    between atoms: C_34  and  C_35 
ROOT
HETATM    1  C   UNL     1      40.992 -13.513   1.566  1.00  0.00     0.161 C 
HETATM    2  N   UNL     1      41.710 -12.754   0.543  1.00  0.00    -0.333 N 
HETATM    3  C   UNL     1      41.861 -13.508  -0.607  1.00  0.00     0.278 C 
HETATM    4  O   UNL     1      42.313 -13.152  -1.680  1.00  0.00    -0.265 OA
HETATM    5  C   UNL     1      41.427 -14.883  -0.304  1.00  0.00     0.146 C 
HETATM    6  C   UNL     1      40.967 -14.879   0.952  1.00  0.00     0.059 C 
ENDROOT
BRANCH   6   7
HETATM    7  C   UNL     1      40.671 -16.128   1.677  1.00  0.00     0.193 C 
HETATM    8  O   UNL     1      39.517 -16.539   1.757  1.00  0.00    -0.287 OA
BRANCH   7   9
HETATM    9  C   UNL     1      41.780 -16.962   2.199  1.00  0.00     0.015 A 
HETATM   10  C   UNL     1      41.715 -17.363   3.539  1.00  0.00     0.025 A 
HETATM   11  C   UNL     1      42.732 -18.145   4.104  1.00  0.00    -0.028 A 
HETATM   12  C   UNL     1      42.640 -18.552   5.550  1.00  0.00     0.051 C 
HETATM   13  C   UNL     1      43.824 -18.539   3.313  1.00  0.00     0.074 A 
HETATM   14  C   UNL     1      43.897 -18.123   1.979  1.00  0.00     0.038 A 
HETATM   15  C   UNL     1      42.884 -17.328   1.424  1.00  0.00     0.018 A 
BRANCH  13  16
HETATM   16  O   UNL     1      44.751 -19.315   3.950  1.00  0.00    -0.350 OA
BRANCH  16  17
HETATM   17  C   UNL     1      45.314 -20.423   3.253  1.00  0.00     0.179 C 
BRANCH  17  18
HETATM   18  C   UNL     1      44.251 -21.524   3.106  1.00  0.00     0.002 C 
HETATM   19  C   UNL     1      44.013 -21.868   1.634  1.00  0.00     0.011 C 
HETATM   20  C   UNL     1      44.639 -22.787   3.877  1.00  0.00     0.011 C 
ENDBRANCH  17  18
ENDBRANCH  16  17
ENDBRANCH  13  16
ENDBRANCH   7   9
ENDBRANCH   6   7
BRANCH   1  21
HETATM   21  C   UNL     1      41.616 -13.437   2.941  1.00  0.00    -0.028 A 
HETATM   22  C   UNL     1      42.974 -13.731   3.158  1.00  0.00     0.012 A 
HETATM   23  C   UNL     1      43.507 -13.690   4.447  1.00  0.00     0.040 A 
HETATM   24  C   UNL     1      42.678 -13.395   5.521  1.00  0.00     0.099 A 
HETATM   25  C   UNL     1      41.317 -13.144   5.344  1.00  0.00     0.102 A 
HETATM   26  C   UNL     1      40.798 -13.134   4.049  1.00  0.00     0.049 A 
BRANCH  24  27
HETATM   27  O   UNL     1      43.226 -13.382   6.773  1.00  0.00    -0.358 OA
HETATM   28  H   UNL     1      43.019 -12.501   7.141  1.00  0.00     0.218 HD
ENDBRANCH  24  27
BRANCH  25  29
HETATM   29  O   UNL     1      40.600 -12.922   6.491  1.00  0.00    -0.349 OA
BRANCH  29  30
HETATM   30  C   UNL     1      39.897 -11.677   6.560  1.00  0.00     0.171 C 
HETATM   31  C   UNL     1      39.582 -11.384   8.015  1.00  0.00     0.034 C 
ENDBRANCH  29  30
ENDBRANCH  25  29
ENDBRANCH   1  21
BRANCH   5  32
HETATM   32  O   UNL     1      41.549 -15.919  -1.176  1.00  0.00    -0.355 OA
HETATM   33  H   UNL     1      41.478 -15.552  -2.078  1.00  0.00     0.218 HD
ENDBRANCH   5  32
BRANCH   2  34
HETATM   34  C   UNL     1      41.828 -11.302   0.546  1.00  0.00     0.129 C 
BRANCH  34  35
HETATM   35  C   UNL     1      40.495 -10.554   0.482  1.00  0.00     0.048 C 
BRANCH  35  36
HETATM   36  C   UNL     1      39.786 -10.493  -0.873  1.00  0.00     0.236 C 
BRANCH  36  37
HETATM   37  N   UNL     1      39.341 -11.809  -1.473  1.00  0.00    -0.067 N 
HETATM   38  H   UNL     1      40.144 -12.434  -1.316  1.00  0.00     0.280 HD
HETATM   39  C   UNL     1      38.189 -12.499  -0.751  1.00  0.00     0.261 C 
HETATM   40  C   UNL     1      37.988 -13.905  -1.336  1.00  0.00     0.195 C 
HETATM   41  O   UNL     1      37.771 -13.852  -2.751  1.00  0.00    -0.388 OA
HETATM   42  C   UNL     1      38.879 -13.264  -3.441  1.00  0.00     0.195 C 
HETATM   43  C   UNL     1      39.109 -11.821  -2.977  1.00  0.00     0.261 C 
ENDBRANCH  36  37
ENDBRANCH  35  36
ENDBRANCH  34  35
ENDBRANCH   2  34
TORSDOF 14
ENDMDL
MODEL 2
REMARK VINA RESULT:      -7.6      2.172      6.259
REMARK  14 active torsions:
REMARK  status: ('A' for Active; 'I' for Inactive)
REMARK    1  A    between atoms: C_2  and  O_3 
REMARK    2  A    between atoms: O_3  and  C_4 
REMARK    3  A    between atoms: C_5  and  O_6 
REMARK    4  A    between atoms: C_9  and  C_10 
REMARK    5  A    between atoms: N_11  and  C_12 
REMARK    6  A    between atoms: C_12  and  C_13 
REMARK    7  A    between atoms: C_13  and  C_14 
REMARK    8  A    between atoms: C_14  and  N_15 
REMARK    9  A    between atoms: C_24  and  O_25 
REMARK   10  A    between atoms: C_26  and  C_27 
REMARK   11  A    between atoms: C_27  and  C_28 
REMARK   12  A    between atoms: C_32  and  O_33 
REMARK   13  A    between atoms: O_33  and  C_34 
REMARK   14  A    between atoms: C_34  and  C_35 
ROOT
HETATM    1  C   UNL     1      41.141 -12.641   3.197  1.00  0.00     0.161 C 
HETATM    2  N   UNL     1      39.905 -12.490   3.964  1.00  0.00    -0.333 N 
HETATM    3  C   UNL     1      40.131 -12.746   5.305  1.00  0.00     0.278 C 
HETATM    4  O   UNL     1      39.353 -12.610   6.233  1.00  0.00    -0.265 OA
HETATM    5  C   UNL     1      41.494 -13.288   5.437  1.00  0.00     0.146 C 
HETATM    6  C   UNL     1      42.047 -13.255   4.219  1.00  0.00     0.059 C 
ENDROOT
BRANCH   6   7
HETATM    7  C   UNL     1      43.318 -13.939   3.923  1.00  0.00     0.193 C 
HETATM    8  O   UNL     1      44.369 -13.307   3.893  1.00  0.00    -0.287 OA
BRANCH   7   9
HETATM    9  C   UNL     1      43.352 -15.416   3.791  1.00  0.00     0.015 A 
HETATM   10  C   UNL     1      43.481 -15.950   2.503  1.00  0.00     0.025 A 
HETATM   11  C   UNL     1      43.511 -17.336   2.301  1.00  0.00    -0.028 A 
HETATM   12  C   UNL     1      43.640 -17.880   0.903  1.00  0.00     0.051 C 
HETATM   13  C   UNL     1      43.419 -18.200   3.405  1.00  0.00     0.074 A 
HETATM   14  C   UNL     1      43.273 -17.666   4.689  1.00  0.00     0.038 A 
HETATM   15  C   UNL     1      43.227 -16.279   4.884  1.00  0.00     0.018 A 
BRANCH  13  16
HETATM   16  O   UNL     1      43.477 -19.532   3.105  1.00  0.00    -0.350 OA
BRANCH  16  17
HETATM   17  C   UNL     1      44.636 -20.271   3.480  1.00  0.00     0.179 C 
BRANCH  17  18
HETATM   18  C   UNL     1      44.671 -21.594   2.697  1.00  0.00     0.002 C 
HETATM   19  C   UNL     1      44.577 -22.796   3.639  1.00  0.00     0.011 C 
HETATM   20  C   UNL     1      43.551 -21.661   1.657  1.00  0.00     0.011 C 
ENDBRANCH  17  18
ENDBRANCH  16  17
ENDBRANCH  13  16
ENDBRANCH   7   9
ENDBRANCH   6   7
BRANCH   1  21
HETATM   21  C   UNL     1      40.980 -13.435   1.920  1.00  0.00    -0.028 A 
HETATM   22  C   UNL     1      40.265 -14.645   1.882  1.00  0.00     0.012 A 
HETATM   23  C   UNL     1      40.171 -15.373   0.696  1.00  0.00     0.040 A 
HETATM   24  C   UNL     1      40.822 -14.913  -0.442  1.00  0.00     0.099 A 
HETATM   25  C   UNL     1      41.578 -13.741  -0.425  1.00  0.00     0.102 A 
HETATM   26  C   UNL     1      41.627 -12.988   0.749  1.00  0.00     0.049 A 
BRANCH  24  27
HETATM   27  O   UNL     1      40.727 -15.659  -1.583  1.00  0.00    -0.358 OA
HETATM   28  H   UNL     1      39.774 -15.848  -1.694  1.00  0.00     0.218 HD
ENDBRANCH  24  27
BRANCH  25  29
HETATM   29  O   UNL     1      42.216 -13.429  -1.597  1.00  0.00    -0.349 OA
BRANCH  29  30
HETATM   30  C   UNL     1      41.772 -12.238  -2.255  1.00  0.00     0.171 C 
HETATM   31  C   UNL     1      41.884 -12.446  -3.754  1.00  0.00     0.034 C 
ENDBRANCH  29  30
ENDBRANCH  25  29
ENDBRANCH   1  21
BRANCH   5  32
HETATM   32  O   UNL     1      42.006 -13.757   6.606  1.00  0.00    -0.355 OA
HETATM   33  H   UNL     1      42.602 -14.499   6.386  1.00  0.00     0.218 HD
ENDBRANCH   5  32
BRANCH   2  34
HETATM   34  C   UNL     1      38.748 -11.740   3.495  1.00  0.00     0.129 C 
BRANCH  34  35
HETATM   35  C   UNL     1      38.999 -10.245   3.290  1.00  0.00     0.048 C 
BRANCH  35  36
HETATM   36  C   UNL     1      38.614  -9.302   4.434  1.00  0.00     0.236 C 
BRANCH  36  37
HETATM   37  N   UNL     1      39.385  -9.443   5.727  1.00  0.00    -0.067 N 
HETATM   38  H   UNL     1      39.270 -10.437   5.973  1.00  0.00     0.280 HD
HETATM   39  C   UNL     1      40.894  -9.263   5.611  1.00  0.00     0.261 C 
HETATM   40  C   UNL     1      41.558  -9.640   6.943  1.00  0.00     0.195 C 
HETATM   41  O   UNL     1      41.016  -8.877   8.027  1.00  0.00    -0.388 OA
HETATM   42  C   UNL     1      39.609  -9.093   8.183  1.00  0.00     0.195 C 
HETATM   43  C   UNL     1      38.847  -8.669   6.921  1.00  0.00     0.261 C 
ENDBRANCH  36  37
ENDBRANCH  35  36
ENDBRANCH  34  35
ENDBRANCH   2  34
TORSDOF 14
ENDMDL
MODEL 3
REMARK VINA RESULT:      -7.5      2.078      4.792
REMARK  14 active torsions:
REMARK  status: ('A' for Active; 'I' for Inactive)
REMARK    1  A    between atoms: C_2  and  O_3 
REMARK    2  A    between atoms: O_3  and  C_4 
REMARK    3  A    between atoms: C_5  and  O_6 
REMARK    4  A    between atoms: C_9  and  C_10 
REMARK    5  A    between atoms: N_11  and  C_12 
REMARK    6  A    between atoms: C_12  and  C_13 
REMARK    7  A    between atoms: C_13  and  C_14 
REMARK    8  A    between atoms: C_14  and  N_15 
REMARK    9  A    between atoms: C_24  and  O_25 
REMARK   10  A    between atoms: C_26  and  C_27 
REMARK   11  A    between atoms: C_27  and  C_28 
REMARK   12  A    between atoms: C_32  and  O_33 
REMARK   13  A    between atoms: O_33  and  C_34 
REMARK   14  A    between atoms: C_34  and  C_35 
ROOT
HETATM    1  C   UNL     1      40.777 -12.083   2.962  1.00  0.00     0.161 C 
HETATM    2  N   UNL     1      40.114 -11.038   2.183  1.00  0.00    -0.333 N 
HETATM    3  C   UNL     1      39.378 -10.208   3.010  1.00  0.00     0.278 C 
HETATM    4  O   UNL     1      38.792  -9.183   2.710  1.00  0.00    -0.265 OA
HETATM    5  C   UNL     1      39.360 -10.811   4.353  1.00  0.00     0.146 C 
HETATM    6  C   UNL     1      40.135 -11.901   4.302  1.00  0.00     0.059 C 
ENDROOT
BRANCH   6   7
HETATM    7  C   UNL     1      40.162 -12.889   5.396  1.00  0.00     0.193 C 
HETATM    8  O   UNL     1      39.239 -12.946   6.202  1.00  0.00    -0.287 OA
BRANCH   7   9
HETATM    9  C   UNL     1      41.240 -13.907   5.447  1.00  0.00     0.015 A 
HETATM   10  C   UNL     1      40.880 -15.243   5.240  1.00  0.00     0.025 A 
HETATM   11  C   UNL     1      41.843 -16.261   5.283  1.00  0.00    -0.028 A 
HETATM   12  C   UNL     1      41.424 -17.691   5.067  1.00  0.00     0.051 C 
HETATM   13  C   UNL     1      43.187 -15.933   5.528  1.00  0.00     0.074 A 
HETATM   14  C   UNL     1      43.543 -14.599   5.751  1.00  0.00     0.038 A 
HETATM   15  C   UNL     1      42.573 -13.588   5.723  1.00  0.00     0.018 A 
BRANCH  13  16
HETATM   16  O   UNL     1      44.051 -16.992   5.531  1.00  0.00    -0.350 OA
BRANCH  16  17
HETATM   17  C   UNL     1      44.528 -17.486   6.779  1.00  0.00     0.179 C 
BRANCH  17  18
HETATM   18  C   UNL     1      44.724 -19.008   6.682  1.00  0.00     0.002 C 
HETATM   19  C   UNL     1      43.644 -19.755   7.468  1.00  0.00     0.011 C 
HETATM   20  C   UNL     1      44.728 -19.482   5.227  1.00  0.00     0.011 C 
ENDBRANCH  17  18
ENDBRANCH  16  17
ENDBRANCH  13  16
ENDBRANCH   7   9
ENDBRANCH   6   7
BRANCH   1  21
HETATM   21  C   UNL     1      40.648 -13.468   2.369  1.00  0.00    -0.028 A 
HETATM   22  C   UNL     1      39.422 -14.155   2.343  1.00  0.00     0.012 A 
HETATM   23  C   UNL     1      39.348 -15.448   1.826  1.00  0.00     0.040 A 
HETATM   24  C   UNL     1      40.504 -16.070   1.370  1.00  0.00     0.099 A 
HETATM   25  C   UNL     1      41.744 -15.433   1.425  1.00  0.00     0.102 A 
HETATM   26  C   UNL     1      41.806 -14.120   1.895  1.00  0.00     0.049 A 
BRANCH  24  27
HETATM   27  O   UNL     1      40.401 -17.344   0.888  1.00  0.00    -0.358 OA
HETATM   28  H   UNL     1      39.852 -17.827   1.537  1.00  0.00     0.218 HD
ENDBRANCH  24  27
BRANCH  25  29
HETATM   29  O   UNL     1      42.812 -16.177   0.997  1.00  0.00    -0.349 OA
BRANCH  29  30
HETATM   30  C   UNL     1      43.694 -16.654   2.018  1.00  0.00     0.171 C 
HETATM   31  C   UNL     1      43.883 -18.148   1.829  1.00  0.00     0.034 C 
ENDBRANCH  29  30
ENDBRANCH  25  29
ENDBRANCH   1  21
BRANCH   5  32
HETATM   32  O   UNL     1      38.629 -10.319   5.389  1.00  0.00    -0.355 OA
HETATM   33  H   UNL     1      39.047  -9.481   5.669  1.00  0.00     0.218 HD
ENDBRANCH   5  32
BRANCH   2  34
HETATM   34  C   UNL     1      40.527 -10.640   0.844  1.00  0.00     0.129 C 
BRANCH  34  35
HETATM   35  C   UNL     1      39.448 -10.794  -0.229  1.00  0.00     0.048 C 
BRANCH  35  36
HETATM   36  C   UNL     1      39.084 -12.216  -0.664  1.00  0.00     0.236 C 
BRANCH  36  37
HETATM   37  N   UNL     1      40.085 -12.943  -1.535  1.00  0.00    -0.067 N 
HETATM   38  H   UNL     1      40.942 -12.957  -0.964  1.00  0.00     0.280 HD
HETATM   39  C   UNL     1      39.785 -14.416  -1.786  1.00  0.00     0.261 C 
HETATM   40  C   UNL     1      40.979 -15.068  -2.498  1.00  0.00     0.195 C 
HETATM   41  O   UNL     1      41.298 -14.379  -3.712  1.00  0.00    -0.388 OA
HETATM   42  C   UNL     1      41.646 -13.010  -3.475  1.00  0.00     0.195 C 
HETATM   43  C   UNL     1      40.478 -12.252  -2.833  1.00  0.00     0.261 C 
ENDBRANCH  36  37
ENDBRANCH  35  36
ENDBRANCH  34  35
ENDBRANCH   2  34
TORSDOF 14
ENDMDL
MODEL 4
REMARK VINA RESULT:      -7.4      3.106      7.989
REMARK  14 active torsions:
REMARK  status: ('A' for Active; 'I' for Inactive)
REMARK    1  A    between atoms: C_2  and  O_3 
REMARK    2  A    between atoms: O_3  and  C_4 
REMARK    3  A    between atoms: C_5  and  O_6 
REMARK    4  A    between atoms: C_9  and  C_10 
REMARK    5  A    between atoms: N_11  and  C_12 
REMARK    6  A    between atoms: C_12  and  C_13 
REMARK    7  A    between atoms: C_13  and  C_14 
REMARK    8  A    between atoms: C_14  and  N_15 
REMARK    9  A    between atoms: C_24  and  O_25 
REMARK   10  A    between atoms: C_26  and  C_27 
REMARK   11  A    between atoms: C_27  and  C_28 
REMARK   12  A    between atoms: C_32  and  O_33 
REMARK   13  A    between atoms: O_33  and  C_34 
REMARK   14  A    between atoms: C_34  and  C_35 
ROOT
HETATM    1  C   UNL     1      42.870 -14.934   4.532  1.00  0.00     0.161 C 
HETATM    2  N   UNL     1      43.715 -15.093   5.715  1.00  0.00    -0.333 N 
HETATM    3  C   UNL     1      44.037 -16.424   5.907  1.00  0.00     0.278 C 
HETATM    4  O   UNL     1      44.804 -16.896   6.727  1.00  0.00    -0.265 OA
HETATM    5  C   UNL     1      43.233 -17.223   4.967  1.00  0.00     0.146 C 
HETATM    6  C   UNL     1      42.544 -16.360   4.212  1.00  0.00     0.059 C 
ENDROOT
BRANCH   6   7
HETATM    7  C   UNL     1      41.453 -16.801   3.324  1.00  0.00     0.193 C 
HETATM    8  O   UNL     1      40.777 -17.783   3.613  1.00  0.00    -0.287 OA
BRANCH   7   9
HETATM    9  C   UNL     1      41.082 -15.981   2.144  1.00  0.00     0.015 A 
HETATM   10  C   UNL     1      39.773 -15.488   2.084  1.00  0.00     0.025 A 
HETATM   11  C   UNL     1      39.348 -14.714   0.995  1.00  0.00    -0.028 A 
HETATM   12  C   UNL     1      37.931 -14.206   0.952  1.00  0.00     0.051 C 
HETATM   13  C   UNL     1      40.249 -14.423  -0.042  1.00  0.00     0.074 A 
HETATM   14  C   UNL     1      41.552 -14.930   0.011  1.00  0.00     0.038 A 
HETATM   15  C   UNL     1      41.966 -15.717   1.095  1.00  0.00     0.018 A 
BRANCH  13  16
HETATM   16  O   UNL     1      39.745 -13.646  -1.047  1.00  0.00    -0.350 OA
BRANCH  16  17
HETATM   17  C   UNL     1      40.367 -13.691  -2.328  1.00  0.00     0.179 C 
BRANCH  17  18
HETATM   18  C   UNL     1      39.457 -14.449  -3.309  1.00  0.00     0.002 C 
HETATM   19  C   UNL     1      39.903 -15.905  -3.463  1.00  0.00     0.011 C 
HETATM   20  C   UNL     1      37.993 -14.398  -2.870  1.00  0.00     0.011 C 
ENDBRANCH  17  18
ENDBRANCH  16  17
ENDBRANCH  13  16
ENDBRANCH   7   9
ENDBRANCH   6   7
BRANCH   1  21
HETATM   21  C   UNL     1      41.675 -14.033   4.746  1.00  0.00    -0.028 A 
HETATM   22  C   UNL     1      40.645 -14.364   5.644  1.00  0.00     0.012 A 
HETATM   23  C   UNL     1      39.537 -13.529   5.785  1.00  0.00     0.040 A 
HETATM   24  C   UNL     1      39.437 -12.385   5.004  1.00  0.00     0.099 A 
HETATM   25  C   UNL     1      40.419 -12.053   4.070  1.00  0.00     0.102 A 
HETATM   26  C   UNL     1      41.551 -12.862   3.968  1.00  0.00     0.049 A 
BRANCH  24  27
HETATM   27  O   UNL     1      38.330 -11.598   5.152  1.00  0.00    -0.358 OA
HETATM   28  H   UNL     1      38.064 -11.694   6.088  1.00  0.00     0.218 HD
ENDBRANCH  24  27
BRANCH  25  29
HETATM   29  O   UNL     1      40.173 -10.930   3.324  1.00  0.00    -0.349 OA
BRANCH  29  30
HETATM   30  C   UNL     1      39.795 -11.152   1.962  1.00  0.00     0.171 C 
HETATM   31  C   UNL     1      41.019 -10.961   1.085  1.00  0.00     0.034 C 
ENDBRANCH  29  30
ENDBRANCH  25  29
ENDBRANCH   1  21
BRANCH   5  32
HETATM   32  O   UNL     1      43.212 -18.583   4.962  1.00  0.00    -0.355 OA
HETATM   33  H   UNL     1      43.310 -18.879   5.887  1.00  0.00     0.218 HD
ENDBRANCH   5  32
BRANCH   2  34
HETATM   34  C   UNL     1      44.481 -14.008   6.314  1.00  0.00     0.129 C 
BRANCH  34  35
HETATM   35  C   UNL     1      44.297 -13.856   7.825  1.00  0.00     0.048 C 
BRANCH  35  36
HETATM   36  C   UNL     1      44.944 -12.641   8.495  1.00  0.00     0.236 C 
BRANCH  36  37
HETATM   37  N   UNL     1      44.109 -11.892   9.510  1.00  0.00    -0.067 N 
HETATM   38  H   UNL     1      43.595 -12.637  10.002  1.00  0.00     0.280 HD
HETATM   39  C   UNL     1      44.894 -11.195  10.615  1.00  0.00     0.261 C 
HETATM   40  C   UNL     1      43.921 -10.663  11.676  1.00  0.00     0.195 C 
HETATM   41  O   UNL     1      42.942  -9.794  11.094  1.00  0.00    -0.388 OA
HETATM   42  C   UNL     1      42.156 -10.463  10.100  1.00  0.00     0.195 C 
HETATM   43  C   UNL     1      43.040 -10.965   8.952  1.00  0.00     0.261 C 
ENDBRANCH  36  37
ENDBRANCH  35  36
ENDBRANCH  34  35
ENDBRANCH   2  34
TORSDOF 14
ENDMDL
MODEL 5
REMARK VINA RESULT:      -7.4      1.590      4.744
REMARK  14 active torsions:
REMARK  status: ('A' for Active; 'I' for Inactive)
REMARK    1  A    between atoms: C_2  and  O_3 
REMARK    2  A    between atoms: O_3  and  C_4 
REMARK    3  A    between atoms: C_5  and  O_6 
REMARK    4  A    between atoms: C_9  and  C_10 
REMARK    5  A    between atoms: N_11  and  C_12 
REMARK    6  A    between atoms: C_12  and  C_13 
REMARK    7  A    between atoms: C_13  and  C_14 
REMARK    8  A    between atoms: C_14  and  N_15 
REMARK    9  A    between atoms: C_24  and  O_25 
REMARK   10  A    between atoms: C_26  and  C_27 
REMARK   11  A    between atoms: C_27  and  C_28 
REMARK   12  A    between atoms: C_32  and  O_33 
REMARK   13  A    between atoms: O_33  and  C_34 
REMARK   14  A    between atoms: C_34  and  C_35 
ROOT
HETATM    1  C   UNL     1      41.135 -12.664   3.054  1.00  0.00     0.161 C 
HETATM    2  N   UNL     1      39.903 -12.451   3.814  1.00  0.00    -0.333 N 
HETATM    3  C   UNL     1      40.134 -12.609   5.169  1.00  0.00     0.278 C 
HETATM    4  O   UNL     1      39.361 -12.401   6.087  1.00  0.00    -0.265 OA
HETATM    5  C   UNL     1      41.496 -13.144   5.335  1.00  0.00     0.146 C 
HETATM    6  C   UNL     1      42.043 -13.205   4.115  1.00  0.00     0.059 C 
ENDROOT
BRANCH   6   7
HETATM    7  C   UNL     1      43.311 -13.914   3.864  1.00  0.00     0.193 C 
HETATM    8  O   UNL     1      44.372 -13.298   3.849  1.00  0.00    -0.287 OA
BRANCH   7   9
HETATM    9  C   UNL     1      43.323 -15.394   3.762  1.00  0.00     0.015 A 
HETATM   10  C   UNL     1      43.527 -15.954   2.495  1.00  0.00     0.025 A 
HETATM   11  C   UNL     1      43.542 -17.344   2.320  1.00  0.00    -0.028 A 
HETATM   12  C   UNL     1      43.751 -17.918   0.944  1.00  0.00     0.051 C 
HETATM   13  C   UNL     1      43.361 -18.185   3.431  1.00  0.00     0.074 A 
HETATM   14  C   UNL     1      43.142 -17.624   4.694  1.00  0.00     0.038 A 
HETATM   15  C   UNL     1      43.111 -16.232   4.860  1.00  0.00     0.018 A 
BRANCH  13  16
HETATM   16  O   UNL     1      43.413 -19.523   3.160  1.00  0.00    -0.350 OA
BRANCH  16  17
HETATM   17  C   UNL     1      44.611 -20.238   3.452  1.00  0.00     0.179 C 
BRANCH  17  18
HETATM   18  C   UNL     1      44.626 -21.552   2.653  1.00  0.00     0.002 C 
HETATM   19  C   UNL     1      44.644 -22.765   3.586  1.00  0.00     0.011 C 
HETATM   20  C   UNL     1      43.431 -21.645   1.702  1.00  0.00     0.011 C 
ENDBRANCH  17  18
ENDBRANCH  16  17
ENDBRANCH  13  16
ENDBRANCH   7   9
ENDBRANCH   6   7
BRANCH   1  21
HETATM   21  C   UNL     1      40.964 -13.550   1.841  1.00  0.00    -0.028 A 
HETATM   22  C   UNL     1      40.346 -14.810   1.920  1.00  0.00     0.012 A 
HETATM   23  C   UNL     1      40.243 -15.618   0.789  1.00  0.00     0.040 A 
HETATM   24  C   UNL     1      40.790 -15.186  -0.413  1.00  0.00     0.099 A 
HETATM   25  C   UNL     1      41.451 -13.962  -0.514  1.00  0.00     0.102 A 
HETATM   26  C   UNL     1      41.507 -13.133   0.607  1.00  0.00     0.049 A 
BRANCH  24  27
HETATM   27  O   UNL     1      40.689 -16.010  -1.499  1.00  0.00    -0.358 OA
HETATM   28  H   UNL     1      39.731 -16.115  -1.660  1.00  0.00     0.218 HD
ENDBRANCH  24  27
BRANCH  25  29
HETATM   29  O   UNL     1      41.994 -13.680  -1.740  1.00  0.00    -0.349 OA
BRANCH  29  30
HETATM   30  C   UNL     1      41.658 -12.406  -2.298  1.00  0.00     0.171 C 
HETATM   31  C   UNL     1      42.875 -11.504  -2.208  1.00  0.00     0.034 C 
ENDBRANCH  29  30
ENDBRANCH  25  29
ENDBRANCH   1  21
BRANCH   5  32
HETATM   32  O   UNL     1      42.012 -13.529   6.533  1.00  0.00    -0.355 OA
HETATM   33  H   UNL     1      41.958 -14.503   6.575  1.00  0.00     0.218 HD
ENDBRANCH   5  32
BRANCH   2  34
HETATM   34  C   UNL     1      38.747 -11.733   3.296  1.00  0.00     0.129 C 
BRANCH  34  35
HETATM   35  C   UNL     1      39.070 -10.698   2.216  1.00  0.00     0.048 C 
BRANCH  35  36
HETATM   36  C   UNL     1      37.980 -10.392   1.185  1.00  0.00     0.236 C 
BRANCH  36  37
HETATM   37  N   UNL     1      38.094 -11.082  -0.157  1.00  0.00    -0.067 N 
HETATM   38  H   UNL     1      39.108 -11.113  -0.331  1.00  0.00     0.280 HD
HETATM   39  C   UNL     1      37.670 -12.546  -0.177  1.00  0.00     0.261 C 
HETATM   40  C   UNL     1      38.034 -13.165  -1.533  1.00  0.00     0.195 C 
HETATM   41  O   UNL     1      37.448 -12.430  -2.614  1.00  0.00    -0.388 OA
HETATM   42  C   UNL     1      37.895 -11.070  -2.640  1.00  0.00     0.195 C 
HETATM   43  C   UNL     1      37.504 -10.341  -1.348  1.00  0.00     0.261 C 
ENDBRANCH  36  37
ENDBRANCH  35  36
ENDBRANCH  34  35
ENDBRANCH   2  34
TORSDOF 14
ENDMDL
MODEL 6
REMARK VINA RESULT:      -7.4      1.892      2.825
REMARK  14 active torsions:
REMARK  status: ('A' for Active; 'I' for Inactive)
REMARK    1  A    between atoms: C_2  and  O_3 
REMARK    2  A    between atoms: O_3  and  C_4 
REMARK    3  A    between atoms: C_5  and  O_6 
REMARK    4  A    between atoms: C_9  and  C_10 
REMARK    5  A    between atoms: N_11  and  C_12 
REMARK    6  A    between atoms: C_12  and  C_13 
REMARK    7  A    between atoms: C_13  and  C_14 
REMARK    8  A    between atoms: C_14  and  N_15 
REMARK    9  A    between atoms: C_24  and  O_25 
REMARK   10  A    between atoms: C_26  and  C_27 
REMARK   11  A    between atoms: C_27  and  C_28 
REMARK   12  A    between atoms: C_32  and  O_33 
REMARK   13  A    between atoms: O_33  and  C_34 
REMARK   14  A    between atoms: C_34  and  C_35 
ROOT
HETATM    1  C   UNL     1      40.155 -13.181   2.430  1.00  0.00     0.161 C 
HETATM    2  N   UNL     1      39.558 -12.078   1.677  1.00  0.00    -0.333 N 
HETATM    3  C   UNL     1      40.451 -11.590   0.740  1.00  0.00     0.278 C 
HETATM    4  O   UNL     1      40.248 -10.752  -0.120  1.00  0.00    -0.265 OA
HETATM    5  C   UNL     1      41.758 -12.221   0.990  1.00  0.00     0.146 C 
HETATM    6  C   UNL     1      41.583 -13.102   1.982  1.00  0.00     0.059 C 
ENDROOT
BRANCH   6   7
HETATM    7  C   UNL     1      42.720 -13.747   2.662  1.00  0.00     0.193 C 
HETATM    8  O   UNL     1      43.490 -13.082   3.348  1.00  0.00    -0.287 OA
BRANCH   7   9
HETATM    9  C   UNL     1      42.863 -15.223   2.628  1.00  0.00     0.015 A 
HETATM   10  C   UNL     1      43.132 -15.876   3.836  1.00  0.00     0.025 A 
HETATM   11  C   UNL     1      43.289 -17.268   3.881  1.00  0.00    -0.028 A 
HETATM   12  C   UNL     1      43.589 -17.941   5.193  1.00  0.00     0.051 C 
HETATM   13  C   UNL     1      43.164 -18.017   2.699  1.00  0.00     0.074 A 
HETATM   14  C   UNL     1      42.911 -17.362   1.489  1.00  0.00     0.038 A 
HETATM   15  C   UNL     1      42.772 -15.968   1.449  1.00  0.00     0.018 A 
BRANCH  13  16
HETATM   16  O   UNL     1      43.314 -19.367   2.850  1.00  0.00    -0.350 OA
BRANCH  16  17
HETATM   17  C   UNL     1      44.565 -19.961   2.512  1.00  0.00     0.179 C 
BRANCH  17  18
HETATM   18  C   UNL     1      44.355 -21.457   2.222  1.00  0.00     0.002 C 
HETATM   19  C   UNL     1      44.495 -22.291   3.497  1.00  0.00     0.011 C 
HETATM   20  C   UNL     1      42.992 -21.718   1.577  1.00  0.00     0.011 C 
ENDBRANCH  17  18
ENDBRANCH  16  17
ENDBRANCH  13  16
ENDBRANCH   7   9
ENDBRANCH   6   7
BRANCH   1  21
HETATM   21  C   UNL     1      39.944 -13.090   3.925  1.00  0.00    -0.028 A 
HETATM   22  C   UNL     1      39.867 -14.236   4.735  1.00  0.00     0.012 A 
HETATM   23  C   UNL     1      39.630 -14.117   6.104  1.00  0.00     0.040 A 
HETATM   24  C   UNL     1      39.433 -12.858   6.658  1.00  0.00     0.099 A 
HETATM   25  C   UNL     1      39.457 -11.705   5.873  1.00  0.00     0.102 A 
HETATM   26  C   UNL     1      39.746 -11.824   4.513  1.00  0.00     0.049 A 
BRANCH  24  27
HETATM   27  O   UNL     1      39.183 -12.777   7.999  1.00  0.00    -0.358 OA
HETATM   28  H   UNL     1      38.329 -13.233   8.135  1.00  0.00     0.218 HD
ENDBRANCH  24  27
BRANCH  25  29
HETATM   29  O   UNL     1      39.191 -10.533   6.531  1.00  0.00    -0.349 OA
BRANCH  29  30
HETATM   30  C   UNL     1      40.152  -9.487   6.362  1.00  0.00     0.171 C 
HETATM   31  C   UNL     1      41.394  -9.840   7.160  1.00  0.00     0.034 C 
ENDBRANCH  29  30
ENDBRANCH  25  29
ENDBRANCH   1  21
BRANCH   5  32
HETATM   32  O   UNL     1      42.896 -11.884   0.327  1.00  0.00    -0.355 OA
HETATM   33  H   UNL     1      43.564 -12.568   0.525  1.00  0.00     0.218 HD
ENDBRANCH   5  32
BRANCH   2  34
HETATM   34  C   UNL     1      38.124 -11.844   1.586  1.00  0.00     0.129 C 
BRANCH  34  35
HETATM   35  C   UNL     1      37.432 -12.560   0.425  1.00  0.00     0.048 C 
BRANCH  35  36
HETATM   36  C   UNL     1      37.854 -14.004   0.136  1.00  0.00     0.236 C 
BRANCH  36  37
HETATM   37  N   UNL     1      38.628 -14.248  -1.141  1.00  0.00    -0.067 N 
HETATM   38  H   UNL     1      38.144 -15.049  -1.571  1.00  0.00     0.280 HD
HETATM   39  C   UNL     1      38.524 -13.147  -2.189  1.00  0.00     0.261 C 
HETATM   40  C   UNL     1      39.176 -13.621  -3.496  1.00  0.00     0.195 C 
HETATM   41  O   UNL     1      40.535 -14.021  -3.282  1.00  0.00    -0.388 OA
HETATM   42  C   UNL     1      40.634 -15.101  -2.347  1.00  0.00     0.195 C 
HETATM   43  C   UNL     1      40.074 -14.692  -0.978  1.00  0.00     0.261 C 
ENDBRANCH  36  37
ENDBRANCH  35  36
ENDBRANCH  34  35
ENDBRANCH   2  34
TORSDOF 14
ENDMDL
MODEL 7
REMARK VINA RESULT:      -7.4      2.551      5.423
REMARK  14 active torsions:
REMARK  status: ('A' for Active; 'I' for Inactive)
REMARK    1  A    between atoms: C_2  and  O_3 
REMARK    2  A    between atoms: O_3  and  C_4 
REMARK    3  A    between atoms: C_5  and  O_6 
REMARK    4  A    between atoms: C_9  and  C_10 
REMARK    5  A    between atoms: N_11  and  C_12 
REMARK    6  A    between atoms: C_12  and  C_13 
REMARK    7  A    between atoms: C_13  and  C_14 
REMARK    8  A    between atoms: C_14  and  N_15 
REMARK    9  A    between atoms: C_24  and  O_25 
REMARK   10  A    between atoms: C_26  and  C_27 
REMARK   11  A    between atoms: C_27  and  C_28 
REMARK   12  A    between atoms: C_32  and  O_33 
REMARK   13  A    between atoms: O_33  and  C_34 
REMARK   14  A    between atoms: C_34  and  C_35 
ROOT
HETATM    1  C   UNL     1      40.792 -13.414   0.178  1.00  0.00     0.161 C 
HETATM    2  N   UNL     1      40.628 -11.962   0.103  1.00  0.00    -0.333 N 
HETATM    3  C   UNL     1      40.059 -11.477   1.266  1.00  0.00     0.278 C 
HETATM    4  O   UNL     1      39.880 -10.314   1.582  1.00  0.00    -0.265 OA
HETATM    5  C   UNL     1      39.629 -12.631   2.074  1.00  0.00     0.146 C 
HETATM    6  C   UNL     1      40.022 -13.731   1.423  1.00  0.00     0.059 C 
ENDROOT
BRANCH   6   7
HETATM    7  C   UNL     1      39.557 -15.075   1.811  1.00  0.00     0.193 C 
HETATM    8  O   UNL     1      38.364 -15.357   1.756  1.00  0.00    -0.287 OA
BRANCH   7   9
HETATM    9  C   UNL     1      40.542 -16.133   2.143  1.00  0.00     0.015 A 
HETATM   10  C   UNL     1      40.949 -16.244   3.478  1.00  0.00     0.025 A 
HETATM   11  C   UNL     1      41.883 -17.214   3.865  1.00  0.00    -0.028 A 
HETATM   12  C   UNL     1      42.310 -17.303   5.306  1.00  0.00     0.051 C 
HETATM   13  C   UNL     1      42.411 -18.090   2.902  1.00  0.00     0.074 A 
HETATM   14  C   UNL     1      42.017 -17.967   1.565  1.00  0.00     0.038 A 
HETATM   15  C   UNL     1      41.094 -16.984   1.182  1.00  0.00     0.018 A 
BRANCH  13  16
HETATM   16  O   UNL     1      43.300 -19.011   3.382  1.00  0.00    -0.350 OA
BRANCH  16  17
HETATM   17  C   UNL     1      44.178 -19.661   2.466  1.00  0.00     0.179 C 
BRANCH  17  18
HETATM   18  C   UNL     1      44.896 -20.816   3.183  1.00  0.00     0.002 C 
HETATM   19  C   UNL     1      44.744 -20.702   4.702  1.00  0.00     0.011 C 
HETATM   20  C   UNL     1      44.382 -22.177   2.710  1.00  0.00     0.011 C 
ENDBRANCH  17  18
ENDBRANCH  16  17
ENDBRANCH  13  16
ENDBRANCH   7   9
ENDBRANCH   6   7
BRANCH   1  21
HETATM   21  C   UNL     1      40.340 -14.149  -1.063  1.00  0.00    -0.028 A 
HETATM   22  C   UNL     1      41.178 -15.054  -1.739  1.00  0.00     0.012 A 
HETATM   23  C   UNL     1      40.743 -15.683  -2.904  1.00  0.00     0.040 A 
HETATM   24  C   UNL     1      39.487 -15.382  -3.417  1.00  0.00     0.099 A 
HETATM   25  C   UNL     1      38.650 -14.455  -2.797  1.00  0.00     0.102 A 
HETATM   26  C   UNL     1      39.067 -13.866  -1.602  1.00  0.00     0.049 A 
BRANCH  24  27
HETATM   27  O   UNL     1      39.098 -16.002  -4.571  1.00  0.00    -0.358 OA
HETATM   28  H   UNL     1      39.203 -15.333  -5.276  1.00  0.00     0.218 HD
ENDBRANCH  24  27
BRANCH  25  29
HETATM   29  O   UNL     1      37.463 -14.206  -3.434  1.00  0.00    -0.349 OA
BRANCH  29  30
HETATM   30  C   UNL     1      37.022 -12.845  -3.433  1.00  0.00     0.171 C 
HETATM   31  C   UNL     1      36.264 -12.583  -4.721  1.00  0.00     0.034 C 
ENDBRANCH  29  30
ENDBRANCH  25  29
ENDBRANCH   1  21
BRANCH   5  32
HETATM   32  O   UNL     1      38.925 -12.518   3.232  1.00  0.00    -0.355 OA
HETATM   33  H   UNL     1      39.520 -12.123   3.898  1.00  0.00     0.218 HD
ENDBRANCH   5  32
BRANCH   2  34
HETATM   34  C   UNL     1      41.364 -11.111  -0.822  1.00  0.00     0.129 C 
BRANCH  34  35
HETATM   35  C   UNL     1      42.636 -11.741  -1.393  1.00  0.00     0.048 C 
BRANCH  35  36
HETATM   36  C   UNL     1      42.697 -11.955  -2.908  1.00  0.00     0.236 C 
BRANCH  36  37
HETATM   37  N   UNL     1      41.833 -11.054  -3.763  1.00  0.00    -0.067 N 
HETATM   38  H   UNL     1      41.585 -10.281  -3.131  1.00  0.00     0.280 HD
HETATM   39  C   UNL     1      42.549 -10.369  -4.921  1.00  0.00     0.261 C 
HETATM   40  C   UNL     1      41.612  -9.336  -5.563  1.00  0.00     0.195 C 
HETATM   41  O   UNL     1      40.384  -9.941  -5.984  1.00  0.00    -0.388 OA
HETATM   42  C   UNL     1      39.673 -10.529  -4.888  1.00  0.00     0.195 C 
HETATM   43  C   UNL     1      40.506 -11.635  -4.228  1.00  0.00     0.261 C 
ENDBRANCH  36  37
ENDBRANCH  35  36
ENDBRANCH  34  35
ENDBRANCH   2  34
TORSDOF 14
ENDMDL
MODEL 8
REMARK VINA RESULT:      -7.3      1.767      2.448
REMARK  14 active torsions:
REMARK  status: ('A' for Active; 'I' for Inactive)
REMARK    1  A    between atoms: C_2  and  O_3 
REMARK    2  A    between atoms: O_3  and  C_4 
REMARK    3  A    between atoms: C_5  and  O_6 
REMARK    4  A    between atoms: C_9  and  C_10 
REMARK    5  A    between atoms: N_11  and  C_12 
REMARK    6  A    between atoms: C_12  and  C_13 
REMARK    7  A    between atoms: C_13  and  C_14 
REMARK    8  A    between atoms: C_14  and  N_15 
REMARK    9  A    between atoms: C_24  and  O_25 
REMARK   10  A    between atoms: C_26  and  C_27 
REMARK   11  A    between atoms: C_27  and  C_28 
REMARK   12  A    between atoms: C_32  and  O_33 
REMARK   13  A    between atoms: O_33  and  C_34 
REMARK   14  A    between atoms: C_34  and  C_35 
ROOT
HETATM    1  C   UNL     1      40.963 -13.115   1.550  1.00  0.00     0.161 C 
HETATM    2  N   UNL     1      41.836 -12.677   0.461  1.00  0.00    -0.333 N 
HETATM    3  C   UNL     1      41.719 -13.524  -0.626  1.00  0.00     0.278 C 
HETATM    4  O   UNL     1      42.218 -13.396  -1.730  1.00  0.00    -0.265 OA
HETATM    5  C   UNL     1      40.915 -14.685  -0.209  1.00  0.00     0.146 C 
HETATM    6  C   UNL     1      40.519 -14.454   1.048  1.00  0.00     0.059 C 
ENDROOT
BRANCH   6   7
HETATM    7  C   UNL     1      39.897 -15.505   1.874  1.00  0.00     0.193 C 
HETATM    8  O   UNL     1      38.692 -15.722   1.795  1.00  0.00    -0.287 OA
BRANCH   7   9
HETATM    9  C   UNL     1      40.746 -16.393   2.706  1.00  0.00     0.015 A 
HETATM   10  C   UNL     1      40.606 -16.307   4.096  1.00  0.00     0.025 A 
HETATM   11  C   UNL     1      41.380 -17.108   4.946  1.00  0.00    -0.028 A 
HETATM   12  C   UNL     1      41.215 -16.986   6.438  1.00  0.00     0.051 C 
HETATM   13  C   UNL     1      42.302 -18.014   4.395  1.00  0.00     0.074 A 
HETATM   14  C   UNL     1      42.453 -18.087   3.006  1.00  0.00     0.038 A 
HETATM   15  C   UNL     1      41.687 -17.271   2.162  1.00  0.00     0.018 A 
BRANCH  13  16
HETATM   16  O   UNL     1      42.994 -18.762   5.305  1.00  0.00    -0.350 OA
BRANCH  16  17
HETATM   17  C   UNL     1      44.418 -18.697   5.307  1.00  0.00     0.179 C 
BRANCH  17  18
HETATM   18  C   UNL     1      44.897 -18.098   6.639  1.00  0.00     0.002 C 
HETATM   19  C   UNL     1      44.743 -16.575   6.646  1.00  0.00     0.011 C 
HETATM   20  C   UNL     1      44.148 -18.701   7.829  1.00  0.00     0.011 C 
ENDBRANCH  17  18
ENDBRANCH  16  17
ENDBRANCH  13  16
ENDBRANCH   7   9
ENDBRANCH   6   7
BRANCH   1  21
HETATM   21  C   UNL     1      41.630 -13.125   2.907  1.00  0.00    -0.028 A 
HETATM   22  C   UNL     1      42.908 -13.677   3.104  1.00  0.00     0.012 A 
HETATM   23  C   UNL     1      43.476 -13.707   4.377  1.00  0.00     0.040 A 
HETATM   24  C   UNL     1      42.753 -13.221   5.460  1.00  0.00     0.099 A 
HETATM   25  C   UNL     1      41.465 -12.709   5.305  1.00  0.00     0.102 A 
HETATM   26  C   UNL     1      40.921 -12.633   4.023  1.00  0.00     0.049 A 
BRANCH  24  27
HETATM   27  O   UNL     1      43.330 -13.282   6.697  1.00  0.00    -0.358 OA
HETATM   28  H   UNL     1      42.966 -14.086   7.117  1.00  0.00     0.218 HD
ENDBRANCH  24  27
BRANCH  25  29
HETATM   29  O   UNL     1      40.840 -12.315   6.460  1.00  0.00    -0.349 OA
BRANCH  29  30
HETATM   30  C   UNL     1      39.611 -11.601   6.296  1.00  0.00     0.171 C 
HETATM   31  C   UNL     1      39.667 -10.347   7.149  1.00  0.00     0.034 C 
ENDBRANCH  29  30
ENDBRANCH  25  29
ENDBRANCH   1  21
BRANCH   5  32
HETATM   32  O   UNL     1      40.699 -15.772  -0.997  1.00  0.00    -0.355 OA
HETATM   33  H   UNL     1      40.566 -16.539  -0.406  1.00  0.00     0.218 HD
ENDBRANCH   5  32
BRANCH   2  34
HETATM   34  C   UNL     1      42.372 -11.328   0.347  1.00  0.00     0.129 C 
BRANCH  34  35
HETATM   35  C   UNL     1      41.381 -10.216   0.697  1.00  0.00     0.048 C 
BRANCH  35  36
HETATM   36  C   UNL     1      40.310  -9.873  -0.343  1.00  0.00     0.236 C 
BRANCH  36  37
HETATM   37  N   UNL     1      38.904 -10.354  -0.063  1.00  0.00    -0.067 N 
HETATM   38  H   UNL     1      38.308  -9.618  -0.468  1.00  0.00     0.280 HD
HETATM   39  C   UNL     1      38.486 -11.618  -0.806  1.00  0.00     0.261 C 
HETATM   40  C   UNL     1      36.986 -11.864  -0.592  1.00  0.00     0.195 C 
HETATM   41  O   UNL     1      36.666 -11.940   0.802  1.00  0.00    -0.388 OA
HETATM   42  C   UNL     1      36.996 -10.729   1.493  1.00  0.00     0.195 C 
HETATM   43  C   UNL     1      38.499 -10.439   1.401  1.00  0.00     0.261 C 
ENDBRANCH  36  37
ENDBRANCH  35  36
ENDBRANCH  34  35
ENDBRANCH   2  34
TORSDOF 14
ENDMDL
MODEL 9
REMARK VINA RESULT:      -7.3      3.123      6.614
REMARK  14 active torsions:
REMARK  status: ('A' for Active; 'I' for Inactive)
REMARK    1  A    between atoms: C_2  and  O_3 
REMARK    2  A    between atoms: O_3  and  C_4 
REMARK    3  A    between atoms: C_5  and  O_6 
REMARK    4  A    between atoms: C_9  and  C_10 
REMARK    5  A    between atoms: N_11  and  C_12 
REMARK    6  A    between atoms: C_12  and  C_13 
REMARK    7  A    between atoms: C_13  and  C_14 
REMARK    8  A    between atoms: C_14  and  N_15 
REMARK    9  A    between atoms: C_24  and  O_25 
REMARK   10  A    between atoms: C_26  and  C_27 
REMARK   11  A    between atoms: C_27  and  C_28 
REMARK   12  A    between atoms: C_32  and  O_33 
REMARK   13  A    between atoms: O_33  and  C_34 
REMARK   14  A    between atoms: C_34  and  C_35 
ROOT
HETATM    1  C   UNL     1      40.674 -13.383   4.449  1.00  0.00     0.161 C 
HETATM    2  N   UNL     1      40.109 -12.257   5.192  1.00  0.00    -0.333 N 
HETATM    3  C   UNL     1      40.076 -11.121   4.403  1.00  0.00     0.278 C 
HETATM    4  O   UNL     1      39.575 -10.043   4.667  1.00  0.00    -0.265 OA
HETATM    5  C   UNL     1      40.822 -11.409   3.167  1.00  0.00     0.146 C 
HETATM    6  C   UNL     1      41.189 -12.694   3.222  1.00  0.00     0.059 C 
ENDROOT
BRANCH   6   7
HETATM    7  C   UNL     1      42.156 -13.271   2.270  1.00  0.00     0.193 C 
HETATM    8  O   UNL     1      42.814 -12.539   1.537  1.00  0.00    -0.287 OA
BRANCH   7   9
HETATM    9  C   UNL     1      42.434 -14.727   2.288  1.00  0.00     0.015 A 
HETATM   10  C   UNL     1      41.437 -15.583   1.803  1.00  0.00     0.025 A 
HETATM   11  C   UNL     1      41.624 -16.972   1.796  1.00  0.00    -0.028 A 
HETATM   12  C   UNL     1      40.530 -17.867   1.279  1.00  0.00     0.051 C 
HETATM   13  C   UNL     1      42.831 -17.510   2.273  1.00  0.00     0.074 A 
HETATM   14  C   UNL     1      43.820 -16.656   2.773  1.00  0.00     0.038 A 
HETATM   15  C   UNL     1      43.619 -15.268   2.792  1.00  0.00     0.018 A 
BRANCH  13  16
HETATM   16  O   UNL     1      42.924 -18.872   2.207  1.00  0.00    -0.350 OA
BRANCH  16  17
HETATM   17  C   UNL     1      43.550 -19.571   3.280  1.00  0.00     0.179 C 
BRANCH  17  18
HETATM   18  C   UNL     1      44.341 -20.764   2.717  1.00  0.00     0.002 C 
HETATM   19  C   UNL     1      44.795 -21.703   3.837  1.00  0.00     0.011 C 
HETATM   20  C   UNL     1      43.522 -21.544   1.686  1.00  0.00     0.011 C 
ENDBRANCH  17  18
ENDBRANCH  16  17
ENDBRANCH  13  16
ENDBRANCH   7   9
ENDBRANCH   6   7
BRANCH   1  21
HETATM   21  C   UNL     1      41.704 -14.176   5.221  1.00  0.00    -0.028 A 
HETATM   22  C   UNL     1      41.504 -15.526   5.558  1.00  0.00     0.012 A 
HETATM   23  C   UNL     1      42.456 -16.215   6.307  1.00  0.00     0.040 A 
HETATM   24  C   UNL     1      43.590 -15.548   6.753  1.00  0.00     0.099 A 
HETATM   25  C   UNL     1      43.796 -14.196   6.476  1.00  0.00     0.102 A 
HETATM   26  C   UNL     1      42.867 -13.523   5.682  1.00  0.00     0.049 A 
BRANCH  24  27
HETATM   27  O   UNL     1      44.495 -16.246   7.502  1.00  0.00    -0.358 OA
HETATM   28  H   UNL     1      44.089 -16.338   8.386  1.00  0.00     0.218 HD
ENDBRANCH  24  27
BRANCH  25  29
HETATM   29  O   UNL     1      44.925 -13.644   7.021  1.00  0.00    -0.349 OA
BRANCH  29  30
HETATM   30  C   UNL     1      44.742 -12.911   8.237  1.00  0.00     0.171 C 
HETATM   31  C   UNL     1      46.052 -12.232   8.592  1.00  0.00     0.034 C 
ENDBRANCH  29  30
ENDBRANCH  25  29
ENDBRANCH   1  21
BRANCH   5  32
HETATM   32  O   UNL     1      41.089 -10.475   2.215  1.00  0.00    -0.355 OA
HETATM   33  H   UNL     1      41.530  -9.725   2.657  1.00  0.00     0.218 HD
ENDBRANCH   5  32
BRANCH   2  34
HETATM   34  C   UNL     1      39.284 -12.407   6.383  1.00  0.00     0.129 C 
BRANCH  34  35
HETATM   35  C   UNL     1      39.616 -11.432   7.515  1.00  0.00     0.048 C 
BRANCH  35  36
HETATM   36  C   UNL     1      41.096 -11.207   7.839  1.00  0.00     0.236 C 
BRANCH  36  37
HETATM   37  N   UNL     1      41.472 -11.125   9.302  1.00  0.00    -0.067 N 
HETATM   38  H   UNL     1      41.895 -12.043   9.498  1.00  0.00     0.280 HD
HETATM   39  C   UNL     1      42.577 -10.130   9.637  1.00  0.00     0.261 C 
HETATM   40  C   UNL     1      42.995 -10.305  11.104  1.00  0.00     0.195 C 
HETATM   41  O   UNL     1      41.873 -10.167  11.984  1.00  0.00    -0.388 OA
HETATM   42  C   UNL     1      40.860 -11.143  11.717  1.00  0.00     0.195 C 
HETATM   43  C   UNL     1      40.321 -10.994  10.288  1.00  0.00     0.261 C 
ENDBRANCH  36  37
ENDBRANCH  35  36
ENDBRANCH  34  35
ENDBRANCH   2  34
TORSDOF 14
ENDMDL
MODEL 10
REMARK VINA RESULT:      -7.2      1.958      5.064
REMARK  14 active torsions:
REMARK  status: ('A' for Active; 'I' for Inactive)
REMARK    1  A    between atoms: C_2  and  O_3 
REMARK    2  A    between atoms: O_3  and  C_4 
REMARK    3  A    between atoms: C_5  and  O_6 
REMARK    4  A    between atoms: C_9  and  C_10 
REMARK    5  A    between atoms: N_11  and  C_12 
REMARK    6  A    between atoms: C_12  and  C_13 
REMARK    7  A    between atoms: C_13  and  C_14 
REMARK    8  A    between atoms: C_14  and  N_15 
REMARK    9  A    between atoms: C_24  and  O_25 
REMARK   10  A    between atoms: C_26  and  C_27 
REMARK   11  A    between atoms: C_27  and  C_28 
REMARK   12  A    between atoms: C_32  and  O_33 
REMARK   13  A    between atoms: O_33  and  C_34 
REMARK   14  A    between atoms: C_34  and  C_35 
ROOT
HETATM    1  C   UNL     1      41.140 -12.880   2.837  1.00  0.00     0.161 C 
HETATM    2  N   UNL     1      39.830 -12.838   3.486  1.00  0.00    -0.333 N 
HETATM    3  C   UNL     1      39.940 -13.170   4.825  1.00  0.00     0.278 C 
HETATM    4  O   UNL     1      39.071 -13.132   5.678  1.00  0.00    -0.265 OA
HETATM    5  C   UNL     1      41.312 -13.652   5.059  1.00  0.00     0.146 C 
HETATM    6  C   UNL     1      41.976 -13.514   3.906  1.00  0.00     0.059 C 
ENDROOT
BRANCH   6   7
HETATM    7  C   UNL     1      43.305 -14.115   3.697  1.00  0.00     0.193 C 
HETATM    8  O   UNL     1      44.318 -13.431   3.806  1.00  0.00    -0.287 OA
BRANCH   7   9
HETATM    9  C   UNL     1      43.432 -15.578   3.485  1.00  0.00     0.015 A 
HETATM   10  C   UNL     1      43.273 -16.410   4.599  1.00  0.00     0.025 A 
HETATM   11  C   UNL     1      43.388 -17.802   4.477  1.00  0.00    -0.028 A 
HETATM   12  C   UNL     1      43.223 -18.671   5.695  1.00  0.00     0.051 C 
HETATM   13  C   UNL     1      43.656 -18.367   3.219  1.00  0.00     0.074 A 
HETATM   14  C   UNL     1      43.831 -17.534   2.110  1.00  0.00     0.038 A 
HETATM   15  C   UNL     1      43.731 -16.142   2.241  1.00  0.00     0.018 A 
BRANCH  13  16
HETATM   16  O   UNL     1      43.729 -19.732   3.201  1.00  0.00    -0.350 OA
BRANCH  16  17
HETATM   17  C   UNL     1      44.901 -20.350   2.676  1.00  0.00     0.179 C 
BRANCH  17  18
HETATM   18  C   UNL     1      44.599 -21.824   2.358  1.00  0.00     0.002 C 
HETATM   19  C   UNL     1      44.525 -22.660   3.638  1.00  0.00     0.011 C 
HETATM   20  C   UNL     1      43.299 -21.973   1.565  1.00  0.00     0.011 C 
ENDBRANCH  17  18
ENDBRANCH  16  17
ENDBRANCH  13  16
ENDBRANCH   7   9
ENDBRANCH   6   7
BRANCH   1  21
HETATM   21  C   UNL     1      41.146 -13.597   1.506  1.00  0.00    -0.028 A 
HETATM   22  C   UNL     1      40.611 -14.888   1.355  1.00  0.00     0.012 A 
HETATM   23  C   UNL     1      40.670 -15.535   0.121  1.00  0.00     0.040 A 
HETATM   24  C   UNL     1      41.296 -14.911  -0.950  1.00  0.00     0.099 A 
HETATM   25  C   UNL     1      41.878 -13.650  -0.820  1.00  0.00     0.102 A 
HETATM   26  C   UNL     1      41.771 -12.983   0.401  1.00  0.00     0.049 A 
BRANCH  24  27
HETATM   27  O   UNL     1      41.354 -15.581  -2.140  1.00  0.00    -0.358 OA
HETATM   28  H   UNL     1      40.685 -15.156  -2.713  1.00  0.00     0.218 HD
ENDBRANCH  24  27
BRANCH  25  29
HETATM   29  O   UNL     1      42.513 -13.171  -1.936  1.00  0.00    -0.349 OA
BRANCH  29  30
HETATM   30  C   UNL     1      41.892 -12.055  -2.581  1.00  0.00     0.171 C 
HETATM   31  C   UNL     1      42.808 -10.852  -2.447  1.00  0.00     0.034 C 
ENDBRANCH  29  30
ENDBRANCH  25  29
ENDBRANCH   1  21
BRANCH   5  32
HETATM   32  O   UNL     1      41.734 -14.171   6.243  1.00  0.00    -0.355 OA
HETATM   33  H   UNL     1      42.665 -13.902   6.364  1.00  0.00     0.218 HD
ENDBRANCH   5  32
BRANCH   2  34
HETATM   34  C   UNL     1      38.685 -12.116   2.951  1.00  0.00     0.129 C 
BRANCH  34  35
HETATM   35  C   UNL     1      38.992 -10.695   2.475  1.00  0.00     0.048 C 
BRANCH  35  36
HETATM   36  C   UNL     1      38.976 -10.439   0.965  1.00  0.00     0.236 C 
BRANCH  36  37
HETATM   37  N   UNL     1      39.858  -9.323   0.450  1.00  0.00    -0.067 N 
HETATM   38  H   UNL     1      39.458  -8.476   0.879  1.00  0.00     0.280 HD
HETATM   39  C   UNL     1      41.298  -9.344   0.950  1.00  0.00     0.261 C 
HETATM   40  C   UNL     1      42.007  -8.052   0.521  1.00  0.00     0.195 C 
HETATM   41  O   UNL     1      41.942  -7.870  -0.898  1.00  0.00    -0.388 OA
HETATM   42  C   UNL     1      40.591  -7.782  -1.365  1.00  0.00     0.195 C 
HETATM   43  C   UNL     1      39.819  -9.070  -1.050  1.00  0.00     0.261 C 
ENDBRANCH  36  37
ENDBRANCH  35  36
ENDBRANCH  34  35
ENDBRANCH   2  34
TORSDOF 14
ENDMDL
