MODEL 1
REMARK VINA RESULT:      -8.5      0.000      0.000
REMARK  5 active torsions:
REMARK  status: ('A' for Active; 'I' for Inactive)
REMARK    1  A    between atoms: C_7  and  C_8 
REMARK    2  A    between atoms: N_9  and  N_10 
REMARK       I    between atoms: N_10  and  C_11 
REMARK    3  A    between atoms: C_11  and  C_12 
REMARK    4  A    between atoms: C_12  and  O_13 
REMARK    5  A    between atoms: O_13  and  C_14 
ROOT
HETATM    1  C   UNL     1      43.382 -16.218   6.162  1.00  0.00     0.153 C 
HETATM    2  N   UNL     1      44.339 -15.801   6.930  1.00  0.00    -0.184 NA
ENDROOT
BRANCH   2   3
HETATM    3  N   UNL     1      44.136 -14.649   7.658  1.00  0.00    -0.246 N 
HETATM    4  C   UNL     1      44.963 -13.530   7.669  1.00  0.00     0.261 C 
HETATM    5  O   UNL     1      45.958 -13.358   6.969  1.00  0.00    -0.269 OA
HETATM    6  H   UNL     1      43.522 -14.767   8.463  1.00  0.00     0.192 HD
BRANCH   4   7
HETATM    7  C   UNL     1      44.462 -12.430   8.601  1.00  0.00     0.280 C 
BRANCH   7   8
HETATM    8  O   UNL     1      44.643 -12.770   9.971  1.00  0.00    -0.342 OA
BRANCH   8   9
HETATM    9  C   UNL     1      44.087 -11.899  10.872  1.00  0.00     0.069 A 
HETATM   10  C   UNL     1      44.163 -10.550  10.519  1.00  0.00     0.037 A 
HETATM   11  C   UNL     1      43.626  -9.567  11.353  1.00  0.00     0.003 A 
HETATM   12  C   UNL     1      43.019  -9.929  12.554  1.00  0.00     0.000 A 
HETATM   13  C   UNL     1      42.952 -11.271  12.920  1.00  0.00     0.003 A 
HETATM   14  C   UNL     1      43.487 -12.255  12.083  1.00  0.00     0.037 A 
ENDBRANCH   8   9
ENDBRANCH   7   8
ENDBRANCH   4   7
ENDBRANCH   2   3
BRANCH   1  15
HETATM   15  C   UNL     1      43.553 -17.398   5.330  1.00  0.00     0.018 A 
HETATM   16  C   UNL     1      43.729 -18.713   5.737  1.00  0.00     0.018 A 
HETATM   17  C   UNL     1      43.795 -19.320   7.092  1.00  0.00     0.069 C 
HETATM   18  N   UNL     1      43.840 -19.487   4.607  1.00  0.00    -0.358 N 
HETATM   19  H   UNL     1      43.977 -20.488   4.601  1.00  0.00     0.166 HD
HETATM   20  C   UNL     1      43.740 -18.715   3.475  1.00  0.00     0.043 A 
HETATM   21  C   UNL     1      43.560 -17.399   3.894  1.00  0.00     0.004 A 
HETATM   22  C   UNL     1      43.798 -19.082   2.125  1.00  0.00     0.030 A 
HETATM   23  C   UNL     1      43.441 -16.394   2.909  1.00  0.00     0.014 A 
HETATM   24  C   UNL     1      43.501 -16.740   1.554  1.00  0.00     0.001 A 
HETATM   25  C   UNL     1      43.675 -18.067   1.170  1.00  0.00     0.002 A 
ENDBRANCH   1  15
TORSDOF 5
ENDMDL
MODEL 2
REMARK VINA RESULT:      -8.4      5.760      9.551
REMARK  5 active torsions:
REMARK  status: ('A' for Active; 'I' for Inactive)
REMARK    1  A    between atoms: C_7  and  C_8 
REMARK    2  A    between atoms: N_9  and  N_10 
REMARK       I    between atoms: N_10  and  C_11 
REMARK    3  A    between atoms: C_11  and  C_12 
REMARK    4  A    between atoms: C_12  and  O_13 
REMARK    5  A    between atoms: O_13  and  C_14 
ROOT
HETATM    1  C   UNL     1      42.980 -17.203   3.141  1.00  0.00     0.153 C 
HETATM    2  N   UNL     1      43.478 -16.685   2.062  1.00  0.00    -0.184 NA
ENDROOT
BRANCH   2   3
HETATM    3  N   UNL     1      42.770 -15.686   1.431  1.00  0.00    -0.246 N 
HETATM    4  C   UNL     1      41.770 -15.866   0.480  1.00  0.00     0.261 C 
HETATM    5  O   UNL     1      41.303 -16.943   0.116  1.00  0.00    -0.269 OA
HETATM    6  H   UNL     1      43.234 -14.779   1.434  1.00  0.00     0.192 HD
BRANCH   4   7
HETATM    7  C   UNL     1      41.199 -14.550  -0.039  1.00  0.00     0.280 C 
BRANCH   7   8
HETATM    8  O   UNL     1      41.338 -14.429  -1.450  1.00  0.00    -0.342 OA
BRANCH   8   9
HETATM    9  C   UNL     1      40.210 -14.702  -2.179  1.00  0.00     0.069 A 
HETATM   10  C   UNL     1      40.353 -15.704  -3.142  1.00  0.00     0.037 A 
HETATM   11  C   UNL     1      39.272 -16.077  -3.944  1.00  0.00     0.003 A 
HETATM   12  C   UNL     1      38.042 -15.440  -3.795  1.00  0.00     0.000 A 
HETATM   13  C   UNL     1      37.895 -14.431  -2.847  1.00  0.00     0.003 A 
HETATM   14  C   UNL     1      38.977 -14.060  -2.042  1.00  0.00     0.037 A 
ENDBRANCH   8   9
ENDBRANCH   7   8
ENDBRANCH   4   7
ENDBRANCH   2   3
BRANCH   1  15
HETATM   15  C   UNL     1      43.653 -18.294   3.826  1.00  0.00     0.018 A 
HETATM   16  C   UNL     1      44.223 -18.287   5.092  1.00  0.00     0.018 A 
HETATM   17  C   UNL     1      44.324 -17.215   6.116  1.00  0.00     0.069 C 
HETATM   18  N   UNL     1      44.737 -19.540   5.323  1.00  0.00    -0.358 N 
HETATM   19  H   UNL     1      45.213 -19.825   6.167  1.00  0.00     0.166 HD
HETATM   20  C   UNL     1      44.518 -20.364   4.246  1.00  0.00     0.043 A 
HETATM   21  C   UNL     1      43.841 -19.612   3.289  1.00  0.00     0.004 A 
HETATM   22  C   UNL     1      44.870 -21.705   4.049  1.00  0.00     0.030 A 
HETATM   23  C   UNL     1      43.505 -20.233   2.066  1.00  0.00     0.014 A 
HETATM   24  C   UNL     1      43.851 -21.572   1.849  1.00  0.00     0.001 A 
HETATM   25  C   UNL     1      44.522 -22.297   2.830  1.00  0.00     0.002 A 
ENDBRANCH   1  15
TORSDOF 5
ENDMDL
MODEL 3
REMARK VINA RESULT:      -8.3      5.395      9.229
REMARK  5 active torsions:
REMARK  status: ('A' for Active; 'I' for Inactive)
REMARK    1  A    between atoms: C_7  and  C_8 
REMARK    2  A    between atoms: N_9  and  N_10 
REMARK       I    between atoms: N_10  and  C_11 
REMARK    3  A    between atoms: C_11  and  C_12 
REMARK    4  A    between atoms: C_12  and  O_13 
REMARK    5  A    between atoms: O_13  and  C_14 
ROOT
HETATM    1  C   UNL     1      42.141 -17.037   2.413  1.00  0.00     0.153 C 
HETATM    2  N   UNL     1      40.851 -17.152   2.448  1.00  0.00    -0.184 NA
ENDROOT
BRANCH   2   3
HETATM    3  N   UNL     1      40.100 -16.300   1.669  1.00  0.00    -0.246 N 
HETATM    4  C   UNL     1      39.499 -15.117   2.090  1.00  0.00     0.261 C 
HETATM    5  O   UNL     1      39.615 -14.603   3.201  1.00  0.00    -0.269 OA
HETATM    6  H   UNL     1      39.707 -16.734   0.834  1.00  0.00     0.192 HD
BRANCH   4   7
HETATM    7  C   UNL     1      38.719 -14.418   0.982  1.00  0.00     0.280 C 
BRANCH   7   8
HETATM    8  O   UNL     1      39.578 -13.747   0.067  1.00  0.00    -0.342 OA
BRANCH   8   9
HETATM    9  C   UNL     1      39.659 -14.305  -1.183  1.00  0.00     0.069 A 
HETATM   10  C   UNL     1      38.532 -14.125  -1.987  1.00  0.00     0.037 A 
HETATM   11  C   UNL     1      38.495 -14.641  -3.285  1.00  0.00     0.003 A 
HETATM   12  C   UNL     1      39.586 -15.351  -3.781  1.00  0.00     0.000 A 
HETATM   13  C   UNL     1      40.708 -15.546  -2.981  1.00  0.00     0.003 A 
HETATM   14  C   UNL     1      40.745 -15.028  -1.683  1.00  0.00     0.037 A 
ENDBRANCH   8   9
ENDBRANCH   7   8
ENDBRANCH   4   7
ENDBRANCH   2   3
BRANCH   1  15
HETATM   15  C   UNL     1      42.988 -17.872   3.250  1.00  0.00     0.018 A 
HETATM   16  C   UNL     1      43.540 -17.562   4.486  1.00  0.00     0.018 A 
HETATM   17  C   UNL     1      43.450 -16.336   5.321  1.00  0.00     0.069 C 
HETATM   18  N   UNL     1      44.261 -18.654   4.904  1.00  0.00    -0.358 N 
HETATM   19  H   UNL     1      44.774 -18.712   5.773  1.00  0.00     0.166 HD
HETATM   20  C   UNL     1      44.194 -19.668   3.979  1.00  0.00     0.043 A 
HETATM   21  C   UNL     1      43.403 -19.208   2.929  1.00  0.00     0.004 A 
HETATM   22  C   UNL     1      44.772 -20.943   3.994  1.00  0.00     0.030 A 
HETATM   23  C   UNL     1      43.187 -20.067   1.829  1.00  0.00     0.014 A 
HETATM   24  C   UNL     1      43.759 -21.344   1.824  1.00  0.00     0.001 A 
HETATM   25  C   UNL     1      44.539 -21.775   2.894  1.00  0.00     0.002 A 
ENDBRANCH   1  15
TORSDOF 5
ENDMDL
MODEL 4
REMARK VINA RESULT:      -8.3      5.146      7.974
REMARK  5 active torsions:
REMARK  status: ('A' for Active; 'I' for Inactive)
REMARK    1  A    between atoms: C_7  and  C_8 
REMARK    2  A    between atoms: N_9  and  N_10 
REMARK       I    between atoms: N_10  and  C_11 
REMARK    3  A    between atoms: C_11  and  C_12 
REMARK    4  A    between atoms: C_12  and  O_13 
REMARK    5  A    between atoms: O_13  and  C_14 
ROOT
HETATM    1  C   UNL     1      42.988 -16.972   3.617  1.00  0.00     0.153 C 
HETATM    2  N   UNL     1      43.496 -16.237   2.678  1.00  0.00    -0.184 NA
ENDROOT
BRANCH   2   3
HETATM    3  N   UNL     1      42.761 -15.166   2.220  1.00  0.00    -0.246 N 
HETATM    4  C   UNL     1      42.904 -13.841   2.622  1.00  0.00     0.261 C 
HETATM    5  O   UNL     1      43.763 -13.405   3.386  1.00  0.00    -0.269 OA
HETATM    6  H   UNL     1      41.863 -15.420   1.810  1.00  0.00     0.192 HD
BRANCH   4   7
HETATM    7  C   UNL     1      41.918 -12.901   1.935  1.00  0.00     0.280 C 
BRANCH   7   8
HETATM    8  O   UNL     1      42.540 -12.134   0.911  1.00  0.00    -0.342 OA
BRANCH   8   9
HETATM    9  C   UNL     1      42.243 -12.513  -0.373  1.00  0.00     0.069 A 
HETATM   10  C   UNL     1      42.863 -11.761  -1.373  1.00  0.00     0.037 A 
HETATM   11  C   UNL     1      42.644 -12.054  -2.721  1.00  0.00     0.003 A 
HETATM   12  C   UNL     1      41.793 -13.098  -3.076  1.00  0.00     0.000 A 
HETATM   13  C   UNL     1      41.161 -13.844  -2.085  1.00  0.00     0.003 A 
HETATM   14  C   UNL     1      41.382 -13.552  -0.736  1.00  0.00     0.037 A 
ENDBRANCH   8   9
ENDBRANCH   7   8
ENDBRANCH   4   7
ENDBRANCH   2   3
BRANCH   1  15
HETATM   15  C   UNL     1      43.691 -18.146   4.109  1.00  0.00     0.018 A 
HETATM   16  C   UNL     1      44.365 -18.297   5.313  1.00  0.00     0.018 A 
HETATM   17  C   UNL     1      44.577 -17.355   6.444  1.00  0.00     0.069 C 
HETATM   18  N   UNL     1      44.867 -19.575   5.351  1.00  0.00    -0.358 N 
HETATM   19  H   UNL     1      45.406 -19.965   6.112  1.00  0.00     0.166 HD
HETATM   20  C   UNL     1      44.540 -20.263   4.207  1.00  0.00     0.043 A 
HETATM   21  C   UNL     1      43.803 -19.393   3.407  1.00  0.00     0.004 A 
HETATM   22  C   UNL     1      44.843 -21.575   3.825  1.00  0.00     0.030 A 
HETATM   23  C   UNL     1      43.351 -19.860   2.153  1.00  0.00     0.014 A 
HETATM   24  C   UNL     1      43.647 -21.168   1.752  1.00  0.00     0.001 A 
HETATM   25  C   UNL     1      44.380 -22.013   2.579  1.00  0.00     0.002 A 
ENDBRANCH   1  15
TORSDOF 5
ENDMDL
MODEL 5
REMARK VINA RESULT:      -8.2      1.475      2.415
REMARK  5 active torsions:
REMARK  status: ('A' for Active; 'I' for Inactive)
REMARK    1  A    between atoms: C_7  and  C_8 
REMARK    2  A    between atoms: N_9  and  N_10 
REMARK       I    between atoms: N_10  and  C_11 
REMARK    3  A    between atoms: C_11  and  C_12 
REMARK    4  A    between atoms: C_12  and  O_13 
REMARK    5  A    between atoms: O_13  and  C_14 
ROOT
HETATM    1  C   UNL     1      43.057 -16.270   5.911  1.00  0.00     0.153 C 
HETATM    2  N   UNL     1      43.745 -15.172   5.879  1.00  0.00    -0.184 NA
ENDROOT
BRANCH   2   3
HETATM    3  N   UNL     1      43.865 -14.443   7.041  1.00  0.00    -0.246 N 
HETATM    4  C   UNL     1      44.931 -13.617   7.386  1.00  0.00     0.261 C 
HETATM    5  O   UNL     1      45.893 -13.341   6.671  1.00  0.00    -0.269 OA
HETATM    6  H   UNL     1      43.292 -14.788   7.811  1.00  0.00     0.192 HD
BRANCH   4   7
HETATM    7  C   UNL     1      44.763 -12.969   8.756  1.00  0.00     0.280 C 
BRANCH   7   8
HETATM    8  O   UNL     1      44.705 -11.549   8.670  1.00  0.00    -0.342 OA
BRANCH   8   9
HETATM    9  C   UNL     1      43.963 -10.929   9.642  1.00  0.00     0.069 A 
HETATM   10  C   UNL     1      44.577 -10.841  10.893  1.00  0.00     0.037 A 
HETATM   11  C   UNL     1      43.924 -10.225  11.963  1.00  0.00     0.003 A 
HETATM   12  C   UNL     1      42.644  -9.703  11.789  1.00  0.00     0.000 A 
HETATM   13  C   UNL     1      42.019  -9.800  10.548  1.00  0.00     0.003 A 
HETATM   14  C   UNL     1      42.675 -10.414   9.476  1.00  0.00     0.037 A 
ENDBRANCH   8   9
ENDBRANCH   7   8
ENDBRANCH   4   7
ENDBRANCH   2   3
BRANCH   1  15
HETATM   15  C   UNL     1      42.851 -17.057   4.706  1.00  0.00     0.018 A 
HETATM   16  C   UNL     1      41.962 -16.816   3.668  1.00  0.00     0.018 A 
HETATM   17  C   UNL     1      40.977 -15.723   3.455  1.00  0.00     0.069 C 
HETATM   18  N   UNL     1      42.120 -17.819   2.743  1.00  0.00    -0.358 N 
HETATM   19  H   UNL     1      41.600 -17.900   1.880  1.00  0.00     0.166 HD
HETATM   20  C   UNL     1      43.088 -18.707   3.146  1.00  0.00     0.043 A 
HETATM   21  C   UNL     1      43.566 -18.258   4.375  1.00  0.00     0.004 A 
HETATM   22  C   UNL     1      43.568 -19.864   2.521  1.00  0.00     0.030 A 
HETATM   23  C   UNL     1      44.572 -19.013   5.018  1.00  0.00     0.014 A 
HETATM   24  C   UNL     1      45.062 -20.174   4.410  1.00  0.00     0.001 A 
HETATM   25  C   UNL     1      44.567 -20.591   3.178  1.00  0.00     0.002 A 
ENDBRANCH   1  15
TORSDOF 5
ENDMDL
MODEL 6
REMARK VINA RESULT:      -7.8      4.590      5.459
REMARK  5 active torsions:
REMARK  status: ('A' for Active; 'I' for Inactive)
REMARK    1  A    between atoms: C_7  and  C_8 
REMARK    2  A    between atoms: N_9  and  N_10 
REMARK       I    between atoms: N_10  and  C_11 
REMARK    3  A    between atoms: C_11  and  C_12 
REMARK    4  A    between atoms: C_12  and  O_13 
REMARK    5  A    between atoms: O_13  and  C_14 
ROOT
HETATM    1  C   UNL     1      43.015 -17.139   3.558  1.00  0.00     0.153 C 
HETATM    2  N   UNL     1      43.623 -16.229   2.864  1.00  0.00    -0.184 NA
ENDROOT
BRANCH   2   3
HETATM    3  N   UNL     1      42.886 -15.161   2.402  1.00  0.00    -0.246 N 
HETATM    4  C   UNL     1      43.035 -13.833   2.789  1.00  0.00     0.261 C 
HETATM    5  O   UNL     1      43.902 -13.391   3.540  1.00  0.00    -0.269 OA
HETATM    6  H   UNL     1      41.984 -15.418   2.002  1.00  0.00     0.192 HD
BRANCH   4   7
HETATM    7  C   UNL     1      42.045 -12.898   2.101  1.00  0.00     0.280 C 
BRANCH   7   8
HETATM    8  O   UNL     1      40.696 -13.267   2.362  1.00  0.00    -0.342 OA
BRANCH   8   9
HETATM    9  C   UNL     1      40.265 -13.059   3.648  1.00  0.00     0.069 A 
HETATM   10  C   UNL     1      40.097 -11.720   4.008  1.00  0.00     0.037 A 
HETATM   11  C   UNL     1      39.656 -11.379   5.289  1.00  0.00     0.003 A 
HETATM   12  C   UNL     1      39.393 -12.379   6.222  1.00  0.00     0.000 A 
HETATM   13  C   UNL     1      39.572 -13.716   5.875  1.00  0.00     0.003 A 
HETATM   14  C   UNL     1      40.010 -14.056   4.592  1.00  0.00     0.037 A 
ENDBRANCH   8   9
ENDBRANCH   7   8
ENDBRANCH   4   7
ENDBRANCH   2   3
BRANCH   1  15
HETATM   15  C   UNL     1      43.725 -18.316   4.032  1.00  0.00     0.018 A 
HETATM   16  C   UNL     1      44.424 -18.472   5.221  1.00  0.00     0.018 A 
HETATM   17  C   UNL     1      44.662 -17.534   6.350  1.00  0.00     0.069 C 
HETATM   18  N   UNL     1      44.924 -19.751   5.245  1.00  0.00    -0.358 N 
HETATM   19  H   UNL     1      45.478 -20.144   5.994  1.00  0.00     0.166 HD
HETATM   20  C   UNL     1      44.571 -20.435   4.107  1.00  0.00     0.043 A 
HETATM   21  C   UNL     1      43.819 -19.562   3.324  1.00  0.00     0.004 A 
HETATM   22  C   UNL     1      44.863 -21.747   3.715  1.00  0.00     0.030 A 
HETATM   23  C   UNL     1      43.340 -20.024   2.079  1.00  0.00     0.014 A 
HETATM   24  C   UNL     1      43.624 -21.331   1.668  1.00  0.00     0.001 A 
HETATM   25  C   UNL     1      44.373 -22.180   2.478  1.00  0.00     0.002 A 
ENDBRANCH   1  15
TORSDOF 5
ENDMDL
MODEL 7
REMARK VINA RESULT:      -7.6      5.699      7.228
REMARK  5 active torsions:
REMARK  status: ('A' for Active; 'I' for Inactive)
REMARK    1  A    between atoms: C_7  and  C_8 
REMARK    2  A    between atoms: N_9  and  N_10 
REMARK       I    between atoms: N_10  and  C_11 
REMARK    3  A    between atoms: C_11  and  C_12 
REMARK    4  A    between atoms: C_12  and  O_13 
REMARK    5  A    between atoms: O_13  and  C_14 
ROOT
HETATM    1  C   UNL     1      43.039 -17.168   3.140  1.00  0.00     0.153 C 
HETATM    2  N   UNL     1      41.764 -17.173   2.903  1.00  0.00    -0.184 NA
ENDROOT
BRANCH   2   3
HETATM    3  N   UNL     1      41.211 -16.070   2.292  1.00  0.00    -0.246 N 
HETATM    4  C   UNL     1      41.090 -15.866   0.921  1.00  0.00     0.261 C 
HETATM    5  O   UNL     1      41.379 -16.675   0.040  1.00  0.00    -0.269 OA
HETATM    6  H   UNL     1      41.189 -15.235   2.877  1.00  0.00     0.192 HD
BRANCH   4   7
HETATM    7  C   UNL     1      40.448 -14.527   0.572  1.00  0.00     0.280 C 
BRANCH   7   8
HETATM    8  O   UNL     1      39.121 -14.426   1.077  1.00  0.00    -0.342 OA
BRANCH   8   9
HETATM    9  C   UNL     1      38.839 -13.274   1.766  1.00  0.00     0.069 A 
HETATM   10  C   UNL     1      37.917 -12.425   1.151  1.00  0.00     0.037 A 
HETATM   11  C   UNL     1      37.543 -11.224   1.759  1.00  0.00     0.003 A 
HETATM   12  C   UNL     1      38.100 -10.861   2.983  1.00  0.00     0.000 A 
HETATM   13  C   UNL     1      39.031 -11.696   3.595  1.00  0.00     0.003 A 
HETATM   14  C   UNL     1      39.403 -12.899   2.988  1.00  0.00     0.037 A 
ENDBRANCH   8   9
ENDBRANCH   7   8
ENDBRANCH   4   7
ENDBRANCH   2   3
BRANCH   1  15
HETATM   15  C   UNL     1      43.675 -18.280   3.827  1.00  0.00     0.018 A 
HETATM   16  C   UNL     1      44.204 -18.303   5.111  1.00  0.00     0.018 A 
HETATM   17  C   UNL     1      44.288 -17.248   6.155  1.00  0.00     0.069 C 
HETATM   18  N   UNL     1      44.693 -19.566   5.337  1.00  0.00    -0.358 N 
HETATM   19  H   UNL     1      45.138 -19.872   6.191  1.00  0.00     0.166 HD
HETATM   20  C   UNL     1      44.497 -20.370   4.240  1.00  0.00     0.043 A 
HETATM   21  C   UNL     1      43.861 -19.592   3.275  1.00  0.00     0.004 A 
HETATM   22  C   UNL     1      44.836 -21.712   4.032  1.00  0.00     0.030 A 
HETATM   23  C   UNL     1      43.556 -20.188   2.031  1.00  0.00     0.014 A 
HETATM   24  C   UNL     1      43.890 -21.528   1.803  1.00  0.00     0.001 A 
HETATM   25  C   UNL     1      44.519 -22.278   2.793  1.00  0.00     0.002 A 
ENDBRANCH   1  15
TORSDOF 5
ENDMDL
MODEL 8
REMARK VINA RESULT:      -7.5      5.068      9.628
REMARK  5 active torsions:
REMARK  status: ('A' for Active; 'I' for Inactive)
REMARK    1  A    between atoms: C_7  and  C_8 
REMARK    2  A    between atoms: N_9  and  N_10 
REMARK       I    between atoms: N_10  and  C_11 
REMARK    3  A    between atoms: C_11  and  C_12 
REMARK    4  A    between atoms: C_12  and  O_13 
REMARK    5  A    between atoms: O_13  and  C_14 
ROOT
HETATM    1  C   UNL     1      42.017 -17.428   2.756  1.00  0.00     0.153 C 
HETATM    2  N   UNL     1      42.566 -16.461   2.090  1.00  0.00    -0.184 NA
ENDROOT
BRANCH   2   3
HETATM    3  N   UNL     1      41.795 -15.783   1.172  1.00  0.00    -0.246 N 
HETATM    4  C   UNL     1      41.678 -14.401   1.062  1.00  0.00     0.261 C 
HETATM    5  O   UNL     1      42.307 -13.567   1.710  1.00  0.00    -0.269 OA
HETATM    6  H   UNL     1      41.036 -16.335   0.775  1.00  0.00     0.192 HD
BRANCH   4   7
HETATM    7  C   UNL     1      40.725 -13.972  -0.050  1.00  0.00     0.280 C 
BRANCH   7   8
HETATM    8  O   UNL     1      41.178 -14.392  -1.331  1.00  0.00    -0.342 OA
BRANCH   8   9
HETATM    9  C   UNL     1      40.198 -14.798  -2.200  1.00  0.00     0.069 A 
HETATM   10  C   UNL     1      38.985 -14.115  -2.087  1.00  0.00     0.037 A 
HETATM   11  C   UNL     1      37.911 -14.433  -2.921  1.00  0.00     0.003 A 
HETATM   12  C   UNL     1      38.041 -15.447  -3.867  1.00  0.00     0.000 A 
HETATM   13  C   UNL     1      39.243 -16.142  -3.977  1.00  0.00     0.003 A 
HETATM   14  C   UNL     1      40.319 -15.821  -3.143  1.00  0.00     0.037 A 
ENDBRANCH   8   9
ENDBRANCH   7   8
ENDBRANCH   4   7
ENDBRANCH   2   3
BRANCH   1  15
HETATM   15  C   UNL     1      42.790 -18.216   3.703  1.00  0.00     0.018 A 
HETATM   16  C   UNL     1      43.583 -19.326   3.446  1.00  0.00     0.018 A 
HETATM   17  C   UNL     1      43.890 -20.040   2.179  1.00  0.00     0.069 C 
HETATM   18  N   UNL     1      44.125 -19.736   4.640  1.00  0.00    -0.358 N 
HETATM   19  H   UNL     1      44.745 -20.526   4.755  1.00  0.00     0.166 HD
HETATM   20  C   UNL     1      43.711 -18.925   5.668  1.00  0.00     0.043 A 
HETATM   21  C   UNL     1      42.871 -17.961   5.114  1.00  0.00     0.004 A 
HETATM   22  C   UNL     1      44.011 -18.975   7.035  1.00  0.00     0.030 A 
HETATM   23  C   UNL     1      42.294 -17.002   5.975  1.00  0.00     0.014 A 
HETATM   24  C   UNL     1      42.580 -17.037   7.344  1.00  0.00     0.001 A 
HETATM   25  C   UNL     1      43.429 -18.010   7.865  1.00  0.00     0.002 A 
ENDBRANCH   1  15
TORSDOF 5
ENDMDL
MODEL 9
REMARK VINA RESULT:      -7.3      5.448      8.787
REMARK  5 active torsions:
REMARK  status: ('A' for Active; 'I' for Inactive)
REMARK    1  A    between atoms: C_7  and  C_8 
REMARK    2  A    between atoms: N_9  and  N_10 
REMARK       I    between atoms: N_10  and  C_11 
REMARK    3  A    between atoms: C_11  and  C_12 
REMARK    4  A    between atoms: C_12  and  O_13 
REMARK    5  A    between atoms: O_13  and  C_14 
ROOT
HETATM    1  C   UNL     1      41.937 -16.784   3.167  1.00  0.00     0.153 C 
HETATM    2  N   UNL     1      42.299 -15.795   2.412  1.00  0.00    -0.184 NA
ENDROOT
BRANCH   2   3
HETATM    3  N   UNL     1      41.316 -15.030   1.824  1.00  0.00    -0.246 N 
HETATM    4  C   UNL     1      40.950 -15.056   0.482  1.00  0.00     0.261 C 
HETATM    5  O   UNL     1      41.386 -15.825  -0.373  1.00  0.00    -0.269 OA
HETATM    6  H   UNL     1      41.080 -14.184   2.342  1.00  0.00     0.192 HD
BRANCH   4   7
HETATM    7  C   UNL     1      39.836 -14.068   0.150  1.00  0.00     0.280 C 
BRANCH   7   8
HETATM    8  O   UNL     1      40.336 -12.749  -0.042  1.00  0.00    -0.342 OA
BRANCH   8   9
HETATM    9  C   UNL     1      40.928 -12.513  -1.256  1.00  0.00     0.069 A 
HETATM   10  C   UNL     1      42.078 -11.722  -1.212  1.00  0.00     0.037 A 
HETATM   11  C   UNL     1      42.775 -11.416  -2.383  1.00  0.00     0.003 A 
HETATM   12  C   UNL     1      42.316 -11.893  -3.609  1.00  0.00     0.000 A 
HETATM   13  C   UNL     1      41.163 -12.671  -3.663  1.00  0.00     0.003 A 
HETATM   14  C   UNL     1      40.467 -12.979  -2.490  1.00  0.00     0.037 A 
ENDBRANCH   8   9
ENDBRANCH   7   8
ENDBRANCH   4   7
ENDBRANCH   2   3
BRANCH   1  15
HETATM   15  C   UNL     1      42.926 -17.660   3.776  1.00  0.00     0.018 A 
HETATM   16  C   UNL     1      43.630 -17.465   4.956  1.00  0.00     0.018 A 
HETATM   17  C   UNL     1      43.605 -16.352   5.941  1.00  0.00     0.069 C 
HETATM   18  N   UNL     1      44.446 -18.555   5.138  1.00  0.00    -0.358 N 
HETATM   19  H   UNL     1      45.076 -18.684   5.917  1.00  0.00     0.166 HD
HETATM   20  C   UNL     1      44.294 -19.456   4.112  1.00  0.00     0.043 A 
HETATM   21  C   UNL     1      43.348 -18.924   3.240  1.00  0.00     0.004 A 
HETATM   22  C   UNL     1      44.922 -20.688   3.892  1.00  0.00     0.030 A 
HETATM   23  C   UNL     1      43.017 -19.660   2.081  1.00  0.00     0.014 A 
HETATM   24  C   UNL     1      43.636 -20.892   1.843  1.00  0.00     0.001 A 
HETATM   25  C   UNL     1      44.573 -21.399   2.739  1.00  0.00     0.002 A 
ENDBRANCH   1  15
TORSDOF 5
ENDMDL
MODEL 10
REMARK VINA RESULT:      -7.3      1.952      3.034
REMARK  5 active torsions:
REMARK  status: ('A' for Active; 'I' for Inactive)
REMARK    1  A    between atoms: C_7  and  C_8 
REMARK    2  A    between atoms: N_9  and  N_10 
REMARK       I    between atoms: N_10  and  C_11 
REMARK    3  A    between atoms: C_11  and  C_12 
REMARK    4  A    between atoms: C_12  and  O_13 
REMARK    5  A    between atoms: O_13  and  C_14 
ROOT
HETATM    1  C   UNL     1      43.542 -14.142   4.572  1.00  0.00     0.153 C 
HETATM    2  N   UNL     1      42.794 -13.993   5.621  1.00  0.00    -0.184 NA
ENDROOT
BRANCH   2   3
HETATM    3  N   UNL     1      43.294 -13.266   6.679  1.00  0.00    -0.246 N 
HETATM    4  C   UNL     1      44.302 -13.671   7.548  1.00  0.00     0.261 C 
HETATM    5  O   UNL     1      44.964 -14.703   7.458  1.00  0.00    -0.269 OA
HETATM    6  H   UNL     1      42.664 -12.542   7.022  1.00  0.00     0.192 HD
BRANCH   4   7
HETATM    7  C   UNL     1      44.607 -12.638   8.628  1.00  0.00     0.280 C 
BRANCH   7   8
HETATM    8  O   UNL     1      43.848 -11.446   8.454  1.00  0.00    -0.342 OA
BRANCH   8   9
HETATM    9  C   UNL     1      43.418 -10.847   9.609  1.00  0.00     0.069 A 
HETATM   10  C   UNL     1      44.354 -10.812  10.645  1.00  0.00     0.037 A 
HETATM   11  C   UNL     1      44.036 -10.222  11.870  1.00  0.00     0.003 A 
HETATM   12  C   UNL     1      42.771  -9.673  12.070  1.00  0.00     0.000 A 
HETATM   13  C   UNL     1      41.828  -9.715  11.047  1.00  0.00     0.003 A 
HETATM   14  C   UNL     1      42.148 -10.304   9.820  1.00  0.00     0.037 A 
ENDBRANCH   8   9
ENDBRANCH   7   8
ENDBRANCH   4   7
ENDBRANCH   2   3
BRANCH   1  15
HETATM   15  C   UNL     1      43.093 -14.940   3.443  1.00  0.00     0.018 A 
HETATM   16  C   UNL     1      42.498 -14.501   2.268  1.00  0.00     0.018 A 
HETATM   17  C   UNL     1      42.144 -13.136   1.799  1.00  0.00     0.069 C 
HETATM   18  N   UNL     1      42.252 -15.605   1.489  1.00  0.00    -0.358 N 
HETATM   19  H   UNL     1      41.822 -15.586   0.574  1.00  0.00     0.166 HD
HETATM   20  C   UNL     1      42.671 -16.752   2.119  1.00  0.00     0.043 A 
HETATM   21  C   UNL     1      43.202 -16.369   3.348  1.00  0.00     0.004 A 
HETATM   22  C   UNL     1      42.614 -18.086   1.698  1.00  0.00     0.030 A 
HETATM   23  C   UNL     1      43.696 -17.376   4.206  1.00  0.00     0.014 A 
HETATM   24  C   UNL     1      43.646 -18.716   3.804  1.00  0.00     0.001 A 
HETATM   25  C   UNL     1      43.114 -19.063   2.565  1.00  0.00     0.002 A 
ENDBRANCH   1  15
TORSDOF 5
ENDMDL
