MODEL 1
REMARK VINA RESULT:      -8.7      0.000      0.000
REMARK  8 active torsions:
REMARK  status: ('A' for Active; 'I' for Inactive)
REMARK    1  A    between atoms: C_2  and  O_3 
REMARK    2  A    between atoms: O_3  and  C_4 
REMARK    3  A    between atoms: C_5  and  N_6 
REMARK       I    between atoms: N_6  and  C_7 
REMARK       I    between atoms: C_7  and  N_8 
REMARK    4  A    between atoms: N_8  and  C_9 
REMARK    5  A    between atoms: C_9  and  C_10 
REMARK       I    between atoms: C_10  and  N_11 
REMARK    6  A    between atoms: N_11  and  N_12 
REMARK    7  A    between atoms: C_13  and  C_14 
REMARK    8  A    between atoms: C_17  and  N_18 
REMARK       I    between atoms: N_18  and  C_19 
ROOT
HETATM    1  C   UNL     1      39.609 -12.329   6.478  1.00  0.00     0.255 C 
HETATM    2  N   UNL     1      40.759 -13.095   6.572  1.00  0.00    -0.246 N 
HETATM    3  O   UNL     1      38.700 -12.515   5.667  1.00  0.00    -0.270 OA
HETATM    4  H   UNL     1      41.383 -12.960   7.373  1.00  0.00     0.192 HD
ENDROOT
BRANCH   1   5
HETATM    5  C   UNL     1      39.460 -11.287   7.591  1.00  0.00     0.228 C 
BRANCH   5   6
HETATM    6  N   UNL     1      39.851 -11.725   8.926  1.00  0.00    -0.334 N 
HETATM    7  C   UNL     1      40.322 -10.816   9.848  1.00  0.00     0.321 C 
HETATM    8  N   UNL     1      40.804 -11.464  10.962  1.00  0.00    -0.306 N 
HETATM    9  O   UNL     1      40.204  -9.607   9.686  1.00  0.00    -0.247 OA
HETATM   10  H   UNL     1      40.232 -12.245  11.246  1.00  0.00     0.171 HD
HETATM   11  H   UNL     1      40.344 -12.605   8.960  1.00  0.00     0.164 HD
BRANCH   8  12
HETATM   12  C   UNL     1      41.584 -10.847  11.967  1.00  0.00     0.069 A 
HETATM   13  C   UNL     1      42.913 -10.418  11.762  1.00  0.00     0.095 A 
HETATM   14  C   UNL     1      43.596  -9.797  12.815  1.00  0.00     0.039 A 
HETATM   15  C   UNL     1      42.992  -9.649  14.066  1.00  0.00     0.003 A 
HETATM   16  C   UNL     1      41.705 -10.132  14.283  1.00  0.00     0.002 A 
HETATM   17  C   UNL     1      41.007 -10.737  13.239  1.00  0.00     0.032 A 
BRANCH  13  18
HETATM   18  O   UNL     1      43.484 -10.718  10.552  1.00  0.00    -0.349 OA
BRANCH  18  19
HETATM   19  C   UNL     1      44.545 -11.669  10.526  1.00  0.00     0.171 C 
HETATM   20  C   UNL     1      45.742 -11.015   9.859  1.00  0.00     0.034 C 
ENDBRANCH  18  19
ENDBRANCH  13  18
ENDBRANCH   8  12
ENDBRANCH   5   6
ENDBRANCH   1   5
BRANCH   2  21
HETATM   21  N   UNL     1      40.940 -14.154   5.734  1.00  0.00    -0.184 NA
HETATM   22  C   UNL     1      42.112 -14.701   5.771  1.00  0.00     0.150 C 
BRANCH  22  23
HETATM   23  C   UNL     1      42.429 -15.892   4.955  1.00  0.00    -0.017 A 
HETATM   24  C   UNL     1      43.118 -15.767   3.747  1.00  0.00     0.015 A 
HETATM   25  C   UNL     1      43.369 -16.897   2.959  1.00  0.00     0.030 A 
HETATM   26  C   UNL     1      42.935 -18.158   3.371  1.00  0.00     0.034 A 
HETATM   27  C   UNL     1      42.261 -18.275   4.595  1.00  0.00     0.030 A 
HETATM   28  C   UNL     1      42.005 -17.148   5.386  1.00  0.00     0.015 A 
BRANCH  26  29
HETATM   29  N   UNL     1      43.116 -19.338   2.620  1.00  0.00    -0.328 N 
HETATM   30  C   UNL     1      44.091 -20.305   2.793  1.00  0.00     0.218 C 
HETATM   31  C   UNL     1      44.001 -21.400   1.760  1.00  0.00     0.117 C 
HETATM   32  O   UNL     1      44.944 -20.346   3.672  1.00  0.00    -0.274 OA
HETATM   33  H   UNL     1      42.463 -19.486   1.862  1.00  0.00     0.169 HD
ENDBRANCH  26  29
ENDBRANCH  22  23
ENDBRANCH   2  21
TORSDOF 8
ENDMDL
MODEL 2
REMARK VINA RESULT:      -8.7      2.408      3.668
REMARK  8 active torsions:
REMARK  status: ('A' for Active; 'I' for Inactive)
REMARK    1  A    between atoms: C_2  and  O_3 
REMARK    2  A    between atoms: O_3  and  C_4 
REMARK    3  A    between atoms: C_5  and  N_6 
REMARK       I    between atoms: N_6  and  C_7 
REMARK       I    between atoms: C_7  and  N_8 
REMARK    4  A    between atoms: N_8  and  C_9 
REMARK    5  A    between atoms: C_9  and  C_10 
REMARK       I    between atoms: C_10  and  N_11 
REMARK    6  A    between atoms: N_11  and  N_12 
REMARK    7  A    between atoms: C_13  and  C_14 
REMARK    8  A    between atoms: C_17  and  N_18 
REMARK       I    between atoms: N_18  and  C_19 
ROOT
HETATM    1  C   UNL     1      45.328 -12.856   8.225  1.00  0.00     0.255 C 
HETATM    2  N   UNL     1      44.358 -13.811   7.968  1.00  0.00    -0.246 N 
HETATM    3  O   UNL     1      46.405 -12.764   7.632  1.00  0.00    -0.270 OA
HETATM    4  H   UNL     1      43.437 -13.714   8.404  1.00  0.00     0.192 HD
ENDROOT
BRANCH   1   5
HETATM    5  C   UNL     1      44.898 -11.783   9.230  1.00  0.00     0.228 C 
BRANCH   5   6
HETATM    6  N   UNL     1      43.613 -12.005   9.884  1.00  0.00    -0.334 N 
HETATM    7  C   UNL     1      42.666 -11.005   9.917  1.00  0.00     0.321 C 
HETATM    8  N   UNL     1      41.619 -11.360  10.738  1.00  0.00    -0.306 N 
HETATM    9  O   UNL     1      42.750 -10.007   9.212  1.00  0.00    -0.247 OA
HETATM   10  H   UNL     1      41.351 -12.328  10.644  1.00  0.00     0.171 HD
HETATM   11  H   UNL     1      43.658 -12.529  10.746  1.00  0.00     0.164 HD
BRANCH   8  12
HETATM   12  C   UNL     1      40.623 -10.464  11.190  1.00  0.00     0.069 A 
HETATM   13  C   UNL     1      40.495 -10.063  12.536  1.00  0.00     0.095 A 
HETATM   14  C   UNL     1      39.487  -9.153  12.881  1.00  0.00     0.039 A 
HETATM   15  C   UNL     1      38.589  -8.687  11.918  1.00  0.00     0.003 A 
HETATM   16  C   UNL     1      38.679  -9.135  10.604  1.00  0.00     0.002 A 
HETATM   17  C   UNL     1      39.687 -10.027  10.242  1.00  0.00     0.032 A 
BRANCH  13  18
HETATM   18  O   UNL     1      41.326 -10.665  13.447  1.00  0.00    -0.349 OA
BRANCH  18  19
HETATM   19  C   UNL     1      42.068  -9.831  14.332  1.00  0.00     0.171 C 
HETATM   20  C   UNL     1      43.336  -9.401  13.616  1.00  0.00     0.034 C 
ENDBRANCH  18  19
ENDBRANCH  13  18
ENDBRANCH   8  12
ENDBRANCH   5   6
ENDBRANCH   1   5
BRANCH   2  21
HETATM   21  N   UNL     1      44.557 -14.733   6.985  1.00  0.00    -0.184 NA
HETATM   22  C   UNL     1      44.055 -15.904   7.209  1.00  0.00     0.150 C 
BRANCH  22  23
HETATM   23  C   UNL     1      44.149 -16.984   6.205  1.00  0.00    -0.017 A 
HETATM   24  C   UNL     1      43.357 -16.961   5.055  1.00  0.00     0.015 A 
HETATM   25  C   UNL     1      43.419 -18.016   4.136  1.00  0.00     0.030 A 
HETATM   26  C   UNL     1      44.272 -19.098   4.357  1.00  0.00     0.034 A 
HETATM   27  C   UNL     1      45.077 -19.103   5.505  1.00  0.00     0.030 A 
HETATM   28  C   UNL     1      45.018 -18.051   6.429  1.00  0.00     0.015 A 
BRANCH  26  29
HETATM   29  N   UNL     1      44.368 -20.214   3.499  1.00  0.00    -0.328 N 
HETATM   30  C   UNL     1      43.694 -20.421   2.308  1.00  0.00     0.218 C 
HETATM   31  C   UNL     1      44.013 -21.762   1.695  1.00  0.00     0.117 C 
HETATM   32  O   UNL     1      42.932 -19.644   1.745  1.00  0.00    -0.274 OA
HETATM   33  H   UNL     1      44.994 -20.951   3.797  1.00  0.00     0.169 HD
ENDBRANCH  26  29
ENDBRANCH  22  23
ENDBRANCH   2  21
TORSDOF 8
ENDMDL
MODEL 3
REMARK VINA RESULT:      -8.7      2.337      3.464
REMARK  8 active torsions:
REMARK  status: ('A' for Active; 'I' for Inactive)
REMARK    1  A    between atoms: C_2  and  O_3 
REMARK    2  A    between atoms: O_3  and  C_4 
REMARK    3  A    between atoms: C_5  and  N_6 
REMARK       I    between atoms: N_6  and  C_7 
REMARK       I    between atoms: C_7  and  N_8 
REMARK    4  A    between atoms: N_8  and  C_9 
REMARK    5  A    between atoms: C_9  and  C_10 
REMARK       I    between atoms: C_10  and  N_11 
REMARK    6  A    between atoms: N_11  and  N_12 
REMARK    7  A    between atoms: C_13  and  C_14 
REMARK    8  A    between atoms: C_17  and  N_18 
REMARK       I    between atoms: N_18  and  C_19 
ROOT
HETATM    1  C   UNL     1      45.186 -13.380   7.704  1.00  0.00     0.255 C 
HETATM    2  N   UNL     1      44.143 -14.291   7.697  1.00  0.00    -0.246 N 
HETATM    3  O   UNL     1      46.024 -13.257   6.808  1.00  0.00    -0.270 OA
HETATM    4  H   UNL     1      43.412 -14.216   8.410  1.00  0.00     0.192 HD
ENDROOT
BRANCH   1   5
HETATM    5  C   UNL     1      45.142 -12.389   8.871  1.00  0.00     0.228 C 
BRANCH   5   6
HETATM    6  N   UNL     1      43.956 -12.458   9.718  1.00  0.00    -0.334 N 
HETATM    7  C   UNL     1      43.521 -11.344  10.400  1.00  0.00     0.321 C 
HETATM    8  N   UNL     1      42.512 -11.676  11.275  1.00  0.00    -0.306 N 
HETATM    9  O   UNL     1      43.941 -10.221  10.146  1.00  0.00    -0.247 OA
HETATM   10  H   UNL     1      41.856 -12.341  10.891  1.00  0.00     0.171 HD
HETATM   11  H   UNL     1      43.866 -13.306  10.258  1.00  0.00     0.164 HD
BRANCH   8  12
HETATM   12  C   UNL     1      42.032 -10.827  12.298  1.00  0.00     0.069 A 
HETATM   13  C   UNL     1      40.816 -10.117  12.208  1.00  0.00     0.095 A 
HETATM   14  C   UNL     1      40.416  -9.316  13.286  1.00  0.00     0.039 A 
HETATM   15  C   UNL     1      41.231  -9.180  14.412  1.00  0.00     0.003 A 
HETATM   16  C   UNL     1      42.460  -9.831  14.469  1.00  0.00     0.002 A 
HETATM   17  C   UNL     1      42.863 -10.645  13.412  1.00  0.00     0.032 A 
BRANCH  13  18
HETATM   18  O   UNL     1      40.137 -10.194  11.019  1.00  0.00    -0.349 OA
BRANCH  18  19
HETATM   19  C   UNL     1      39.811  -8.978  10.351  1.00  0.00     0.171 C 
HETATM   20  C   UNL     1      40.942  -8.655   9.391  1.00  0.00     0.034 C 
ENDBRANCH  18  19
ENDBRANCH  13  18
ENDBRANCH   8  12
ENDBRANCH   5   6
ENDBRANCH   1   5
BRANCH   2  21
HETATM   21  N   UNL     1      43.980 -15.129   6.635  1.00  0.00    -0.184 NA
HETATM   22  C   UNL     1      44.409 -16.338   6.808  1.00  0.00     0.150 C 
BRANCH  22  23
HETATM   23  C   UNL     1      44.248 -17.366   5.758  1.00  0.00    -0.017 A 
HETATM   24  C   UNL     1      44.819 -18.632   5.904  1.00  0.00     0.015 A 
HETATM   25  C   UNL     1      44.702 -19.580   4.881  1.00  0.00     0.030 A 
HETATM   26  C   UNL     1      44.013 -19.273   3.707  1.00  0.00     0.034 A 
HETATM   27  C   UNL     1      43.427 -18.005   3.577  1.00  0.00     0.030 A 
HETATM   28  C   UNL     1      43.543 -17.052   4.597  1.00  0.00     0.015 A 
BRANCH  26  29
HETATM   29  N   UNL     1      43.880 -20.158   2.616  1.00  0.00    -0.328 N 
HETATM   30  C   UNL     1      44.226 -21.497   2.572  1.00  0.00     0.218 C 
HETATM   31  C   UNL     1      43.988 -22.105   1.212  1.00  0.00     0.117 C 
HETATM   32  O   UNL     1      44.658 -22.180   3.493  1.00  0.00    -0.274 OA
HETATM   33  H   UNL     1      43.496 -19.762   1.768  1.00  0.00     0.169 HD
ENDBRANCH  26  29
ENDBRANCH  22  23
ENDBRANCH   2  21
TORSDOF 8
ENDMDL
MODEL 4
REMARK VINA RESULT:      -7.8      1.627      2.654
REMARK  8 active torsions:
REMARK  status: ('A' for Active; 'I' for Inactive)
REMARK    1  A    between atoms: C_2  and  O_3 
REMARK    2  A    between atoms: O_3  and  C_4 
REMARK    3  A    between atoms: C_5  and  N_6 
REMARK       I    between atoms: N_6  and  C_7 
REMARK       I    between atoms: C_7  and  N_8 
REMARK    4  A    between atoms: N_8  and  C_9 
REMARK    5  A    between atoms: C_9  and  C_10 
REMARK       I    between atoms: C_10  and  N_11 
REMARK    6  A    between atoms: N_11  and  N_12 
REMARK    7  A    between atoms: C_13  and  C_14 
REMARK    8  A    between atoms: C_17  and  N_18 
REMARK       I    between atoms: N_18  and  C_19 
ROOT
HETATM    1  C   UNL     1      40.861 -12.579   5.333  1.00  0.00     0.255 C 
HETATM    2  N   UNL     1      41.847 -12.726   4.371  1.00  0.00    -0.246 N 
HETATM    3  O   UNL     1      40.057 -13.453   5.661  1.00  0.00    -0.270 OA
HETATM    4  H   UNL     1      42.562 -12.000   4.278  1.00  0.00     0.192 HD
ENDROOT
BRANCH   1   5
HETATM    5  C   UNL     1      40.934 -11.258   6.105  1.00  0.00     0.228 C 
BRANCH   5   6
HETATM    6  N   UNL     1      40.702 -11.350   7.542  1.00  0.00    -0.334 N 
HETATM    7  C   UNL     1      41.382 -10.525   8.411  1.00  0.00     0.321 C 
HETATM    8  N   UNL     1      41.154 -10.905   9.715  1.00  0.00    -0.306 N 
HETATM    9  O   UNL     1      42.002  -9.542   8.024  1.00  0.00    -0.247 OA
HETATM   10  H   UNL     1      40.196 -11.171   9.890  1.00  0.00     0.171 HD
HETATM   11  H   UNL     1      40.594 -12.288   7.899  1.00  0.00     0.164 HD
BRANCH   8  12
HETATM   12  C   UNL     1      41.898 -10.438  10.822  1.00  0.00     0.069 A 
HETATM   13  C   UNL     1      41.453  -9.404  11.674  1.00  0.00     0.095 A 
HETATM   14  C   UNL     1      42.254  -9.027  12.759  1.00  0.00     0.039 A 
HETATM   15  C   UNL     1      43.499  -9.626  12.968  1.00  0.00     0.003 A 
HETATM   16  C   UNL     1      43.962 -10.599  12.088  1.00  0.00     0.002 A 
HETATM   17  C   UNL     1      43.169 -10.998  11.014  1.00  0.00     0.032 A 
BRANCH  13  18
HETATM   18  O   UNL     1      40.286  -8.772  11.328  1.00  0.00    -0.349 OA
BRANCH  18  19
HETATM   19  C   UNL     1      39.336  -8.508  12.356  1.00  0.00     0.171 C 
HETATM   20  C   UNL     1      38.088  -9.321  12.060  1.00  0.00     0.034 C 
ENDBRANCH  18  19
ENDBRANCH  13  18
ENDBRANCH   8  12
ENDBRANCH   5   6
ENDBRANCH   1   5
BRANCH   2  21
HETATM   21  N   UNL     1      41.987 -13.913   3.718  1.00  0.00    -0.184 NA
HETATM   22  C   UNL     1      42.972 -14.654   4.112  1.00  0.00     0.150 C 
BRANCH  22  23
HETATM   23  C   UNL     1      43.208 -15.991   3.528  1.00  0.00    -0.017 A 
HETATM   24  C   UNL     1      43.597 -16.129   2.194  1.00  0.00     0.015 A 
HETATM   25  C   UNL     1      43.769 -17.403   1.639  1.00  0.00     0.030 A 
HETATM   26  C   UNL     1      43.557 -18.546   2.411  1.00  0.00     0.034 A 
HETATM   27  C   UNL     1      43.185 -18.397   3.755  1.00  0.00     0.030 A 
HETATM   28  C   UNL     1      43.009 -17.125   4.315  1.00  0.00     0.015 A 
BRANCH  26  29
HETATM   29  N   UNL     1      43.675 -19.863   1.918  1.00  0.00    -0.328 N 
HETATM   30  C   UNL     1      44.340 -20.925   2.506  1.00  0.00     0.218 C 
HETATM   31  C   UNL     1      44.295 -22.170   1.654  1.00  0.00     0.117 C 
HETATM   32  O   UNL     1      44.901 -20.935   3.595  1.00  0.00    -0.274 OA
HETATM   33  H   UNL     1      43.229 -20.045   1.028  1.00  0.00     0.169 HD
ENDBRANCH  26  29
ENDBRANCH  22  23
ENDBRANCH   2  21
TORSDOF 8
ENDMDL
MODEL 5
REMARK VINA RESULT:      -7.7      5.576      9.798
REMARK  8 active torsions:
REMARK  status: ('A' for Active; 'I' for Inactive)
REMARK    1  A    between atoms: C_2  and  O_3 
REMARK    2  A    between atoms: O_3  and  C_4 
REMARK    3  A    between atoms: C_5  and  N_6 
REMARK       I    between atoms: N_6  and  C_7 
REMARK       I    between atoms: C_7  and  N_8 
REMARK    4  A    between atoms: N_8  and  C_9 
REMARK    5  A    between atoms: C_9  and  C_10 
REMARK       I    between atoms: C_10  and  N_11 
REMARK    6  A    between atoms: N_11  and  N_12 
REMARK    7  A    between atoms: C_13  and  C_14 
REMARK    8  A    between atoms: C_17  and  N_18 
REMARK       I    between atoms: N_18  and  C_19 
ROOT
HETATM    1  C   UNL     1      41.049 -15.203   5.082  1.00  0.00     0.255 C 
HETATM    2  N   UNL     1      41.407 -15.427   3.763  1.00  0.00    -0.246 N 
HETATM    3  O   UNL     1      39.946 -14.803   5.458  1.00  0.00    -0.270 OA
HETATM    4  H   UNL     1      42.290 -15.904   3.560  1.00  0.00     0.192 HD
ENDROOT
BRANCH   1   5
HETATM    5  C   UNL     1      42.104 -15.650   6.099  1.00  0.00     0.228 C 
BRANCH   5   6
HETATM    6  N   UNL     1      43.215 -16.427   5.561  1.00  0.00    -0.334 N 
HETATM    7  C   UNL     1      43.024 -17.731   5.159  1.00  0.00     0.321 C 
HETATM    8  N   UNL     1      44.230 -18.327   4.866  1.00  0.00    -0.306 N 
HETATM    9  O   UNL     1      41.905 -18.205   5.003  1.00  0.00    -0.247 OA
HETATM   10  H   UNL     1      44.865 -17.717   4.373  1.00  0.00     0.171 HD
HETATM   11  H   UNL     1      44.099 -16.289   6.029  1.00  0.00     0.164 HD
BRANCH   8  12
HETATM   12  C   UNL     1      44.406 -19.717   4.679  1.00  0.00     0.069 A 
HETATM   13  C   UNL     1      44.546 -20.316   3.409  1.00  0.00     0.095 A 
HETATM   14  C   UNL     1      44.738 -21.701   3.329  1.00  0.00     0.039 A 
HETATM   15  C   UNL     1      44.739 -22.487   4.484  1.00  0.00     0.003 A 
HETATM   16  C   UNL     1      44.536 -21.901   5.729  1.00  0.00     0.002 A 
HETATM   17  C   UNL     1      44.361 -20.522   5.826  1.00  0.00     0.032 A 
BRANCH  13  18
HETATM   18  O   UNL     1      44.400 -19.500   2.317  1.00  0.00    -0.349 OA
BRANCH  18  19
HETATM   19  C   UNL     1      43.089 -19.304   1.795  1.00  0.00     0.171 C 
HETATM   20  C   UNL     1      42.985 -17.866   1.321  1.00  0.00     0.034 C 
ENDBRANCH  18  19
ENDBRANCH  13  18
ENDBRANCH   8  12
ENDBRANCH   5   6
ENDBRANCH   1   5
BRANCH   2  21
HETATM   21  N   UNL     1      40.500 -15.214   2.768  1.00  0.00    -0.184 NA
HETATM   22  C   UNL     1      40.976 -14.701   1.680  1.00  0.00     0.150 C 
BRANCH  22  23
HETATM   23  C   UNL     1      40.115 -14.467   0.502  1.00  0.00    -0.017 A 
HETATM   24  C   UNL     1      40.633 -14.559  -0.791  1.00  0.00     0.015 A 
HETATM   25  C   UNL     1      39.819 -14.286  -1.898  1.00  0.00     0.030 A 
HETATM   26  C   UNL     1      38.484 -13.921  -1.721  1.00  0.00     0.034 A 
HETATM   27  C   UNL     1      37.968 -13.849  -0.419  1.00  0.00     0.030 A 
HETATM   28  C   UNL     1      38.778 -14.119   0.691  1.00  0.00     0.015 A 
BRANCH  26  29
HETATM   29  N   UNL     1      37.609 -13.596  -2.779  1.00  0.00    -0.328 N 
HETATM   30  C   UNL     1      37.136 -14.439  -3.770  1.00  0.00     0.218 C 
HETATM   31  C   UNL     1      36.260 -13.719  -4.765  1.00  0.00     0.117 C 
HETATM   32  O   UNL     1      37.342 -15.643  -3.877  1.00  0.00    -0.274 OA
HETATM   33  H   UNL     1      37.303 -12.633  -2.822  1.00  0.00     0.169 HD
ENDBRANCH  26  29
ENDBRANCH  22  23
ENDBRANCH   2  21
TORSDOF 8
ENDMDL
MODEL 6
REMARK VINA RESULT:      -7.3      6.823     10.426
REMARK  8 active torsions:
REMARK  status: ('A' for Active; 'I' for Inactive)
REMARK    1  A    between atoms: C_2  and  O_3 
REMARK    2  A    between atoms: O_3  and  C_4 
REMARK    3  A    between atoms: C_5  and  N_6 
REMARK       I    between atoms: N_6  and  C_7 
REMARK       I    between atoms: C_7  and  N_8 
REMARK    4  A    between atoms: N_8  and  C_9 
REMARK    5  A    between atoms: C_9  and  C_10 
REMARK       I    between atoms: C_10  and  N_11 
REMARK    6  A    between atoms: N_11  and  N_12 
REMARK    7  A    between atoms: C_13  and  C_14 
REMARK    8  A    between atoms: C_17  and  N_18 
REMARK       I    between atoms: N_18  and  C_19 
ROOT
HETATM    1  C   UNL     1      39.384 -13.091   2.674  1.00  0.00     0.255 C 
HETATM    2  N   UNL     1      38.725 -14.003   1.867  1.00  0.00    -0.246 N 
HETATM    3  O   UNL     1      39.471 -11.882   2.451  1.00  0.00    -0.270 OA
HETATM    4  H   UNL     1      38.574 -14.955   2.211  1.00  0.00     0.192 HD
ENDROOT
BRANCH   1   5
HETATM    5  C   UNL     1      39.886 -13.677   3.997  1.00  0.00     0.228 C 
BRANCH   5   6
HETATM    6  N   UNL     1      39.978 -15.131   4.052  1.00  0.00    -0.334 N 
HETATM    7  C   UNL     1      41.190 -15.745   4.281  1.00  0.00     0.321 C 
HETATM    8  N   UNL     1      41.083 -17.106   4.105  1.00  0.00    -0.306 N 
HETATM    9  O   UNL     1      42.167 -15.124   4.683  1.00  0.00    -0.247 OA
HETATM   10  H   UNL     1      40.226 -17.488   4.479  1.00  0.00     0.171 HD
HETATM   11  H   UNL     1      39.415 -15.621   3.372  1.00  0.00     0.164 HD
BRANCH   8  12
HETATM   12  C   UNL     1      42.184 -17.986   4.010  1.00  0.00     0.069 A 
HETATM   13  C   UNL     1      42.704 -18.447   2.781  1.00  0.00     0.095 A 
HETATM   14  C   UNL     1      43.814 -19.301   2.791  1.00  0.00     0.039 A 
HETATM   15  C   UNL     1      44.369 -19.733   3.998  1.00  0.00     0.003 A 
HETATM   16  C   UNL     1      43.814 -19.328   5.207  1.00  0.00     0.002 A 
HETATM   17  C   UNL     1      42.720 -18.465   5.214  1.00  0.00     0.032 A 
BRANCH  13  18
HETATM   18  O   UNL     1      42.025 -18.088   1.645  1.00  0.00    -0.349 OA
BRANCH  18  19
HETATM   19  C   UNL     1      42.601 -17.091   0.805  1.00  0.00     0.171 C 
HETATM   20  C   UNL     1      41.536 -16.046   0.523  1.00  0.00     0.034 C 
ENDBRANCH  18  19
ENDBRANCH  13  18
ENDBRANCH   8  12
ENDBRANCH   5   6
ENDBRANCH   1   5
BRANCH   2  21
HETATM   21  N   UNL     1      38.099 -13.578   0.733  1.00  0.00    -0.184 NA
HETATM   22  C   UNL     1      38.646 -13.950  -0.379  1.00  0.00     0.150 C 
BRANCH  22  23
HETATM   23  C   UNL     1      38.043 -13.606  -1.683  1.00  0.00    -0.017 A 
HETATM   24  C   UNL     1      37.474 -12.349  -1.898  1.00  0.00     0.015 A 
HETATM   25  C   UNL     1      36.862 -12.053  -3.123  1.00  0.00     0.030 A 
HETATM   26  C   UNL     1      36.814 -13.008  -4.139  1.00  0.00     0.034 A 
HETATM   27  C   UNL     1      37.405 -14.261  -3.920  1.00  0.00     0.030 A 
HETATM   28  C   UNL     1      38.017 -14.563  -2.697  1.00  0.00     0.015 A 
BRANCH  26  29
HETATM   29  N   UNL     1      36.186 -12.801  -5.386  1.00  0.00    -0.328 N 
HETATM   30  C   UNL     1      34.863 -13.042  -5.712  1.00  0.00     0.218 C 
HETATM   31  C   UNL     1      34.569 -12.751  -7.163  1.00  0.00     0.117 C 
HETATM   32  O   UNL     1      33.974 -13.424  -4.960  1.00  0.00    -0.274 OA
HETATM   33  H   UNL     1      36.777 -12.446  -6.126  1.00  0.00     0.169 HD
ENDBRANCH  26  29
ENDBRANCH  22  23
ENDBRANCH   2  21
TORSDOF 8
ENDMDL
MODEL 7
REMARK VINA RESULT:      -7.2      1.770      2.472
REMARK  8 active torsions:
REMARK  status: ('A' for Active; 'I' for Inactive)
REMARK    1  A    between atoms: C_2  and  O_3 
REMARK    2  A    between atoms: O_3  and  C_4 
REMARK    3  A    between atoms: C_5  and  N_6 
REMARK       I    between atoms: N_6  and  C_7 
REMARK       I    between atoms: C_7  and  N_8 
REMARK    4  A    between atoms: N_8  and  C_9 
REMARK    5  A    between atoms: C_9  and  C_10 
REMARK       I    between atoms: C_10  and  N_11 
REMARK    6  A    between atoms: N_11  and  N_12 
REMARK    7  A    between atoms: C_13  and  C_14 
REMARK    8  A    between atoms: C_17  and  N_18 
REMARK       I    between atoms: N_18  and  C_19 
ROOT
HETATM    1  C   UNL     1      40.331 -12.957   5.195  1.00  0.00     0.255 C 
HETATM    2  N   UNL     1      41.107 -13.786   5.987  1.00  0.00    -0.246 N 
HETATM    3  O   UNL     1      40.321 -12.963   3.962  1.00  0.00    -0.270 OA
HETATM    4  H   UNL     1      40.934 -13.814   6.996  1.00  0.00     0.192 HD
ENDROOT
BRANCH   1   5
HETATM    5  C   UNL     1      39.329 -12.104   5.978  1.00  0.00     0.228 C 
BRANCH   5   6
HETATM    6  N   UNL     1      39.905 -11.158   6.926  1.00  0.00    -0.334 N 
HETATM    7  C   UNL     1      39.553 -11.203   8.257  1.00  0.00     0.321 C 
HETATM    8  N   UNL     1      40.063 -10.114   8.929  1.00  0.00    -0.306 N 
HETATM    9  O   UNL     1      38.955 -12.158   8.739  1.00  0.00    -0.247 OA
HETATM   10  H   UNL     1      41.002  -9.878   8.646  1.00  0.00     0.171 HD
HETATM   11  H   UNL     1      40.005 -10.214   6.581  1.00  0.00     0.164 HD
BRANCH   8  12
HETATM   12  C   UNL     1      39.673  -9.728  10.231  1.00  0.00     0.069 A 
HETATM   13  C   UNL     1      40.418 -10.040  11.388  1.00  0.00     0.095 A 
HETATM   14  C   UNL     1      39.959  -9.593  12.633  1.00  0.00     0.039 A 
HETATM   15  C   UNL     1      38.754  -8.893  12.738  1.00  0.00     0.003 A 
HETATM   16  C   UNL     1      37.990  -8.644  11.603  1.00  0.00     0.002 A 
HETATM   17  C   UNL     1      38.443  -9.067  10.354  1.00  0.00     0.032 A 
BRANCH  13  18
HETATM   18  O   UNL     1      41.517 -10.844  11.222  1.00  0.00    -0.349 OA
BRANCH  18  19
HETATM   19  C   UNL     1      42.430 -10.967  12.309  1.00  0.00     0.171 C 
HETATM   20  C   UNL     1      43.603 -10.041  12.041  1.00  0.00     0.034 C 
ENDBRANCH  18  19
ENDBRANCH  13  18
ENDBRANCH   8  12
ENDBRANCH   5   6
ENDBRANCH   1   5
BRANCH   2  21
HETATM   21  N   UNL     1      41.931 -14.703   5.408  1.00  0.00    -0.184 NA
HETATM   22  C   UNL     1      41.454 -15.902   5.315  1.00  0.00     0.150 C 
BRANCH  22  23
HETATM   23  C   UNL     1      42.218 -16.984   4.660  1.00  0.00    -0.017 A 
HETATM   24  C   UNL     1      42.234 -17.107   3.269  1.00  0.00     0.015 A 
HETATM   25  C   UNL     1      42.921 -18.166   2.663  1.00  0.00     0.030 A 
HETATM   26  C   UNL     1      43.598 -19.107   3.440  1.00  0.00     0.034 A 
HETATM   27  C   UNL     1      43.592 -18.964   4.835  1.00  0.00     0.030 A 
HETATM   28  C   UNL     1      42.905 -17.908   5.447  1.00  0.00     0.015 A 
BRANCH  26  29
HETATM   29  N   UNL     1      44.283 -20.221   2.910  1.00  0.00    -0.328 N 
HETATM   30  C   UNL     1      43.767 -21.222   2.105  1.00  0.00     0.218 C 
HETATM   31  C   UNL     1      44.792 -22.279   1.779  1.00  0.00     0.117 C 
HETATM   32  O   UNL     1      42.630 -21.295   1.653  1.00  0.00    -0.274 OA
HETATM   33  H   UNL     1      45.261 -20.298   3.156  1.00  0.00     0.169 HD
ENDBRANCH  26  29
ENDBRANCH  22  23
ENDBRANCH   2  21
TORSDOF 8
ENDMDL
MODEL 8
REMARK VINA RESULT:      -7.2      5.965      9.962
REMARK  8 active torsions:
REMARK  status: ('A' for Active; 'I' for Inactive)
REMARK    1  A    between atoms: C_2  and  O_3 
REMARK    2  A    between atoms: O_3  and  C_4 
REMARK    3  A    between atoms: C_5  and  N_6 
REMARK       I    between atoms: N_6  and  C_7 
REMARK       I    between atoms: C_7  and  N_8 
REMARK    4  A    between atoms: N_8  and  C_9 
REMARK    5  A    between atoms: C_9  and  C_10 
REMARK       I    between atoms: C_10  and  N_11 
REMARK    6  A    between atoms: N_11  and  N_12 
REMARK    7  A    between atoms: C_13  and  C_14 
REMARK    8  A    between atoms: C_17  and  N_18 
REMARK       I    between atoms: N_18  and  C_19 
ROOT
HETATM    1  C   UNL     1      40.200 -14.027   2.874  1.00  0.00     0.255 C 
HETATM    2  N   UNL     1      41.362 -13.530   2.307  1.00  0.00    -0.246 N 
HETATM    3  O   UNL     1      39.149 -14.237   2.266  1.00  0.00    -0.270 OA
HETATM    4  H   UNL     1      42.225 -13.535   2.857  1.00  0.00     0.192 HD
ENDROOT
BRANCH   1   5
HETATM    5  C   UNL     1      40.355 -14.461   4.335  1.00  0.00     0.228 C 
BRANCH   5   6
HETATM    6  N   UNL     1      40.591 -15.884   4.552  1.00  0.00    -0.334 N 
HETATM    7  C   UNL     1      41.824 -16.435   4.279  1.00  0.00     0.321 C 
HETATM    8  N   UNL     1      41.771 -17.808   4.374  1.00  0.00    -0.306 N 
HETATM    9  O   UNL     1      42.817 -15.743   4.087  1.00  0.00    -0.247 OA
HETATM   10  H   UNL     1      41.216 -18.131   5.153  1.00  0.00     0.171 HD
HETATM   11  H   UNL     1      39.827 -16.489   4.290  1.00  0.00     0.164 HD
BRANCH   8  12
HETATM   12  C   UNL     1      42.782 -18.678   3.907  1.00  0.00     0.069 A 
HETATM   13  C   UNL     1      43.740 -19.276   4.753  1.00  0.00     0.095 A 
HETATM   14  C   UNL     1      44.690 -20.142   4.197  1.00  0.00     0.039 A 
HETATM   15  C   UNL     1      44.723 -20.372   2.819  1.00  0.00     0.003 A 
HETATM   16  C   UNL     1      43.817 -19.730   1.981  1.00  0.00     0.002 A 
HETATM   17  C   UNL     1      42.855 -18.878   2.522  1.00  0.00     0.032 A 
BRANCH  13  18
HETATM   18  O   UNL     1      43.728 -18.899   6.071  1.00  0.00    -0.349 OA
BRANCH  18  19
HETATM   19  C   UNL     1      44.908 -18.311   6.612  1.00  0.00     0.171 C 
HETATM   20  C   UNL     1      44.721 -16.804   6.614  1.00  0.00     0.034 C 
ENDBRANCH  18  19
ENDBRANCH  13  18
ENDBRANCH   8  12
ENDBRANCH   5   6
ENDBRANCH   1   5
BRANCH   2  21
HETATM   21  N   UNL     1      41.400 -13.249   0.974  1.00  0.00    -0.184 NA
HETATM   22  C   UNL     1      42.049 -12.178   0.649  1.00  0.00     0.150 C 
BRANCH  22  23
HETATM   23  C   UNL     1      42.216 -11.782  -0.765  1.00  0.00    -0.017 A 
HETATM   24  C   UNL     1      42.875 -10.599  -1.103  1.00  0.00     0.015 A 
HETATM   25  C   UNL     1      42.982 -10.210  -2.444  1.00  0.00     0.030 A 
HETATM   26  C   UNL     1      42.436 -11.000  -3.456  1.00  0.00     0.034 A 
HETATM   27  C   UNL     1      41.793 -12.197  -3.108  1.00  0.00     0.030 A 
HETATM   28  C   UNL     1      41.680 -12.589  -1.768  1.00  0.00     0.015 A 
BRANCH  26  29
HETATM   29  N   UNL     1      42.471 -10.662  -4.826  1.00  0.00    -0.328 N 
HETATM   30  C   UNL     1      41.474 -10.053  -5.568  1.00  0.00     0.218 C 
HETATM   31  C   UNL     1      41.854  -9.901  -7.020  1.00  0.00     0.117 C 
HETATM   32  O   UNL     1      40.396  -9.637  -5.159  1.00  0.00    -0.274 OA
HETATM   33  H   UNL     1      43.319 -10.904  -5.321  1.00  0.00     0.169 HD
ENDBRANCH  26  29
ENDBRANCH  22  23
ENDBRANCH   2  21
TORSDOF 8
ENDMDL
MODEL 9
REMARK VINA RESULT:      -7.2      6.658     10.161
REMARK  8 active torsions:
REMARK  status: ('A' for Active; 'I' for Inactive)
REMARK    1  A    between atoms: C_2  and  O_3 
REMARK    2  A    between atoms: O_3  and  C_4 
REMARK    3  A    between atoms: C_5  and  N_6 
REMARK       I    between atoms: N_6  and  C_7 
REMARK       I    between atoms: C_7  and  N_8 
REMARK    4  A    between atoms: N_8  and  C_9 
REMARK    5  A    between atoms: C_9  and  C_10 
REMARK       I    between atoms: C_10  and  N_11 
REMARK    6  A    between atoms: N_11  and  N_12 
REMARK    7  A    between atoms: C_13  and  C_14 
REMARK    8  A    between atoms: C_17  and  N_18 
REMARK       I    between atoms: N_18  and  C_19 
ROOT
HETATM    1  C   UNL     1      39.728 -13.199   2.802  1.00  0.00     0.255 C 
HETATM    2  N   UNL     1      38.721 -13.912   2.172  1.00  0.00    -0.246 N 
HETATM    3  O   UNL     1      40.206 -12.139   2.394  1.00  0.00    -0.270 OA
HETATM    4  H   UNL     1      38.285 -14.697   2.664  1.00  0.00     0.192 HD
ENDROOT
BRANCH   1   5
HETATM    5  C   UNL     1      40.121 -13.754   4.175  1.00  0.00     0.228 C 
BRANCH   5   6
HETATM    6  N   UNL     1      40.242 -15.205   4.263  1.00  0.00    -0.334 N 
HETATM    7  C   UNL     1      41.471 -15.810   4.126  1.00  0.00     0.321 C 
HETATM    8  N   UNL     1      41.330 -17.178   4.053  1.00  0.00    -0.306 N 
HETATM    9  O   UNL     1      42.518 -15.175   4.174  1.00  0.00    -0.247 OA
HETATM   10  H   UNL     1      40.638 -17.541   4.693  1.00  0.00     0.171 HD
HETATM   11  H   UNL     1      39.500 -15.723   3.815  1.00  0.00     0.164 HD
BRANCH   8  12
HETATM   12  C   UNL     1      42.357 -18.065   3.656  1.00  0.00     0.069 A 
HETATM   13  C   UNL     1      43.140 -18.802   4.568  1.00  0.00     0.095 A 
HETATM   14  C   UNL     1      44.120 -19.672   4.074  1.00  0.00     0.039 A 
HETATM   15  C   UNL     1      44.356 -19.772   2.701  1.00  0.00     0.003 A 
HETATM   16  C   UNL     1      43.625 -18.995   1.808  1.00  0.00     0.002 A 
HETATM   17  C   UNL     1      42.635 -18.137   2.284  1.00  0.00     0.032 A 
BRANCH  13  18
HETATM   18  O   UNL     1      42.943 -18.552   5.902  1.00  0.00    -0.349 OA
BRANCH  18  19
HETATM   19  C   UNL     1      44.089 -18.370   6.729  1.00  0.00     0.171 C 
HETATM   20  C   UNL     1      44.485 -16.906   6.662  1.00  0.00     0.034 C 
ENDBRANCH  18  19
ENDBRANCH  13  18
ENDBRANCH   8  12
ENDBRANCH   5   6
ENDBRANCH   1   5
BRANCH   2  21
HETATM   21  N   UNL     1      38.176 -13.440   1.017  1.00  0.00    -0.184 NA
HETATM   22  C   UNL     1      38.626 -13.975  -0.072  1.00  0.00     0.150 C 
BRANCH  22  23
HETATM   23  C   UNL     1      38.085 -13.596  -1.394  1.00  0.00    -0.017 A 
HETATM   24  C   UNL     1      37.445 -12.369  -1.579  1.00  0.00     0.015 A 
HETATM   25  C   UNL     1      36.892 -12.044  -2.824  1.00  0.00     0.030 A 
HETATM   26  C   UNL     1      36.977 -12.938  -3.892  1.00  0.00     0.034 A 
HETATM   27  C   UNL     1      37.640 -14.159  -3.702  1.00  0.00     0.030 A 
HETATM   28  C   UNL     1      38.192 -14.491  -2.458  1.00  0.00     0.015 A 
BRANCH  26  29
HETATM   29  N   UNL     1      36.418 -12.701  -5.165  1.00  0.00    -0.328 N 
HETATM   30  C   UNL     1      35.268 -13.258  -5.696  1.00  0.00     0.218 C 
HETATM   31  C   UNL     1      35.013 -12.805  -7.112  1.00  0.00     0.117 C 
HETATM   32  O   UNL     1      34.486 -14.018  -5.135  1.00  0.00    -0.274 OA
HETATM   33  H   UNL     1      36.923 -12.056  -5.759  1.00  0.00     0.169 HD
ENDBRANCH  26  29
ENDBRANCH  22  23
ENDBRANCH   2  21
TORSDOF 8
ENDMDL
MODEL 10
REMARK VINA RESULT:      -7.1      3.390      3.891
REMARK  8 active torsions:
REMARK  status: ('A' for Active; 'I' for Inactive)
REMARK    1  A    between atoms: C_2  and  O_3 
REMARK    2  A    between atoms: O_3  and  C_4 
REMARK    3  A    between atoms: C_5  and  N_6 
REMARK       I    between atoms: N_6  and  C_7 
REMARK       I    between atoms: C_7  and  N_8 
REMARK    4  A    between atoms: N_8  and  C_9 
REMARK    5  A    between atoms: C_9  and  C_10 
REMARK       I    between atoms: C_10  and  N_11 
REMARK    6  A    between atoms: N_11  and  N_12 
REMARK    7  A    between atoms: C_13  and  C_14 
REMARK    8  A    between atoms: C_17  and  N_18 
REMARK       I    between atoms: N_18  and  C_19 
ROOT
HETATM    1  C   UNL     1      40.108 -11.442   6.543  1.00  0.00     0.255 C 
HETATM    2  N   UNL     1      39.104 -11.769   5.646  1.00  0.00    -0.246 N 
HETATM    3  O   UNL     1      41.314 -11.452   6.290  1.00  0.00    -0.270 OA
HETATM    4  H   UNL     1      38.130 -11.583   5.900  1.00  0.00     0.192 HD
ENDROOT
BRANCH   1   5
HETATM    5  C   UNL     1      39.596 -10.896   7.879  1.00  0.00     0.228 C 
BRANCH   5   6
HETATM    6  N   UNL     1      40.225 -11.448   9.073  1.00  0.00    -0.334 N 
HETATM    7  C   UNL     1      40.434 -10.657  10.181  1.00  0.00     0.321 C 
HETATM    8  N   UNL     1      41.203 -11.321  11.111  1.00  0.00    -0.306 N 
HETATM    9  O   UNL     1      39.898  -9.562  10.308  1.00  0.00    -0.247 OA
HETATM   10  H   UNL     1      40.958 -12.295  11.205  1.00  0.00     0.171 HD
HETATM   11  H   UNL     1      40.991 -12.083   8.898  1.00  0.00     0.164 HD
BRANCH   8  12
HETATM   12  C   UNL     1      41.808 -10.704  12.229  1.00  0.00     0.069 A 
HETATM   13  C   UNL     1      43.084 -10.103  12.187  1.00  0.00     0.095 A 
HETATM   14  C   UNL     1      43.589  -9.498  13.345  1.00  0.00     0.039 A 
HETATM   15  C   UNL     1      42.865  -9.533  14.539  1.00  0.00     0.003 A 
HETATM   16  C   UNL     1      41.636 -10.183  14.593  1.00  0.00     0.002 A 
HETATM   17  C   UNL     1      41.113 -10.775  13.445  1.00  0.00     0.032 A 
BRANCH  13  18
HETATM   18  O   UNL     1      43.791 -10.225  11.018  1.00  0.00    -0.349 OA
BRANCH  18  19
HETATM   19  C   UNL     1      44.778 -11.249  10.934  1.00  0.00     0.171 C 
HETATM   20  C   UNL     1      45.675 -10.938   9.749  1.00  0.00     0.034 C 
ENDBRANCH  18  19
ENDBRANCH  13  18
ENDBRANCH   8  12
ENDBRANCH   5   6
ENDBRANCH   1   5
BRANCH   2  21
HETATM   21  N   UNL     1      39.423 -12.124   4.370  1.00  0.00    -0.184 NA
HETATM   22  C   UNL     1      39.501 -13.396   4.147  1.00  0.00     0.150 C 
BRANCH  22  23
HETATM   23  C   UNL     1      39.786 -13.923   2.796  1.00  0.00    -0.017 A 
HETATM   24  C   UNL     1      41.020 -14.506   2.502  1.00  0.00     0.015 A 
HETATM   25  C   UNL     1      41.295 -14.955   1.205  1.00  0.00     0.030 A 
HETATM   26  C   UNL     1      40.342 -14.829   0.194  1.00  0.00     0.034 A 
HETATM   27  C   UNL     1      39.098 -14.259   0.504  1.00  0.00     0.030 A 
HETATM   28  C   UNL     1      38.818 -13.805   1.799  1.00  0.00     0.015 A 
BRANCH  26  29
HETATM   29  N   UNL     1      40.553 -15.224  -1.144  1.00  0.00    -0.328 N 
HETATM   30  C   UNL     1      41.290 -14.562  -2.111  1.00  0.00     0.218 C 
HETATM   31  C   UNL     1      41.243 -15.263  -3.445  1.00  0.00     0.117 C 
HETATM   32  O   UNL     1      41.946 -13.537  -1.968  1.00  0.00    -0.274 OA
HETATM   33  H   UNL     1      40.106 -16.086  -1.428  1.00  0.00     0.169 HD
ENDBRANCH  26  29
ENDBRANCH  22  23
ENDBRANCH   2  21
TORSDOF 8
ENDMDL
