MODEL 1
REMARK VINA RESULT:      -8.7      0.000      0.000
REMARK  11 active torsions:
REMARK  status: ('A' for Active; 'I' for Inactive)
REMARK    1  A    between atoms: C_2  and  O_3 
REMARK    2  A    between atoms: C_2  and  C_4 
REMARK    3  A    between atoms: C_8  and  C_9 
REMARK    4  A    between atoms: C_12  and  C_13 
REMARK    5  A    between atoms: C_13  and  C_14 
REMARK    6  A    between atoms: C_14  and  N_15 
REMARK    7  A    between atoms: C_14  and  C_29 
REMARK       I    between atoms: N_15  and  C_16 
REMARK    8  A    between atoms: C_16  and  C_17 
REMARK    9  A    between atoms: C_21  and  O_22 
REMARK   10  A    between atoms: O_22  and  C_23 
REMARK   11  A    between atoms: C_29  and  N_30 
ROOT
HETATM    1  C   UNL     1      40.595 -13.398   2.071  1.00  0.00     0.114 C 
ENDROOT
BRANCH   1   2
HETATM    2  C   UNL     1      39.506 -13.170   3.153  1.00  0.00     0.065 C 
BRANCH   2   3
HETATM    3  C   UNL     1      39.866 -12.465   4.448  1.00  0.00    -0.056 A 
HETATM    4  C   UNL     1      39.148 -12.566   5.646  1.00  0.00     0.008 A 
HETATM    5  C   UNL     1      39.617 -11.966   6.824  1.00  0.00     0.014 A 
HETATM    6  C   UNL     1      40.806 -11.233   6.830  1.00  0.00    -0.006 A 
HETATM    7  C   UNL     1      41.493 -11.072   5.624  1.00  0.00     0.014 A 
HETATM    8  C   UNL     1      41.031 -11.680   4.450  1.00  0.00     0.008 A 
BRANCH   6   9
HETATM    9  C   UNL     1      41.354 -10.665   8.050  1.00  0.00     0.085 A 
HETATM   10  C   UNL     1      40.846  -9.588   8.746  1.00  0.00     0.130 A 
HETATM   11  N   UNL     1      41.641  -9.458   9.858  1.00  0.00    -0.315 N 
HETATM   12  C   UNL     1      42.604 -10.454   9.782  1.00  0.00     0.143 A 
HETATM   13  C   UNL     1      41.558  -8.544  10.900  1.00  0.00     0.098 A 
HETATM   14  C   UNL     1      43.596 -10.536  10.827  1.00  0.00     0.017 A 
HETATM   15  N   UNL     1      42.446 -11.192   8.699  1.00  0.00    -0.228 NA
HETATM   16  C   UNL     1      43.498  -9.631  11.835  1.00  0.00     0.015 A 
HETATM   17  C   UNL     1      42.460  -8.611  11.892  1.00  0.00     0.018 A 
BRANCH  14  18
HETATM   18  C   UNL     1      44.681 -11.609  10.770  1.00  0.00     0.150 C 
HETATM   19  C   UNL     1      45.776 -11.439   9.722  1.00  0.00     0.044 C 
BRANCH  18  20
HETATM   20  O   UNL     1      44.065 -12.878  10.530  1.00  0.00    -0.391 OA
HETATM   21  H   UNL     1      44.232 -13.413  11.331  1.00  0.00     0.210 HD
ENDBRANCH  18  20
ENDBRANCH  14  18
ENDBRANCH   6   9
ENDBRANCH   2   3
ENDBRANCH   1   2
BRANCH   1  22
HETATM   22  N   UNL     1      41.261 -14.695   2.301  1.00  0.00    -0.350 N 
HETATM   23  C   UNL     1      42.592 -14.898   2.568  1.00  0.00     0.252 C 
HETATM   24  O   UNL     1      43.366 -13.958   2.726  1.00  0.00    -0.268 OA
HETATM   25  H   UNL     1      40.640 -15.488   2.427  1.00  0.00     0.163 HD
BRANCH  23  26
HETATM   26  C   UNL     1      43.083 -16.309   2.575  1.00  0.00     0.033 A 
HETATM   27  C   UNL     1      43.354 -16.909   3.807  1.00  0.00     0.043 A 
HETATM   28  C   UNL     1      43.932 -18.182   3.857  1.00  0.00     0.068 A 
HETATM   29 CL   UNL     1      44.271 -18.851   5.415  1.00  0.00    -0.081 Cl
HETATM   30  C   UNL     1      44.259 -18.871   2.679  1.00  0.00     0.091 A 
HETATM   31  C   UNL     1      43.949 -18.285   1.451  1.00  0.00     0.039 A 
HETATM   32  C   UNL     1      43.376 -17.007   1.396  1.00  0.00     0.020 A 
BRANCH  30  33
HETATM   33  O   UNL     1      44.859 -20.093   2.818  1.00  0.00    -0.345 OA
BRANCH  33  34
HETATM   34  C   UNL     1      44.056 -21.281   2.797  1.00  0.00     0.121 C 
HETATM   35  C   UNL     1      44.083 -21.939   1.418  1.00  0.00     0.040 C 
HETATM   36  C   UNL     1      44.662 -22.231   3.829  1.00  0.00     0.040 C 
ENDBRANCH  33  34
ENDBRANCH  30  33
ENDBRANCH  23  26
ENDBRANCH   1  22
BRANCH   1  37
HETATM   37  C   UNL     1      39.994 -13.178   0.654  1.00  0.00     0.254 C 
BRANCH  37  38
HETATM   38  N   UNL     1      39.459 -14.446   0.088  1.00  0.00    -0.077 N 
HETATM   39  H   UNL     1      39.992 -14.800  -0.712  1.00  0.00     0.274 HD
HETATM   40  H   UNL     1      39.518 -15.190   0.818  1.00  0.00     0.274 HD
HETATM   41  H   UNL     1      38.469 -14.380  -0.173  1.00  0.00     0.274 HD
ENDBRANCH  37  38
ENDBRANCH   1  37
TORSDOF 11
ENDMDL
MODEL 2
REMARK VINA RESULT:      -8.5      3.135     10.204
REMARK  11 active torsions:
REMARK  status: ('A' for Active; 'I' for Inactive)
REMARK    1  A    between atoms: C_2  and  O_3 
REMARK    2  A    between atoms: C_2  and  C_4 
REMARK    3  A    between atoms: C_8  and  C_9 
REMARK    4  A    between atoms: C_12  and  C_13 
REMARK    5  A    between atoms: C_13  and  C_14 
REMARK    6  A    between atoms: C_14  and  N_15 
REMARK    7  A    between atoms: C_14  and  C_29 
REMARK       I    between atoms: N_15  and  C_16 
REMARK    8  A    between atoms: C_16  and  C_17 
REMARK    9  A    between atoms: C_21  and  O_22 
REMARK   10  A    between atoms: O_22  and  C_23 
REMARK   11  A    between atoms: C_29  and  N_30 
ROOT
HETATM    1  C   UNL     1      40.019 -10.702   5.663  1.00  0.00     0.114 C 
ENDROOT
BRANCH   1   2
HETATM    2  C   UNL     1      39.082 -11.869   5.252  1.00  0.00     0.065 C 
BRANCH   2   3
HETATM    3  C   UNL     1      39.678 -13.195   4.816  1.00  0.00    -0.056 A 
HETATM    4  C   UNL     1      39.768 -13.641   3.492  1.00  0.00     0.008 A 
HETATM    5  C   UNL     1      40.434 -14.834   3.174  1.00  0.00     0.014 A 
HETATM    6  C   UNL     1      41.009 -15.622   4.173  1.00  0.00    -0.006 A 
HETATM    7  C   UNL     1      40.863 -15.218   5.504  1.00  0.00     0.014 A 
HETATM    8  C   UNL     1      40.209 -14.022   5.821  1.00  0.00     0.008 A 
BRANCH   6   9
HETATM    9  C   UNL     1      41.768 -16.822   3.867  1.00  0.00     0.085 A 
HETATM   10  C   UNL     1      41.784 -17.491   2.660  1.00  0.00     0.130 A 
HETATM   11  N   UNL     1      42.689 -18.512   2.815  1.00  0.00    -0.315 N 
HETATM   12  C   UNL     1      43.174 -18.426   4.112  1.00  0.00     0.143 A 
HETATM   13  C   UNL     1      43.098 -19.474   1.901  1.00  0.00     0.098 A 
HETATM   14  C   UNL     1      44.138 -19.405   4.554  1.00  0.00     0.017 A 
HETATM   15  N   UNL     1      42.631 -17.414   4.761  1.00  0.00    -0.228 NA
HETATM   16  C   UNL     1      44.522 -20.338   3.646  1.00  0.00     0.015 A 
HETATM   17  C   UNL     1      44.006 -20.385   2.285  1.00  0.00     0.018 A 
BRANCH  14  18
HETATM   18  C   UNL     1      44.683 -19.353   5.980  1.00  0.00     0.150 C 
HETATM   19  C   UNL     1      43.751 -19.800   7.100  1.00  0.00     0.044 C 
BRANCH  18  20
HETATM   20  O   UNL     1      45.079 -18.009   6.275  1.00  0.00    -0.391 OA
HETATM   21  H   UNL     1      44.586 -17.442   5.650  1.00  0.00     0.210 HD
ENDBRANCH  18  20
ENDBRANCH  14  18
ENDBRANCH   6   9
ENDBRANCH   2   3
ENDBRANCH   1   2
BRANCH   1  22
HETATM   22  N   UNL     1      40.228 -10.723   7.124  1.00  0.00    -0.350 N 
HETATM   23  C   UNL     1      39.476 -10.073   8.070  1.00  0.00     0.252 C 
HETATM   24  O   UNL     1      38.461  -9.451   7.768  1.00  0.00    -0.268 OA
HETATM   25  H   UNL     1      40.896 -11.410   7.460  1.00  0.00     0.163 HD
BRANCH  23  26
HETATM   26  C   UNL     1      39.985 -10.079   9.475  1.00  0.00     0.033 A 
HETATM   27  C   UNL     1      41.220 -10.682   9.728  1.00  0.00     0.043 A 
HETATM   28  C   UNL     1      41.678 -10.820  11.043  1.00  0.00     0.068 A 
HETATM   29 CL   UNL     1      43.198 -11.606  11.286  1.00  0.00    -0.081 Cl
HETATM   30  C   UNL     1      40.905 -10.371  12.125  1.00  0.00     0.091 A 
HETATM   31  C   UNL     1      39.692  -9.733  11.865  1.00  0.00     0.039 A 
HETATM   32  C   UNL     1      39.226  -9.598  10.550  1.00  0.00     0.020 A 
BRANCH  30  33
HETATM   33  O   UNL     1      41.409 -10.583  13.380  1.00  0.00    -0.345 OA
BRANCH  33  34
HETATM   34  C   UNL     1      41.809  -9.463  14.180  1.00  0.00     0.121 C 
HETATM   35  C   UNL     1      41.603  -9.747  15.667  1.00  0.00     0.040 C 
HETATM   36  C   UNL     1      43.295  -9.240  13.902  1.00  0.00     0.040 C 
ENDBRANCH  33  34
ENDBRANCH  30  33
ENDBRANCH  23  26
ENDBRANCH   1  22
BRANCH   1  37
HETATM   37  C   UNL     1      41.303 -10.715   4.787  1.00  0.00     0.254 C 
BRANCH  37  38
HETATM   38  N   UNL     1      41.175  -9.800   3.621  1.00  0.00    -0.077 N 
HETATM   39  H   UNL     1      40.234  -9.773   3.218  1.00  0.00     0.274 HD
HETATM   40  H   UNL     1      41.375  -8.826   3.936  1.00  0.00     0.274 HD
HETATM   41  H   UNL     1      41.851 -10.004   2.877  1.00  0.00     0.274 HD
ENDBRANCH  37  38
ENDBRANCH   1  37
TORSDOF 11
ENDMDL
MODEL 3
REMARK VINA RESULT:      -8.4      4.323      9.633
REMARK  11 active torsions:
REMARK  status: ('A' for Active; 'I' for Inactive)
REMARK    1  A    between atoms: C_2  and  O_3 
REMARK    2  A    between atoms: C_2  and  C_4 
REMARK    3  A    between atoms: C_8  and  C_9 
REMARK    4  A    between atoms: C_12  and  C_13 
REMARK    5  A    between atoms: C_13  and  C_14 
REMARK    6  A    between atoms: C_14  and  N_15 
REMARK    7  A    between atoms: C_14  and  C_29 
REMARK       I    between atoms: N_15  and  C_16 
REMARK    8  A    between atoms: C_16  and  C_17 
REMARK    9  A    between atoms: C_21  and  O_22 
REMARK   10  A    between atoms: O_22  and  C_23 
REMARK   11  A    between atoms: C_29  and  N_30 
ROOT
HETATM    1  C   UNL     1      45.093 -20.089   4.530  1.00  0.00     0.114 C 
ENDROOT
BRANCH   1   2
HETATM    2  C   UNL     1      44.693 -20.329   3.050  1.00  0.00     0.065 C 
BRANCH   2   3
HETATM    3  C   UNL     1      43.821 -19.315   2.332  1.00  0.00    -0.056 A 
HETATM    4  C   UNL     1      42.428 -19.393   2.214  1.00  0.00     0.008 A 
HETATM    5  C   UNL     1      41.692 -18.353   1.626  1.00  0.00     0.014 A 
HETATM    6  C   UNL     1      42.331 -17.217   1.124  1.00  0.00    -0.006 A 
HETATM    7  C   UNL     1      43.727 -17.163   1.178  1.00  0.00     0.014 A 
HETATM    8  C   UNL     1      44.461 -18.196   1.775  1.00  0.00     0.008 A 
BRANCH   6   9
HETATM    9  C   UNL     1      41.590 -16.093   0.579  1.00  0.00     0.085 A 
HETATM   10  C   UNL     1      41.042 -15.052   1.300  1.00  0.00     0.130 A 
HETATM   11  N   UNL     1      40.507 -14.198   0.367  1.00  0.00    -0.315 N 
HETATM   12  C   UNL     1      40.744 -14.763  -0.878  1.00  0.00     0.143 A 
HETATM   13  C   UNL     1      39.852 -12.988   0.553  1.00  0.00     0.098 A 
HETATM   14  C   UNL     1      40.263 -14.073  -2.051  1.00  0.00     0.017 A 
HETATM   15  N   UNL     1      41.397 -15.905  -0.770  1.00  0.00    -0.228 NA
HETATM   16  C   UNL     1      39.623 -12.893  -1.847  1.00  0.00     0.015 A 
HETATM   17  C   UNL     1      39.410 -12.321  -0.524  1.00  0.00     0.018 A 
BRANCH  14  18
HETATM   18  C   UNL     1      40.490 -14.672  -3.437  1.00  0.00     0.150 C 
HETATM   19  C   UNL     1      39.581 -15.820  -3.860  1.00  0.00     0.044 C 
BRANCH  18  20
HETATM   20  O   UNL     1      41.837 -15.151  -3.519  1.00  0.00    -0.391 OA
HETATM   21  H   UNL     1      42.408 -14.373  -3.364  1.00  0.00     0.210 HD
ENDBRANCH  18  20
ENDBRANCH  14  18
ENDBRANCH   6   9
ENDBRANCH   2   3
ENDBRANCH   1   2
BRANCH   1  22
HETATM   22  N   UNL     1      44.666 -18.741   4.950  1.00  0.00    -0.350 N 
HETATM   23  C   UNL     1      43.776 -18.435   5.950  1.00  0.00     0.252 C 
HETATM   24  O   UNL     1      43.297 -19.306   6.670  1.00  0.00    -0.268 OA
HETATM   25  H   UNL     1      45.206 -17.971   4.564  1.00  0.00     0.163 HD
BRANCH  23  26
HETATM   26  C   UNL     1      43.346 -17.010   6.074  1.00  0.00     0.033 A 
HETATM   27  C   UNL     1      42.036 -16.681   5.716  1.00  0.00     0.043 A 
HETATM   28  C   UNL     1      41.627 -15.343   5.699  1.00  0.00     0.068 A 
HETATM   29 CL   UNL     1      40.003 -15.005   5.214  1.00  0.00    -0.081 Cl
HETATM   30  C   UNL     1      42.522 -14.312   6.026  1.00  0.00     0.091 A 
HETATM   31  C   UNL     1      43.817 -14.649   6.422  1.00  0.00     0.039 A 
HETATM   32  C   UNL     1      44.233 -15.988   6.435  1.00  0.00     0.020 A 
BRANCH  30  33
HETATM   33  O   UNL     1      42.052 -13.030   5.943  1.00  0.00    -0.345 OA
BRANCH  33  34
HETATM   34  C   UNL     1      42.274 -12.272   4.747  1.00  0.00     0.121 C 
HETATM   35  C   UNL     1      42.763 -13.168   3.610  1.00  0.00     0.040 C 
HETATM   36  C   UNL     1      40.929 -11.653   4.370  1.00  0.00     0.040 C 
ENDBRANCH  33  34
ENDBRANCH  30  33
ENDBRANCH  23  26
ENDBRANCH   1  22
BRANCH   1  37
HETATM   37  C   UNL     1      44.599 -21.270   5.414  1.00  0.00     0.254 C 
BRANCH  37  38
HETATM   38  N   UNL     1      45.084 -22.577   4.894  1.00  0.00    -0.077 N 
HETATM   39  H   UNL     1      44.824 -22.758   3.920  1.00  0.00     0.274 HD
HETATM   40  H   UNL     1      46.127 -22.578   4.912  1.00  0.00     0.274 HD
HETATM   41  H   UNL     1      44.788 -23.371   5.472  1.00  0.00     0.274 HD
ENDBRANCH  37  38
ENDBRANCH   1  37
TORSDOF 11
ENDMDL
MODEL 4
REMARK VINA RESULT:      -8.3      3.197      8.196
REMARK  11 active torsions:
REMARK  status: ('A' for Active; 'I' for Inactive)
REMARK    1  A    between atoms: C_2  and  O_3 
REMARK    2  A    between atoms: C_2  and  C_4 
REMARK    3  A    between atoms: C_8  and  C_9 
REMARK    4  A    between atoms: C_12  and  C_13 
REMARK    5  A    between atoms: C_13  and  C_14 
REMARK    6  A    between atoms: C_14  and  N_15 
REMARK    7  A    between atoms: C_14  and  C_29 
REMARK       I    between atoms: N_15  and  C_16 
REMARK    8  A    between atoms: C_16  and  C_17 
REMARK    9  A    between atoms: C_21  and  O_22 
REMARK   10  A    between atoms: O_22  and  C_23 
REMARK   11  A    between atoms: C_29  and  N_30 
ROOT
HETATM    1  C   UNL     1      43.806 -14.030   7.207  1.00  0.00     0.114 C 
ENDROOT
BRANCH   1   2
HETATM    2  C   UNL     1      42.829 -13.017   6.554  1.00  0.00     0.065 C 
BRANCH   2   3
HETATM    3  C   UNL     1      42.173 -13.351   5.226  1.00  0.00    -0.056 A 
HETATM    4  C   UNL     1      40.881 -13.867   5.075  1.00  0.00     0.008 A 
HETATM    5  C   UNL     1      40.316 -14.044   3.803  1.00  0.00     0.014 A 
HETATM    6  C   UNL     1      41.037 -13.728   2.649  1.00  0.00    -0.006 A 
HETATM    7  C   UNL     1      42.352 -13.277   2.791  1.00  0.00     0.014 A 
HETATM    8  C   UNL     1      42.912 -13.089   4.060  1.00  0.00     0.008 A 
BRANCH   6   9
HETATM    9  C   UNL     1      40.452 -13.830   1.323  1.00  0.00     0.085 A 
HETATM   10  C   UNL     1      39.109 -13.949   1.032  1.00  0.00     0.130 A 
HETATM   11  N   UNL     1      39.025 -13.939  -0.338  1.00  0.00    -0.315 N 
HETATM   12  C   UNL     1      40.321 -13.825  -0.820  1.00  0.00     0.143 A 
HETATM   13  C   UNL     1      37.904 -14.014  -1.154  1.00  0.00     0.098 A 
HETATM   14  C   UNL     1      40.528 -13.811  -2.248  1.00  0.00     0.017 A 
HETATM   15  N   UNL     1      41.195 -13.757   0.167  1.00  0.00    -0.228 NA
HETATM   16  C   UNL     1      39.419 -13.888  -3.027  1.00  0.00     0.015 A 
HETATM   17  C   UNL     1      38.070 -13.986  -2.486  1.00  0.00     0.018 A 
BRANCH  14  18
HETATM   18  C   UNL     1      41.942 -13.703  -2.815  1.00  0.00     0.150 C 
HETATM   19  C   UNL     1      42.288 -12.441  -3.597  1.00  0.00     0.044 C 
BRANCH  18  20
HETATM   20  O   UNL     1      42.176 -14.814  -3.688  1.00  0.00    -0.391 OA
HETATM   21  H   UNL     1      42.334 -14.430  -4.573  1.00  0.00     0.210 HD
ENDBRANCH  18  20
ENDBRANCH  14  18
ENDBRANCH   6   9
ENDBRANCH   2   3
ENDBRANCH   1   2
BRANCH   1  22
HETATM   22  N   UNL     1      44.033 -15.165   6.292  1.00  0.00    -0.350 N 
HETATM   23  C   UNL     1      43.409 -16.388   6.329  1.00  0.00     0.252 C 
HETATM   24  O   UNL     1      42.503 -16.621   7.124  1.00  0.00    -0.268 OA
HETATM   25  H   UNL     1      44.587 -14.957   5.466  1.00  0.00     0.163 HD
BRANCH  23  26
HETATM   26  C   UNL     1      43.933 -17.454   5.424  1.00  0.00     0.033 A 
HETATM   27  C   UNL     1      43.607 -17.387   4.066  1.00  0.00     0.043 A 
HETATM   28  C   UNL     1      43.972 -18.428   3.205  1.00  0.00     0.068 A 
HETATM   29 CL   UNL     1      43.508 -18.296   1.544  1.00  0.00    -0.081 Cl
HETATM   30  C   UNL     1      44.654 -19.556   3.686  1.00  0.00     0.091 A 
HETATM   31  C   UNL     1      45.012 -19.599   5.034  1.00  0.00     0.039 A 
HETATM   32  C   UNL     1      44.644 -18.562   5.902  1.00  0.00     0.020 A 
BRANCH  30  33
HETATM   33  O   UNL     1      44.934 -20.545   2.784  1.00  0.00    -0.345 OA
BRANCH  33  34
HETATM   34  C   UNL     1      44.042 -21.660   2.657  1.00  0.00     0.121 C 
HETATM   35  C   UNL     1      43.908 -22.096   1.198  1.00  0.00     0.040 C 
HETATM   36  C   UNL     1      44.649 -22.797   3.477  1.00  0.00     0.040 C 
ENDBRANCH  33  34
ENDBRANCH  30  33
ENDBRANCH  23  26
ENDBRANCH   1  22
BRANCH   1  37
HETATM   37  C   UNL     1      45.079 -13.293   7.712  1.00  0.00     0.254 C 
BRANCH  37  38
HETATM   38  N   UNL     1      44.826 -12.591   8.999  1.00  0.00    -0.077 N 
HETATM   39  H   UNL     1      45.154 -11.620   9.013  1.00  0.00     0.274 HD
HETATM   40  H   UNL     1      43.795 -12.541   9.156  1.00  0.00     0.274 HD
HETATM   41  H   UNL     1      45.214 -13.086   9.808  1.00  0.00     0.274 HD
ENDBRANCH  37  38
ENDBRANCH   1  37
TORSDOF 11
ENDMDL
MODEL 5
REMARK VINA RESULT:      -8.3      1.297      1.759
REMARK  11 active torsions:
REMARK  status: ('A' for Active; 'I' for Inactive)
REMARK    1  A    between atoms: C_2  and  O_3 
REMARK    2  A    between atoms: C_2  and  C_4 
REMARK    3  A    between atoms: C_8  and  C_9 
REMARK    4  A    between atoms: C_12  and  C_13 
REMARK    5  A    between atoms: C_13  and  C_14 
REMARK    6  A    between atoms: C_14  and  N_15 
REMARK    7  A    between atoms: C_14  and  C_29 
REMARK       I    between atoms: N_15  and  C_16 
REMARK    8  A    between atoms: C_16  and  C_17 
REMARK    9  A    between atoms: C_21  and  O_22 
REMARK   10  A    between atoms: O_22  and  C_23 
REMARK   11  A    between atoms: C_29  and  N_30 
ROOT
HETATM    1  C   UNL     1      40.577 -12.931   1.716  1.00  0.00     0.114 C 
ENDROOT
BRANCH   1   2
HETATM    2  C   UNL     1      39.587 -12.145   2.616  1.00  0.00     0.065 C 
BRANCH   2   3
HETATM    3  C   UNL     1      40.006 -11.734   4.016  1.00  0.00    -0.056 A 
HETATM    4  C   UNL     1      39.553 -12.330   5.199  1.00  0.00     0.008 A 
HETATM    5  C   UNL     1      40.078 -11.956   6.445  1.00  0.00     0.014 A 
HETATM    6  C   UNL     1      41.055 -10.963   6.542  1.00  0.00    -0.006 A 
HETATM    7  C   UNL     1      41.462 -10.315   5.372  1.00  0.00     0.014 A 
HETATM    8  C   UNL     1      40.947 -10.697   4.127  1.00  0.00     0.008 A 
BRANCH   6   9
HETATM    9  C   UNL     1      41.670 -10.607   7.810  1.00  0.00     0.085 A 
HETATM   10  C   UNL     1      41.190  -9.687   8.719  1.00  0.00     0.130 A 
HETATM   11  N   UNL     1      42.052  -9.737   9.786  1.00  0.00    -0.315 N 
HETATM   12  C   UNL     1      43.024 -10.678   9.475  1.00  0.00     0.143 A 
HETATM   13  C   UNL     1      42.020  -9.028  10.979  1.00  0.00     0.098 A 
HETATM   14  C   UNL     1      44.081 -10.919  10.427  1.00  0.00     0.017 A 
HETATM   15  N   UNL     1      42.809 -11.213   8.287  1.00  0.00    -0.228 NA
HETATM   16  C   UNL     1      44.032 -10.213  11.586  1.00  0.00     0.015 A 
HETATM   17  C   UNL     1      42.984  -9.248  11.887  1.00  0.00     0.018 A 
BRANCH  14  18
HETATM   18  C   UNL     1      45.177 -11.934  10.112  1.00  0.00     0.150 C 
HETATM   19  C   UNL     1      46.195 -11.554   9.043  1.00  0.00     0.044 C 
BRANCH  18  20
HETATM   20  O   UNL     1      44.567 -13.159   9.692  1.00  0.00    -0.391 OA
HETATM   21  H   UNL     1      43.844 -13.329  10.328  1.00  0.00     0.210 HD
ENDBRANCH  18  20
ENDBRANCH  14  18
ENDBRANCH   6   9
ENDBRANCH   2   3
ENDBRANCH   1   2
BRANCH   1  22
HETATM   22  N   UNL     1      41.078 -14.114   2.441  1.00  0.00    -0.350 N 
HETATM   23  C   UNL     1      42.363 -14.329   2.875  1.00  0.00     0.252 C 
HETATM   24  O   UNL     1      43.231 -13.469   2.758  1.00  0.00    -0.268 OA
HETATM   25  H   UNL     1      40.365 -14.751   2.785  1.00  0.00     0.163 HD
BRANCH  23  26
HETATM   26  C   UNL     1      42.688 -15.682   3.417  1.00  0.00     0.033 A 
HETATM   27  C   UNL     1      43.239 -16.628   2.549  1.00  0.00     0.043 A 
HETATM   28  C   UNL     1      43.444 -17.943   2.981  1.00  0.00     0.068 A 
HETATM   29 CL   UNL     1      44.097 -19.070   1.844  1.00  0.00    -0.081 Cl
HETATM   30  C   UNL     1      43.090 -18.338   4.280  1.00  0.00     0.091 A 
HETATM   31  C   UNL     1      42.578 -17.380   5.157  1.00  0.00     0.039 A 
HETATM   32  C   UNL     1      42.365 -16.062   4.726  1.00  0.00     0.020 A 
BRANCH  30  33
HETATM   33  O   UNL     1      43.285 -19.652   4.607  1.00  0.00    -0.345 OA
BRANCH  33  34
HETATM   34  C   UNL     1      44.345 -20.008   5.504  1.00  0.00     0.121 C 
HETATM   35  C   UNL     1      43.793 -20.585   6.807  1.00  0.00     0.040 C 
HETATM   36  C   UNL     1      45.181 -21.068   4.788  1.00  0.00     0.040 C 
ENDBRANCH  33  34
ENDBRANCH  30  33
ENDBRANCH  23  26
ENDBRANCH   1  22
BRANCH   1  37
HETATM   37  C   UNL     1      39.935 -13.201   0.326  1.00  0.00     0.254 C 
BRANCH  37  38
HETATM   38  N   UNL     1      39.813 -14.659   0.057  1.00  0.00    -0.077 N 
HETATM   39  H   UNL     1      39.190 -15.149   0.707  1.00  0.00     0.274 HD
HETATM   40  H   UNL     1      39.393 -14.791  -0.889  1.00  0.00     0.274 HD
HETATM   41  H   UNL     1      40.719 -15.139   0.037  1.00  0.00     0.274 HD
ENDBRANCH  37  38
ENDBRANCH   1  37
TORSDOF 11
ENDMDL
MODEL 6
REMARK VINA RESULT:      -8.1      3.210      8.674
REMARK  11 active torsions:
REMARK  status: ('A' for Active; 'I' for Inactive)
REMARK    1  A    between atoms: C_2  and  O_3 
REMARK    2  A    between atoms: C_2  and  C_4 
REMARK    3  A    between atoms: C_8  and  C_9 
REMARK    4  A    between atoms: C_12  and  C_13 
REMARK    5  A    between atoms: C_13  and  C_14 
REMARK    6  A    between atoms: C_14  and  N_15 
REMARK    7  A    between atoms: C_14  and  C_29 
REMARK       I    between atoms: N_15  and  C_16 
REMARK    8  A    between atoms: C_16  and  C_17 
REMARK    9  A    between atoms: C_21  and  O_22 
REMARK   10  A    between atoms: O_22  and  C_23 
REMARK   11  A    between atoms: C_29  and  N_30 
ROOT
HETATM    1  C   UNL     1      43.220 -13.953   6.775  1.00  0.00     0.114 C 
ENDROOT
BRANCH   1   2
HETATM    2  C   UNL     1      42.448 -12.953   5.874  1.00  0.00     0.065 C 
BRANCH   2   3
HETATM    3  C   UNL     1      41.952 -13.397   4.509  1.00  0.00    -0.056 A 
HETATM    4  C   UNL     1      40.665 -13.874   4.238  1.00  0.00     0.008 A 
HETATM    5  C   UNL     1      40.260 -14.159   2.925  1.00  0.00     0.014 A 
HETATM    6  C   UNL     1      41.139 -13.992   1.852  1.00  0.00    -0.006 A 
HETATM    7  C   UNL     1      42.447 -13.581   2.124  1.00  0.00     0.014 A 
HETATM    8  C   UNL     1      42.848 -13.285   3.433  1.00  0.00     0.008 A 
BRANCH   6   9
HETATM    9  C   UNL     1      40.725 -14.207   0.476  1.00  0.00     0.085 A 
HETATM   10  C   UNL     1      41.272 -15.116  -0.406  1.00  0.00     0.130 A 
HETATM   11  N   UNL     1      40.522 -15.015  -1.552  1.00  0.00    -0.315 N 
HETATM   12  C   UNL     1      39.560 -14.043  -1.319  1.00  0.00     0.143 A 
HETATM   13  C   UNL     1      40.635 -15.718  -2.744  1.00  0.00     0.098 A 
HETATM   14  C   UNL     1      38.638 -13.718  -2.380  1.00  0.00     0.017 A 
HETATM   15  N   UNL     1      39.667 -13.545  -0.102  1.00  0.00    -0.228 NA
HETATM   16  C   UNL     1      38.767 -14.415  -3.538  1.00  0.00     0.015 A 
HETATM   17  C   UNL     1      39.778 -15.445  -3.739  1.00  0.00     0.018 A 
BRANCH  14  18
HETATM   18  C   UNL     1      37.576 -12.641  -2.167  1.00  0.00     0.150 C 
HETATM   19  C   UNL     1      36.751 -12.223  -3.380  1.00  0.00     0.044 C 
BRANCH  18  20
HETATM   20  O   UNL     1      38.209 -11.460  -1.664  1.00  0.00    -0.391 OA
HETATM   21  H   UNL     1      37.544 -11.020  -1.098  1.00  0.00     0.210 HD
ENDBRANCH  18  20
ENDBRANCH  14  18
ENDBRANCH   6   9
ENDBRANCH   2   3
ENDBRANCH   1   2
BRANCH   1  22
HETATM   22  N   UNL     1      43.537 -15.173   6.008  1.00  0.00    -0.350 N 
HETATM   23  C   UNL     1      43.343 -16.471   6.412  1.00  0.00     0.252 C 
HETATM   24  O   UNL     1      42.784 -16.736   7.472  1.00  0.00    -0.268 OA
HETATM   25  H   UNL     1      43.773 -15.026   5.031  1.00  0.00     0.163 HD
BRANCH  23  26
HETATM   26  C   UNL     1      43.915 -17.550   5.553  1.00  0.00     0.033 A 
HETATM   27  C   UNL     1      43.663 -17.505   4.179  1.00  0.00     0.043 A 
HETATM   28  C   UNL     1      44.074 -18.559   3.355  1.00  0.00     0.068 A 
HETATM   29 CL   UNL     1      43.699 -18.454   1.670  1.00  0.00    -0.081 Cl
HETATM   30  C   UNL     1      44.730 -19.678   3.889  1.00  0.00     0.091 A 
HETATM   31  C   UNL     1      45.016 -19.699   5.255  1.00  0.00     0.039 A 
HETATM   32  C   UNL     1      44.601 -18.649   6.086  1.00  0.00     0.020 A 
BRANCH  30  33
HETATM   33  O   UNL     1      45.059 -20.681   3.019  1.00  0.00    -0.345 OA
BRANCH  33  34
HETATM   34  C   UNL     1      44.132 -21.750   2.789  1.00  0.00     0.121 C 
HETATM   35  C   UNL     1      44.053 -22.100   1.304  1.00  0.00     0.040 C 
HETATM   36  C   UNL     1      44.655 -22.953   3.572  1.00  0.00     0.040 C 
ENDBRANCH  33  34
ENDBRANCH  30  33
ENDBRANCH  23  26
ENDBRANCH   1  22
BRANCH   1  37
HETATM   37  C   UNL     1      44.422 -13.239   7.456  1.00  0.00     0.254 C 
BRANCH  37  38
HETATM   38  N   UNL     1      43.974 -12.363   8.571  1.00  0.00    -0.077 N 
HETATM   39  H   UNL     1      44.550 -11.525   8.697  1.00  0.00     0.274 HD
HETATM   40  H   UNL     1      43.013 -12.015   8.358  1.00  0.00     0.274 HD
HETATM   41  H   UNL     1      43.905 -12.859   9.467  1.00  0.00     0.274 HD
ENDBRANCH  37  38
ENDBRANCH   1  37
TORSDOF 11
ENDMDL
MODEL 7
REMARK VINA RESULT:      -8.0      2.861      9.731
REMARK  11 active torsions:
REMARK  status: ('A' for Active; 'I' for Inactive)
REMARK    1  A    between atoms: C_2  and  O_3 
REMARK    2  A    between atoms: C_2  and  C_4 
REMARK    3  A    between atoms: C_8  and  C_9 
REMARK    4  A    between atoms: C_12  and  C_13 
REMARK    5  A    between atoms: C_13  and  C_14 
REMARK    6  A    between atoms: C_14  and  N_15 
REMARK    7  A    between atoms: C_14  and  C_29 
REMARK       I    between atoms: N_15  and  C_16 
REMARK    8  A    between atoms: C_16  and  C_17 
REMARK    9  A    between atoms: C_21  and  O_22 
REMARK   10  A    between atoms: O_22  and  C_23 
REMARK   11  A    between atoms: C_29  and  N_30 
ROOT
HETATM    1  C   UNL     1      39.454 -10.172   5.107  1.00  0.00     0.114 C 
ENDROOT
BRANCH   1   2
HETATM    2  C   UNL     1      38.841 -11.475   4.526  1.00  0.00     0.065 C 
BRANCH   2   3
HETATM    3  C   UNL     1      39.691 -12.729   4.431  1.00  0.00    -0.056 A 
HETATM    4  C   UNL     1      40.492 -13.077   3.337  1.00  0.00     0.008 A 
HETATM    5  C   UNL     1      41.329 -14.202   3.381  1.00  0.00     0.014 A 
HETATM    6  C   UNL     1      41.371 -15.019   4.513  1.00  0.00    -0.006 A 
HETATM    7  C   UNL     1      40.523 -14.717   5.582  1.00  0.00     0.014 A 
HETATM    8  C   UNL     1      39.697 -13.587   5.543  1.00  0.00     0.008 A 
BRANCH   6   9
HETATM    9  C   UNL     1      42.282 -16.147   4.616  1.00  0.00     0.085 A 
HETATM   10  C   UNL     1      43.141 -16.407   5.664  1.00  0.00     0.130 A 
HETATM   11  N   UNL     1      43.743 -17.603   5.361  1.00  0.00    -0.315 N 
HETATM   12  C   UNL     1      43.232 -18.011   4.137  1.00  0.00     0.143 A 
HETATM   13  C   UNL     1      44.679 -18.328   6.086  1.00  0.00     0.098 A 
HETATM   14  C   UNL     1      43.715 -19.245   3.565  1.00  0.00     0.017 A 
HETATM   15  N   UNL     1      42.349 -17.147   3.673  1.00  0.00    -0.228 NA
HETATM   16  C   UNL     1      44.631 -19.937   4.289  1.00  0.00     0.015 A 
HETATM   17  C   UNL     1      45.130 -19.487   5.581  1.00  0.00     0.018 A 
BRANCH  14  18
HETATM   18  C   UNL     1      43.188 -19.719   2.212  1.00  0.00     0.150 C 
HETATM   19  C   UNL     1      43.660 -21.081   1.717  1.00  0.00     0.044 C 
BRANCH  18  20
HETATM   20  O   UNL     1      43.551 -18.760   1.213  1.00  0.00    -0.391 OA
HETATM   21  H   UNL     1      44.496 -18.559   1.366  1.00  0.00     0.210 HD
ENDBRANCH  18  20
ENDBRANCH  14  18
ENDBRANCH   6   9
ENDBRANCH   2   3
ENDBRANCH   1   2
BRANCH   1  22
HETATM   22  N   UNL     1      39.999 -10.435   6.453  1.00  0.00    -0.350 N 
HETATM   23  C   UNL     1      39.459 -10.036   7.650  1.00  0.00     0.252 C 
HETATM   24  O   UNL     1      38.374  -9.464   7.705  1.00  0.00    -0.268 OA
HETATM   25  H   UNL     1      40.758 -11.109   6.493  1.00  0.00     0.163 HD
BRANCH  23  26
HETATM   26  C   UNL     1      40.281 -10.248   8.879  1.00  0.00     0.033 A 
HETATM   27  C   UNL     1      41.664 -10.386   8.734  1.00  0.00     0.043 A 
HETATM   28  C   UNL     1      42.458 -10.708   9.840  1.00  0.00     0.068 A 
HETATM   29 CL   UNL     1      44.157 -10.897   9.582  1.00  0.00    -0.081 Cl
HETATM   30  C   UNL     1      41.883 -10.910  11.105  1.00  0.00     0.091 A 
HETATM   31  C   UNL     1      40.507 -10.730  11.253  1.00  0.00     0.039 A 
HETATM   32  C   UNL     1      39.707 -10.414  10.146  1.00  0.00     0.020 A 
BRANCH  30  33
HETATM   33  O   UNL     1      42.726 -11.263  12.122  1.00  0.00    -0.345 OA
BRANCH  33  34
HETATM   34  C   UNL     1      43.169 -10.265  13.052  1.00  0.00     0.121 C 
HETATM   35  C   UNL     1      43.029  -8.862  12.463  1.00  0.00     0.040 C 
HETATM   36  C   UNL     1      42.276 -10.394  14.285  1.00  0.00     0.040 C 
ENDBRANCH  33  34
ENDBRANCH  30  33
ENDBRANCH  23  26
ENDBRANCH   1  22
BRANCH   1  37
HETATM   37  C   UNL     1      40.438  -9.542   4.081  1.00  0.00     0.254 C 
BRANCH  37  38
HETATM   38  N   UNL     1      41.725  -9.165   4.724  1.00  0.00    -0.077 N 
HETATM   39  H   UNL     1      41.777  -8.180   5.003  1.00  0.00     0.274 HD
HETATM   40  H   UNL     1      41.833  -9.713   5.606  1.00  0.00     0.274 HD
HETATM   41  H   UNL     1      42.542  -9.391   4.146  1.00  0.00     0.274 HD
ENDBRANCH  37  38
ENDBRANCH   1  37
TORSDOF 11
ENDMDL
MODEL 8
REMARK VINA RESULT:      -7.9      1.611      2.160
REMARK  11 active torsions:
REMARK  status: ('A' for Active; 'I' for Inactive)
REMARK    1  A    between atoms: C_2  and  O_3 
REMARK    2  A    between atoms: C_2  and  C_4 
REMARK    3  A    between atoms: C_8  and  C_9 
REMARK    4  A    between atoms: C_12  and  C_13 
REMARK    5  A    between atoms: C_13  and  C_14 
REMARK    6  A    between atoms: C_14  and  N_15 
REMARK    7  A    between atoms: C_14  and  C_29 
REMARK       I    between atoms: N_15  and  C_16 
REMARK    8  A    between atoms: C_16  and  C_17 
REMARK    9  A    between atoms: C_21  and  O_22 
REMARK   10  A    between atoms: O_22  and  C_23 
REMARK   11  A    between atoms: C_29  and  N_30 
ROOT
HETATM    1  C   UNL     1      40.279 -14.750   1.307  1.00  0.00     0.114 C 
ENDROOT
BRANCH   1   2
HETATM    2  C   UNL     1      40.893 -13.327   1.391  1.00  0.00     0.065 C 
BRANCH   2   3
HETATM    3  C   UNL     1      40.866 -12.571   2.707  1.00  0.00    -0.056 A 
HETATM    4  C   UNL     1      39.928 -11.591   3.052  1.00  0.00     0.008 A 
HETATM    5  C   UNL     1      39.915 -11.022   4.334  1.00  0.00     0.014 A 
HETATM    6  C   UNL     1      40.850 -11.404   5.298  1.00  0.00    -0.006 A 
HETATM    7  C   UNL     1      41.831 -12.333   4.939  1.00  0.00     0.014 A 
HETATM    8  C   UNL     1      41.838 -12.909   3.663  1.00  0.00     0.008 A 
BRANCH   6   9
HETATM    9  C   UNL     1      40.814 -10.888   6.656  1.00  0.00     0.085 A 
HETATM   10  C   UNL     1      39.770 -10.199   7.237  1.00  0.00     0.130 A 
HETATM   11  N   UNL     1      40.152  -9.978   8.538  1.00  0.00    -0.315 N 
HETATM   12  C   UNL     1      41.414 -10.534   8.686  1.00  0.00     0.143 A 
HETATM   13  C   UNL     1      39.464  -9.344   9.563  1.00  0.00     0.098 A 
HETATM   14  C   UNL     1      42.069 -10.427   9.968  1.00  0.00     0.017 A 
HETATM   15  N   UNL     1      41.829 -11.087   7.562  1.00  0.00    -0.228 NA
HETATM   16  C   UNL     1      41.380  -9.799  10.955  1.00  0.00     0.015 A 
HETATM   17  C   UNL     1      40.046  -9.246  10.768  1.00  0.00     0.018 A 
BRANCH  14  18
HETATM   18  C   UNL     1      43.466 -11.011  10.164  1.00  0.00     0.150 C 
HETATM   19  C   UNL     1      44.229 -10.592  11.416  1.00  0.00     0.044 C 
BRANCH  18  20
HETATM   20  O   UNL     1      44.278 -10.656   9.040  1.00  0.00    -0.391 OA
HETATM   21  H   UNL     1      44.824  -9.899   9.332  1.00  0.00     0.210 HD
ENDBRANCH  18  20
ENDBRANCH  14  18
ENDBRANCH   6   9
ENDBRANCH   2   3
ENDBRANCH   1   2
BRANCH   1  22
HETATM   22  N   UNL     1      41.163 -15.716   1.986  1.00  0.00    -0.350 N 
HETATM   23  C   UNL     1      41.967 -16.654   1.388  1.00  0.00     0.252 C 
HETATM   24  O   UNL     1      42.082 -16.716   0.167  1.00  0.00    -0.268 OA
HETATM   25  H   UNL     1      41.302 -15.557   2.980  1.00  0.00     0.163 HD
BRANCH  23  26
HETATM   26  C   UNL     1      42.632 -17.655   2.275  1.00  0.00     0.033 A 
HETATM   27  C   UNL     1      42.960 -17.269   3.578  1.00  0.00     0.043 A 
HETATM   28  C   UNL     1      43.693 -18.130   4.402  1.00  0.00     0.068 A 
HETATM   29 CL   UNL     1      44.093 -17.576   5.990  1.00  0.00    -0.081 Cl
HETATM   30  C   UNL     1      44.120 -19.383   3.936  1.00  0.00     0.091 A 
HETATM   31  C   UNL     1      43.755 -19.780   2.649  1.00  0.00     0.039 A 
HETATM   32  C   UNL     1      43.026 -18.919   1.817  1.00  0.00     0.020 A 
BRANCH  30  33
HETATM   33  O   UNL     1      44.867 -20.145   4.792  1.00  0.00    -0.345 OA
BRANCH  33  34
HETATM   34  C   UNL     1      44.331 -21.375   5.295  1.00  0.00     0.121 C 
HETATM   35  C   UNL     1      45.359 -22.502   5.203  1.00  0.00     0.040 C 
HETATM   36  C   UNL     1      43.974 -21.126   6.760  1.00  0.00     0.040 C 
ENDBRANCH  33  34
ENDBRANCH  30  33
ENDBRANCH  23  26
ENDBRANCH   1  22
BRANCH   1  37
HETATM   37  C   UNL     1      38.799 -14.721   1.788  1.00  0.00     0.254 C 
BRANCH  37  38
HETATM   38  N   UNL     1      37.872 -14.393   0.672  1.00  0.00    -0.077 N 
HETATM   39  H   UNL     1      36.889 -14.599   0.876  1.00  0.00     0.274 HD
HETATM   40  H   UNL     1      37.913 -13.366   0.493  1.00  0.00     0.274 HD
HETATM   41  H   UNL     1      38.132 -14.847  -0.210  1.00  0.00     0.274 HD
ENDBRANCH  37  38
ENDBRANCH   1  37
TORSDOF 11
ENDMDL
MODEL 9
REMARK VINA RESULT:      -7.8      3.661      9.314
REMARK  11 active torsions:
REMARK  status: ('A' for Active; 'I' for Inactive)
REMARK    1  A    between atoms: C_2  and  O_3 
REMARK    2  A    between atoms: C_2  and  C_4 
REMARK    3  A    between atoms: C_8  and  C_9 
REMARK    4  A    between atoms: C_12  and  C_13 
REMARK    5  A    between atoms: C_13  and  C_14 
REMARK    6  A    between atoms: C_14  and  N_15 
REMARK    7  A    between atoms: C_14  and  C_29 
REMARK       I    between atoms: N_15  and  C_16 
REMARK    8  A    between atoms: C_16  and  C_17 
REMARK    9  A    between atoms: C_21  and  O_22 
REMARK   10  A    between atoms: O_22  and  C_23 
REMARK   11  A    between atoms: C_29  and  N_30 
ROOT
HETATM    1  C   UNL     1      44.835 -19.558   5.008  1.00  0.00     0.114 C 
ENDROOT
BRANCH   1   2
HETATM    2  C   UNL     1      44.400 -19.938   3.567  1.00  0.00     0.065 C 
BRANCH   2   3
HETATM    3  C   UNL     1      43.604 -18.949   2.735  1.00  0.00    -0.056 A 
HETATM    4  C   UNL     1      42.296 -18.534   3.012  1.00  0.00     0.008 A 
HETATM    5  C   UNL     1      41.678 -17.532   2.249  1.00  0.00     0.014 A 
HETATM    6  C   UNL     1      42.344 -16.934   1.177  1.00  0.00    -0.006 A 
HETATM    7  C   UNL     1      43.624 -17.392   0.852  1.00  0.00     0.014 A 
HETATM    8  C   UNL     1      44.246 -18.383   1.621  1.00  0.00     0.008 A 
BRANCH   6   9
HETATM    9  C   UNL     1      41.757 -15.844   0.416  1.00  0.00     0.085 A 
HETATM   10  C   UNL     1      41.121 -15.951  -0.803  1.00  0.00     0.130 A 
HETATM   11  N   UNL     1      40.672 -14.688  -1.098  1.00  0.00    -0.315 N 
HETATM   12  C   UNL     1      41.065 -13.867  -0.051  1.00  0.00     0.143 A 
HETATM   13  C   UNL     1      39.954 -14.242  -2.200  1.00  0.00     0.098 A 
HETATM   14  C   UNL     1      40.735 -12.463  -0.114  1.00  0.00     0.017 A 
HETATM   15  N   UNL     1      41.719 -14.546   0.871  1.00  0.00    -0.228 NA
HETATM   16  C   UNL     1      40.035 -12.048  -1.201  1.00  0.00     0.015 A 
HETATM   17  C   UNL     1      39.622 -12.944  -2.273  1.00  0.00     0.018 A 
BRANCH  14  18
HETATM   18  C   UNL     1      41.165 -11.525   1.011  1.00  0.00     0.150 C 
HETATM   19  C   UNL     1      40.957 -10.030   0.794  1.00  0.00     0.044 C 
BRANCH  18  20
HETATM   20  O   UNL     1      42.560 -11.720   1.269  1.00  0.00    -0.391 OA
HETATM   21  H   UNL     1      42.624 -11.988   2.207  1.00  0.00     0.210 HD
ENDBRANCH  18  20
ENDBRANCH  14  18
ENDBRANCH   6   9
ENDBRANCH   2   3
ENDBRANCH   1   2
BRANCH   1  22
HETATM   22  N   UNL     1      44.562 -18.128   5.250  1.00  0.00    -0.350 N 
HETATM   23  C   UNL     1      43.767 -17.599   6.236  1.00  0.00     0.252 C 
HETATM   24  O   UNL     1      43.253 -18.310   7.095  1.00  0.00    -0.268 OA
HETATM   25  H   UNL     1      45.147 -17.478   4.733  1.00  0.00     0.163 HD
BRANCH  23  26
HETATM   26  C   UNL     1      43.481 -16.135   6.176  1.00  0.00     0.033 A 
HETATM   27  C   UNL     1      44.202 -15.284   7.018  1.00  0.00     0.043 A 
HETATM   28  C   UNL     1      43.881 -13.924   7.084  1.00  0.00     0.068 A 
HETATM   29 CL   UNL     1      44.792 -12.936   8.172  1.00  0.00    -0.081 Cl
HETATM   30  C   UNL     1      42.829 -13.394   6.321  1.00  0.00     0.091 A 
HETATM   31  C   UNL     1      42.139 -14.239   5.451  1.00  0.00     0.039 A 
HETATM   32  C   UNL     1      42.452 -15.604   5.386  1.00  0.00     0.020 A 
BRANCH  30  33
HETATM   33  O   UNL     1      42.556 -12.062   6.478  1.00  0.00    -0.345 OA
BRANCH  33  34
HETATM   34  C   UNL     1      41.238 -11.573   6.198  1.00  0.00     0.121 C 
HETATM   35  C   UNL     1      40.623 -10.911   7.430  1.00  0.00     0.040 C 
HETATM   36  C   UNL     1      41.387 -10.540   5.082  1.00  0.00     0.040 C 
ENDBRANCH  33  34
ENDBRANCH  30  33
ENDBRANCH  23  26
ENDBRANCH   1  22
BRANCH   1  37
HETATM   37  C   UNL     1      44.220 -20.555   6.031  1.00  0.00     0.254 C 
BRANCH  37  38
HETATM   38  N   UNL     1      44.494 -21.966   5.646  1.00  0.00    -0.077 N 
HETATM   39  H   UNL     1      45.257 -22.399   6.175  1.00  0.00     0.274 HD
HETATM   40  H   UNL     1      43.647 -22.540   5.853  1.00  0.00     0.274 HD
HETATM   41  H   UNL     1      44.677 -22.078   4.643  1.00  0.00     0.274 HD
ENDBRANCH  37  38
ENDBRANCH   1  37
TORSDOF 11
ENDMDL
MODEL 10
REMARK VINA RESULT:      -7.7      3.652      8.726
REMARK  11 active torsions:
REMARK  status: ('A' for Active; 'I' for Inactive)
REMARK    1  A    between atoms: C_2  and  O_3 
REMARK    2  A    between atoms: C_2  and  C_4 
REMARK    3  A    between atoms: C_8  and  C_9 
REMARK    4  A    between atoms: C_12  and  C_13 
REMARK    5  A    between atoms: C_13  and  C_14 
REMARK    6  A    between atoms: C_14  and  N_15 
REMARK    7  A    between atoms: C_14  and  C_29 
REMARK       I    between atoms: N_15  and  C_16 
REMARK    8  A    between atoms: C_16  and  C_17 
REMARK    9  A    between atoms: C_21  and  O_22 
REMARK   10  A    between atoms: O_22  and  C_23 
REMARK   11  A    between atoms: C_29  and  N_30 
ROOT
HETATM    1  C   UNL     1      43.866 -18.896   2.600  1.00  0.00     0.114 C 
ENDROOT
BRANCH   1   2
HETATM    2  C   UNL     1      42.408 -18.950   2.072  1.00  0.00     0.065 C 
BRANCH   2   3
HETATM    3  C   UNL     1      41.726 -17.675   1.610  1.00  0.00    -0.056 A 
HETATM    4  C   UNL     1      40.651 -17.056   2.260  1.00  0.00     0.008 A 
HETATM    5  C   UNL     1      40.155 -15.820   1.822  1.00  0.00     0.014 A 
HETATM    6  C   UNL     1      40.707 -15.180   0.710  1.00  0.00    -0.006 A 
HETATM    7  C   UNL     1      41.735 -15.824   0.016  1.00  0.00     0.014 A 
HETATM    8  C   UNL     1      42.239 -17.052   0.460  1.00  0.00     0.008 A 
BRANCH   6   9
HETATM    9  C   UNL     1      40.264 -13.865   0.278  1.00  0.00     0.085 A 
HETATM   10  C   UNL     1      38.955 -13.462   0.107  1.00  0.00     0.130 A 
HETATM   11  N   UNL     1      39.019 -12.134  -0.236  1.00  0.00    -0.315 N 
HETATM   12  C   UNL     1      40.363 -11.791  -0.268  1.00  0.00     0.143 A 
HETATM   13  C   UNL     1      37.990 -11.242  -0.503  1.00  0.00     0.098 A 
HETATM   14  C   UNL     1      40.722 -10.440  -0.625  1.00  0.00     0.017 A 
HETATM   15  N   UNL     1      41.128 -12.822   0.040  1.00  0.00    -0.228 NA
HETATM   16  C   UNL     1      39.700  -9.584  -0.885  1.00  0.00     0.015 A 
HETATM   17  C   UNL     1      38.299  -9.975  -0.821  1.00  0.00     0.018 A 
BRANCH  14  18
HETATM   18  C   UNL     1      42.192 -10.030  -0.687  1.00  0.00     0.150 C 
HETATM   19  C   UNL     1      42.950 -10.342  -1.973  1.00  0.00     0.044 C 
BRANCH  18  20
HETATM   20  O   UNL     1      42.897 -10.670   0.381  1.00  0.00    -0.391 OA
HETATM   21  H   UNL     1      42.664 -10.174   1.191  1.00  0.00     0.210 HD
ENDBRANCH  18  20
ENDBRANCH  14  18
ENDBRANCH   6   9
ENDBRANCH   2   3
ENDBRANCH   1   2
BRANCH   1  22
HETATM   22  N   UNL     1      43.990 -17.830   3.613  1.00  0.00    -0.350 N 
HETATM   23  C   UNL     1      43.233 -17.684   4.749  1.00  0.00     0.252 C 
HETATM   24  O   UNL     1      42.397 -18.521   5.074  1.00  0.00    -0.268 OA
HETATM   25  H   UNL     1      44.818 -17.247   3.534  1.00  0.00     0.163 HD
BRANCH  23  26
HETATM   26  C   UNL     1      43.405 -16.424   5.531  1.00  0.00     0.033 A 
HETATM   27  C   UNL     1      42.781 -15.264   5.063  1.00  0.00     0.043 A 
HETATM   28  C   UNL     1      43.014 -14.037   5.694  1.00  0.00     0.068 A 
HETATM   29 CL   UNL     1      42.236 -12.638   5.042  1.00  0.00    -0.081 Cl
HETATM   30  C   UNL     1      43.884 -13.945   6.792  1.00  0.00     0.091 A 
HETATM   31  C   UNL     1      44.473 -15.112   7.280  1.00  0.00     0.039 A 
HETATM   32  C   UNL     1      44.247 -16.343   6.648  1.00  0.00     0.020 A 
BRANCH  30  33
HETATM   33  O   UNL     1      44.088 -12.701   7.322  1.00  0.00    -0.345 OA
BRANCH  33  34
HETATM   34  C   UNL     1      44.674 -12.574   8.624  1.00  0.00     0.121 C 
HETATM   35  C   UNL     1      46.148 -12.183   8.528  1.00  0.00     0.040 C 
HETATM   36  C   UNL     1      43.898 -11.473   9.344  1.00  0.00     0.040 C 
ENDBRANCH  33  34
ENDBRANCH  30  33
ENDBRANCH  23  26
ENDBRANCH   1  22
BRANCH   1  37
HETATM   37  C   UNL     1      44.327 -20.315   3.039  1.00  0.00     0.254 C 
BRANCH  37  38
HETATM   38  N   UNL     1      43.971 -21.341   2.023  1.00  0.00    -0.077 N 
HETATM   39  H   UNL     1      44.618 -21.381   1.230  1.00  0.00     0.274 HD
HETATM   40  H   UNL     1      44.013 -22.283   2.469  1.00  0.00     0.274 HD
HETATM   41  H   UNL     1      43.014 -21.236   1.668  1.00  0.00     0.274 HD
ENDBRANCH  37  38
ENDBRANCH   1  37
TORSDOF 11
ENDMDL
