MODEL 1
REMARK VINA RESULT:      -8.4      0.000      0.000
REMARK  14 active torsions:
REMARK  status: ('A' for Active; 'I' for Inactive)
REMARK    1  A    between atoms: C_2  and  N_3 
REMARK    2  A    between atoms: N_3  and  C_5 
REMARK    3  A    between atoms: N_3  and  C_39 
REMARK    4  A    between atoms: C_5  and  C_6 
REMARK    5  A    between atoms: C_6  and  C_7 
REMARK    6  A    between atoms: C_7  and  N_8 
REMARK    7  A    between atoms: C_11  and  O_12 
REMARK    8  A    between atoms: C_13  and  C_14 
REMARK    9  A    between atoms: C_14  and  C_15 
REMARK   10  A    between atoms: C_18  and  O_19 
REMARK   11  A    between atoms: O_19  and  C_20 
REMARK   12  A    between atoms: C_20  and  C_21 
REMARK   13  A    between atoms: C_31  and  C_32 
REMARK   14  A    between atoms: C_35  and  O_36 
ROOT
HETATM    1  N   UNL     1      39.597 -12.019   1.813  1.00  0.00    -0.333 N 
HETATM    2  C   UNL     1      38.532 -11.599   2.576  1.00  0.00     0.278 A 
HETATM    3  O   UNL     1      37.519 -11.018   2.221  1.00  0.00    -0.265 OA
HETATM    4  C   UNL     1      38.870 -11.849   3.994  1.00  0.00     0.146 A 
HETATM    5  C   UNL     1      40.060 -12.458   4.014  1.00  0.00     0.059 A 
HETATM    6  C   UNL     1      40.604 -12.686   2.636  1.00  0.00     0.161 A 
ENDROOT
BRANCH   5   7
HETATM    7  C   UNL     1      40.933 -12.750   5.168  1.00  0.00     0.193 C 
HETATM    8  O   UNL     1      41.280 -11.818   5.891  1.00  0.00    -0.287 OA
BRANCH   7   9
HETATM    9  C   UNL     1      41.352 -14.135   5.496  1.00  0.00     0.015 A 
HETATM   10  C   UNL     1      40.438 -15.147   5.807  1.00  0.00     0.018 A 
HETATM   11  C   UNL     1      40.891 -16.431   6.139  1.00  0.00     0.038 A 
HETATM   12  C   UNL     1      42.257 -16.717   6.136  1.00  0.00     0.069 A 
HETATM   13  C   UNL     1      43.163 -15.721   5.766  1.00  0.00     0.038 A 
HETATM   14  C   UNL     1      42.717 -14.437   5.448  1.00  0.00     0.018 A 
BRANCH  12  15
HETATM   15  O   UNL     1      42.825 -17.921   6.442  1.00  0.00    -0.347 OA
BRANCH  15  16
HETATM   16  C   UNL     1      44.201 -18.091   6.102  1.00  0.00     0.214 C 
BRANCH  16  17
HETATM   17  C   UNL     1      44.306 -19.101   4.984  1.00  0.00    -0.034 A 
HETATM   18  C   UNL     1      44.696 -20.422   5.240  1.00  0.00     0.010 A 
HETATM   19  C   UNL     1      44.755 -21.359   4.204  1.00  0.00     0.007 A 
HETATM   20  C   UNL     1      44.427 -20.991   2.894  1.00  0.00    -0.062 A 
HETATM   21  C   UNL     1      44.469 -21.990   1.776  1.00  0.00     0.048 C 
HETATM   22  C   UNL     1      44.034 -19.673   2.637  1.00  0.00     0.007 A 
HETATM   23  C   UNL     1      43.975 -18.737   3.672  1.00  0.00     0.010 A 
ENDBRANCH  16  17
ENDBRANCH  15  16
ENDBRANCH  12  15
ENDBRANCH   7   9
ENDBRANCH   5   7
BRANCH   4  24
HETATM   24  O   UNL     1      38.112 -11.386   5.027  1.00  0.00    -0.355 OA
HETATM   25  H   UNL     1      38.537 -10.564   5.341  1.00  0.00     0.218 HD
ENDBRANCH   4  24
BRANCH   6  26
HETATM   26  C   UNL     1      40.794 -14.147   2.271  1.00  0.00    -0.030 A 
HETATM   27  C   UNL     1      39.756 -15.091   2.373  1.00  0.00     0.012 A 
HETATM   28  C   UNL     1      39.970 -16.428   2.023  1.00  0.00     0.037 A 
HETATM   29  C   UNL     1      41.221 -16.825   1.566  1.00  0.00     0.065 A 
HETATM   30  C   UNL     1      42.260 -15.912   1.460  1.00  0.00     0.037 A 
HETATM   31  C   UNL     1      42.051 -14.579   1.815  1.00  0.00     0.012 A 
BRANCH  29  32
HETATM   32  O   UNL     1      41.475 -18.115   1.211  1.00  0.00    -0.361 OA
HETATM   33  H   UNL     1      40.781 -18.690   1.571  1.00  0.00     0.217 HD
ENDBRANCH  29  32
ENDBRANCH   6  26
BRANCH   1  34
HETATM   34  C   UNL     1      39.673 -12.032   0.355  1.00  0.00     0.129 C 
BRANCH  34  35
HETATM   35  C   UNL     1      38.618 -12.896  -0.347  1.00  0.00     0.048 C 
BRANCH  35  36
HETATM   36  C   UNL     1      39.250 -14.021  -1.164  1.00  0.00     0.236 C 
BRANCH  36  37
HETATM   37  N   UNL     1      39.300 -13.666  -2.649  1.00  0.00    -0.072 N 
HETATM   38  H   UNL     1      39.699 -12.722  -2.734  1.00  0.00     0.279 HD
BRANCH  37  39
HETATM   39  C   UNL     1      37.909 -13.643  -3.263  1.00  0.00     0.230 C 
HETATM   40  C   UNL     1      37.416 -15.051  -3.546  1.00  0.00     0.034 C 
ENDBRANCH  37  39
BRANCH  37  41
HETATM   41  C   UNL     1      40.232 -14.619  -3.399  1.00  0.00     0.230 C 
HETATM   42  C   UNL     1      40.881 -15.609  -2.447  1.00  0.00     0.034 C 
ENDBRANCH  37  41
ENDBRANCH  36  37
ENDBRANCH  35  36
ENDBRANCH  34  35
ENDBRANCH   1  34
TORSDOF 14
ENDMDL
MODEL 2
REMARK VINA RESULT:      -8.3      3.892      8.182
REMARK  14 active torsions:
REMARK  status: ('A' for Active; 'I' for Inactive)
REMARK    1  A    between atoms: C_2  and  N_3 
REMARK    2  A    between atoms: N_3  and  C_5 
REMARK    3  A    between atoms: N_3  and  C_39 
REMARK    4  A    between atoms: C_5  and  C_6 
REMARK    5  A    between atoms: C_6  and  C_7 
REMARK    6  A    between atoms: C_7  and  N_8 
REMARK    7  A    between atoms: C_11  and  O_12 
REMARK    8  A    between atoms: C_13  and  C_14 
REMARK    9  A    between atoms: C_14  and  C_15 
REMARK   10  A    between atoms: C_18  and  O_19 
REMARK   11  A    between atoms: O_19  and  C_20 
REMARK   12  A    between atoms: C_20  and  C_21 
REMARK   13  A    between atoms: C_31  and  C_32 
REMARK   14  A    between atoms: C_35  and  O_36 
ROOT
HETATM    1  N   UNL     1      42.286 -16.206   2.170  1.00  0.00    -0.333 N 
HETATM    2  C   UNL     1      41.048 -16.719   1.856  1.00  0.00     0.278 A 
HETATM    3  O   UNL     1      40.774 -17.780   1.320  1.00  0.00    -0.265 OA
HETATM    4  C   UNL     1      40.042 -15.678   2.160  1.00  0.00     0.146 A 
HETATM    5  C   UNL     1      40.696 -14.642   2.695  1.00  0.00     0.059 A 
HETATM    6  C   UNL     1      42.167 -14.900   2.817  1.00  0.00     0.161 A 
ENDROOT
BRANCH   5   7
HETATM    7  C   UNL     1      40.198 -13.285   2.994  1.00  0.00     0.193 C 
HETATM    8  O   UNL     1      39.654 -12.649   2.093  1.00  0.00    -0.287 OA
BRANCH   7   9
HETATM    9  C   UNL     1      40.294 -12.702   4.355  1.00  0.00     0.015 A 
HETATM   10  C   UNL     1      39.574 -13.206   5.444  1.00  0.00     0.018 A 
HETATM   11  C   UNL     1      39.679 -12.598   6.702  1.00  0.00     0.038 A 
HETATM   12  C   UNL     1      40.523 -11.502   6.885  1.00  0.00     0.069 A 
HETATM   13  C   UNL     1      41.287 -11.040   5.811  1.00  0.00     0.038 A 
HETATM   14  C   UNL     1      41.175 -11.634   4.552  1.00  0.00     0.018 A 
BRANCH  12  15
HETATM   15  O   UNL     1      40.712 -10.821   8.054  1.00  0.00    -0.347 OA
BRANCH  15  16
HETATM   16  C   UNL     1      42.060 -10.517   8.414  1.00  0.00     0.214 C 
BRANCH  16  17
HETATM   17  C   UNL     1      42.159 -10.449   9.919  1.00  0.00    -0.034 A 
HETATM   18  C   UNL     1      41.029 -10.632  10.726  1.00  0.00     0.010 A 
HETATM   19  C   UNL     1      41.138 -10.603  12.119  1.00  0.00     0.007 A 
HETATM   20  C   UNL     1      42.379 -10.389  12.730  1.00  0.00    -0.062 A 
HETATM   21  C   UNL     1      42.514 -10.375  14.224  1.00  0.00     0.048 C 
HETATM   22  C   UNL     1      43.511 -10.210  11.926  1.00  0.00     0.007 A 
HETATM   23  C   UNL     1      43.401 -10.239  10.535  1.00  0.00     0.010 A 
ENDBRANCH  16  17
ENDBRANCH  15  16
ENDBRANCH  12  15
ENDBRANCH   7   9
ENDBRANCH   5   7
BRANCH   4  24
HETATM   24  O   UNL     1      38.734 -15.788   1.799  1.00  0.00    -0.355 OA
HETATM   25  H   UNL     1      38.223 -15.231   2.419  1.00  0.00     0.218 HD
ENDBRANCH   4  24
BRANCH   6  26
HETATM   26  C   UNL     1      42.689 -14.896   4.242  1.00  0.00    -0.030 A 
HETATM   27  C   UNL     1      42.164 -15.737   5.240  1.00  0.00     0.012 A 
HETATM   28  C   UNL     1      42.674 -15.707   6.541  1.00  0.00     0.037 A 
HETATM   29  C   UNL     1      43.715 -14.838   6.849  1.00  0.00     0.065 A 
HETATM   30  C   UNL     1      44.247 -13.997   5.882  1.00  0.00     0.037 A 
HETATM   31  C   UNL     1      43.734 -14.021   4.585  1.00  0.00     0.012 A 
BRANCH  29  32
HETATM   32  O   UNL     1      44.246 -14.775   8.101  1.00  0.00    -0.361 OA
HETATM   33  H   UNL     1      45.212 -14.853   8.044  1.00  0.00     0.217 HD
ENDBRANCH  29  32
ENDBRANCH   6  26
BRANCH   1  34
HETATM   34  C   UNL     1      43.563 -16.910   2.101  1.00  0.00     0.129 C 
BRANCH  34  35
HETATM   35  C   UNL     1      43.749 -18.029   3.132  1.00  0.00     0.048 C 
BRANCH  35  36
HETATM   36  C   UNL     1      43.729 -19.413   2.486  1.00  0.00     0.236 C 
BRANCH  36  37
HETATM   37  N   UNL     1      44.772 -20.334   3.115  1.00  0.00    -0.072 N 
HETATM   38  H   UNL     1      45.697 -20.042   2.773  1.00  0.00     0.279 HD
BRANCH  37  39
HETATM   39  C   UNL     1      44.558 -21.782   2.703  1.00  0.00     0.230 C 
HETATM   40  C   UNL     1      43.746 -21.870   1.423  1.00  0.00     0.034 C 
ENDBRANCH  37  39
BRANCH  37  41
HETATM   41  C   UNL     1      44.783 -20.176   4.636  1.00  0.00     0.230 C 
HETATM   42  C   UNL     1      44.712 -21.529   5.324  1.00  0.00     0.034 C 
ENDBRANCH  37  41
ENDBRANCH  36  37
ENDBRANCH  35  36
ENDBRANCH  34  35
ENDBRANCH   1  34
TORSDOF 14
ENDMDL
MODEL 3
REMARK VINA RESULT:      -8.1      3.010      6.830
REMARK  14 active torsions:
REMARK  status: ('A' for Active; 'I' for Inactive)
REMARK    1  A    between atoms: C_2  and  N_3 
REMARK    2  A    between atoms: N_3  and  C_5 
REMARK    3  A    between atoms: N_3  and  C_39 
REMARK    4  A    between atoms: C_5  and  C_6 
REMARK    5  A    between atoms: C_6  and  C_7 
REMARK    6  A    between atoms: C_7  and  N_8 
REMARK    7  A    between atoms: C_11  and  O_12 
REMARK    8  A    between atoms: C_13  and  C_14 
REMARK    9  A    between atoms: C_14  and  C_15 
REMARK   10  A    between atoms: C_18  and  O_19 
REMARK   11  A    between atoms: O_19  and  C_20 
REMARK   12  A    between atoms: C_20  and  C_21 
REMARK   13  A    between atoms: C_31  and  C_32 
REMARK   14  A    between atoms: C_35  and  O_36 
ROOT
HETATM    1  N   UNL     1      40.705 -11.451   5.694  1.00  0.00    -0.333 N 
HETATM    2  C   UNL     1      41.207 -10.527   4.806  1.00  0.00     0.278 A 
HETATM    3  O   UNL     1      41.670  -9.422   5.035  1.00  0.00    -0.265 OA
HETATM    4  C   UNL     1      40.969 -11.043   3.441  1.00  0.00     0.146 A 
HETATM    5  C   UNL     1      40.416 -12.253   3.567  1.00  0.00     0.059 A 
HETATM    6  C   UNL     1      40.257 -12.658   5.002  1.00  0.00     0.161 A 
ENDROOT
BRANCH   5   7
HETATM    7  C   UNL     1      39.810 -13.110   2.529  1.00  0.00     0.193 C 
HETATM    8  O   UNL     1      38.855 -12.670   1.890  1.00  0.00    -0.287 OA
BRANCH   7   9
HETATM    9  C   UNL     1      40.357 -14.451   2.210  1.00  0.00     0.015 A 
HETATM   10  C   UNL     1      39.595 -15.620   2.306  1.00  0.00     0.018 A 
HETATM   11  C   UNL     1      40.171 -16.865   2.022  1.00  0.00     0.038 A 
HETATM   12  C   UNL     1      41.504 -16.946   1.614  1.00  0.00     0.069 A 
HETATM   13  C   UNL     1      42.244 -15.773   1.459  1.00  0.00     0.038 A 
HETATM   14  C   UNL     1      41.678 -14.531   1.755  1.00  0.00     0.018 A 
BRANCH  12  15
HETATM   15  O   UNL     1      42.181 -18.093   1.310  1.00  0.00    -0.347 OA
BRANCH  15  16
HETATM   16  C   UNL     1      43.592 -18.086   1.525  1.00  0.00     0.214 C 
BRANCH  16  17
HETATM   17  C   UNL     1      43.953 -19.232   2.439  1.00  0.00    -0.034 A 
HETATM   18  C   UNL     1      43.958 -20.553   1.973  1.00  0.00     0.010 A 
HETATM   19  C   UNL     1      44.329 -21.603   2.817  1.00  0.00     0.007 A 
HETATM   20  C   UNL     1      44.700 -21.352   4.143  1.00  0.00    -0.062 A 
HETATM   21  C   UNL     1      45.118 -22.468   5.054  1.00  0.00     0.048 C 
HETATM   22  C   UNL     1      44.700 -20.033   4.610  1.00  0.00     0.007 A 
HETATM   23  C   UNL     1      44.330 -18.984   3.767  1.00  0.00     0.010 A 
ENDBRANCH  16  17
ENDBRANCH  15  16
ENDBRANCH  12  15
ENDBRANCH   7   9
ENDBRANCH   5   7
BRANCH   4  24
HETATM   24  O   UNL     1      41.180 -10.296   2.322  1.00  0.00    -0.355 OA
HETATM   25  H   UNL     1      40.304  -9.976   2.028  1.00  0.00     0.218 HD
ENDBRANCH   4  24
BRANCH   6  26
HETATM   26  C   UNL     1      41.046 -13.894   5.395  1.00  0.00    -0.030 A 
HETATM   27  C   UNL     1      42.450 -13.950   5.313  1.00  0.00     0.012 A 
HETATM   28  C   UNL     1      43.141 -15.106   5.689  1.00  0.00     0.037 A 
HETATM   29  C   UNL     1      42.432 -16.209   6.152  1.00  0.00     0.065 A 
HETATM   30  C   UNL     1      41.048 -16.177   6.239  1.00  0.00     0.037 A 
HETATM   31  C   UNL     1      40.356 -15.027   5.858  1.00  0.00     0.012 A 
BRANCH  29  32
HETATM   32  O   UNL     1      43.062 -17.354   6.532  1.00  0.00    -0.361 OA
HETATM   33  H   UNL     1      42.953 -18.026   5.840  1.00  0.00     0.217 HD
ENDBRANCH  29  32
ENDBRANCH   6  26
BRANCH   1  34
HETATM   34  C   UNL     1      40.786 -11.393   7.151  1.00  0.00     0.129 C 
BRANCH  34  35
HETATM   35  C   UNL     1      42.159 -11.007   7.714  1.00  0.00     0.048 C 
BRANCH  35  36
HETATM   36  C   UNL     1      42.076 -10.569   9.175  1.00  0.00     0.236 C 
BRANCH  36  37
HETATM   37  N   UNL     1      43.018 -11.390  10.054  1.00  0.00    -0.072 N 
HETATM   38  H   UNL     1      42.547 -12.277  10.278  1.00  0.00     0.279 HD
BRANCH  37  39
HETATM   39  C   UNL     1      43.319 -10.678  11.364  1.00  0.00     0.230 C 
HETATM   40  C   UNL     1      42.627 -11.365  12.528  1.00  0.00     0.034 C 
ENDBRANCH  37  39
BRANCH  37  41
HETATM   41  C   UNL     1      44.299 -11.737   9.294  1.00  0.00     0.230 C 
HETATM   42  C   UNL     1      45.487 -10.973   9.852  1.00  0.00     0.034 C 
ENDBRANCH  37  41
ENDBRANCH  36  37
ENDBRANCH  35  36
ENDBRANCH  34  35
ENDBRANCH   1  34
TORSDOF 14
ENDMDL
MODEL 4
REMARK VINA RESULT:      -8.0      1.174      1.944
REMARK  14 active torsions:
REMARK  status: ('A' for Active; 'I' for Inactive)
REMARK    1  A    between atoms: C_2  and  N_3 
REMARK    2  A    between atoms: N_3  and  C_5 
REMARK    3  A    between atoms: N_3  and  C_39 
REMARK    4  A    between atoms: C_5  and  C_6 
REMARK    5  A    between atoms: C_6  and  C_7 
REMARK    6  A    between atoms: C_7  and  N_8 
REMARK    7  A    between atoms: C_11  and  O_12 
REMARK    8  A    between atoms: C_13  and  C_14 
REMARK    9  A    between atoms: C_14  and  C_15 
REMARK   10  A    between atoms: C_18  and  O_19 
REMARK   11  A    between atoms: O_19  and  C_20 
REMARK   12  A    between atoms: C_20  and  C_21 
REMARK   13  A    between atoms: C_31  and  C_32 
REMARK   14  A    between atoms: C_35  and  O_36 
ROOT
HETATM    1  N   UNL     1      40.194 -11.487   2.093  1.00  0.00    -0.333 N 
HETATM    2  C   UNL     1      39.033 -10.917   2.564  1.00  0.00     0.278 A 
HETATM    3  O   UNL     1      38.317 -10.087   2.028  1.00  0.00    -0.265 OA
HETATM    4  C   UNL     1      38.836 -11.385   3.953  1.00  0.00     0.146 A 
HETATM    5  C   UNL     1      39.821 -12.247   4.222  1.00  0.00     0.059 A 
HETATM    6  C   UNL     1      40.736 -12.448   3.051  1.00  0.00     0.161 A 
ENDROOT
BRANCH   5   7
HETATM    7  C   UNL     1      40.200 -12.850   5.516  1.00  0.00     0.193 C 
HETATM    8  O   UNL     1      39.561 -12.534   6.518  1.00  0.00    -0.287 OA
BRANCH   7   9
HETATM    9  C   UNL     1      41.287 -13.854   5.618  1.00  0.00     0.015 A 
HETATM   10  C   UNL     1      42.639 -13.500   5.684  1.00  0.00     0.018 A 
HETATM   11  C   UNL     1      43.626 -14.492   5.749  1.00  0.00     0.038 A 
HETATM   12  C   UNL     1      43.267 -15.840   5.776  1.00  0.00     0.069 A 
HETATM   13  C   UNL     1      41.915 -16.188   5.773  1.00  0.00     0.038 A 
HETATM   14  C   UNL     1      40.928 -15.204   5.693  1.00  0.00     0.018 A 
BRANCH  12  15
HETATM   15  O   UNL     1      44.129 -16.898   5.837  1.00  0.00    -0.347 OA
BRANCH  15  16
HETATM   16  C   UNL     1      43.570 -18.169   6.169  1.00  0.00     0.214 C 
BRANCH  16  17
HETATM   17  C   UNL     1      43.803 -19.121   5.020  1.00  0.00    -0.034 A 
HETATM   18  C   UNL     1      43.350 -18.818   3.729  1.00  0.00     0.010 A 
HETATM   19  C   UNL     1      43.602 -19.688   2.665  1.00  0.00     0.007 A 
HETATM   20  C   UNL     1      44.311 -20.877   2.873  1.00  0.00    -0.062 A 
HETATM   21  C   UNL     1      44.604 -21.811   1.736  1.00  0.00     0.048 C 
HETATM   22  C   UNL     1      44.768 -21.180   4.160  1.00  0.00     0.007 A 
HETATM   23  C   UNL     1      44.516 -20.310   5.223  1.00  0.00     0.010 A 
ENDBRANCH  16  17
ENDBRANCH  15  16
ENDBRANCH  12  15
ENDBRANCH   7   9
ENDBRANCH   5   7
BRANCH   4  24
HETATM   24  O   UNL     1      37.880 -10.872   4.777  1.00  0.00    -0.355 OA
HETATM   25  H   UNL     1      37.439 -11.632   5.204  1.00  0.00     0.218 HD
ENDBRANCH   4  24
BRANCH   6  26
HETATM   26  C   UNL     1      40.765 -13.867   2.515  1.00  0.00    -0.030 A 
HETATM   27  C   UNL     1      41.964 -14.523   2.182  1.00  0.00     0.012 A 
HETATM   28  C   UNL     1      41.950 -15.833   1.693  1.00  0.00     0.037 A 
HETATM   29  C   UNL     1      40.736 -16.494   1.539  1.00  0.00     0.065 A 
HETATM   30  C   UNL     1      39.541 -15.866   1.858  1.00  0.00     0.037 A 
HETATM   31  C   UNL     1      39.553 -14.557   2.339  1.00  0.00     0.012 A 
BRANCH  29  32
HETATM   32  O   UNL     1      40.673 -17.771   1.070  1.00  0.00    -0.361 OA
HETATM   33  H   UNL     1      41.558 -18.170   1.105  1.00  0.00     0.217 HD
ENDBRANCH  29  32
ENDBRANCH   6  26
BRANCH   1  34
HETATM   34  C   UNL     1      40.739 -11.364   0.744  1.00  0.00     0.129 C 
BRANCH  34  35
HETATM   35  C   UNL     1      39.817 -11.848  -0.381  1.00  0.00     0.048 C 
BRANCH  35  36
HETATM   36  C   UNL     1      40.494 -11.776  -1.748  1.00  0.00     0.236 C 
BRANCH  36  37
HETATM   37  N   UNL     1      40.498 -13.139  -2.437  1.00  0.00    -0.072 N 
HETATM   38  H   UNL     1      39.600 -13.248  -2.926  1.00  0.00     0.279 HD
BRANCH  37  39
HETATM   39  C   UNL     1      40.622 -14.272  -1.429  1.00  0.00     0.230 C 
HETATM   40  C   UNL     1      40.853 -15.600  -2.129  1.00  0.00     0.034 C 
ENDBRANCH  37  39
BRANCH  37  41
HETATM   41  C   UNL     1      41.600 -13.204  -3.496  1.00  0.00     0.230 C 
HETATM   42  C   UNL     1      42.037 -11.810  -3.913  1.00  0.00     0.034 C 
ENDBRANCH  37  41
ENDBRANCH  36  37
ENDBRANCH  35  36
ENDBRANCH  34  35
ENDBRANCH   1  34
TORSDOF 14
ENDMDL
MODEL 5
REMARK VINA RESULT:      -7.7      2.456      7.722
REMARK  14 active torsions:
REMARK  status: ('A' for Active; 'I' for Inactive)
REMARK    1  A    between atoms: C_2  and  N_3 
REMARK    2  A    between atoms: N_3  and  C_5 
REMARK    3  A    between atoms: N_3  and  C_39 
REMARK    4  A    between atoms: C_5  and  C_6 
REMARK    5  A    between atoms: C_6  and  C_7 
REMARK    6  A    between atoms: C_7  and  N_8 
REMARK    7  A    between atoms: C_11  and  O_12 
REMARK    8  A    between atoms: C_13  and  C_14 
REMARK    9  A    between atoms: C_14  and  C_15 
REMARK   10  A    between atoms: C_18  and  O_19 
REMARK   11  A    between atoms: O_19  and  C_20 
REMARK   12  A    between atoms: C_20  and  C_21 
REMARK   13  A    between atoms: C_31  and  C_32 
REMARK   14  A    between atoms: C_35  and  O_36 
ROOT
HETATM    1  N   UNL     1      42.655 -16.822   5.460  1.00  0.00    -0.333 N 
HETATM    2  C   UNL     1      43.509 -16.007   6.167  1.00  0.00     0.278 A 
HETATM    3  O   UNL     1      44.500 -16.314   6.810  1.00  0.00    -0.265 OA
HETATM    4  C   UNL     1      42.947 -14.640   6.143  1.00  0.00     0.146 A 
HETATM    5  C   UNL     1      41.848 -14.679   5.384  1.00  0.00     0.059 A 
HETATM    6  C   UNL     1      41.593 -16.046   4.822  1.00  0.00     0.161 A 
ENDROOT
BRANCH   5   7
HETATM    7  C   UNL     1      40.815 -13.642   5.191  1.00  0.00     0.193 C 
HETATM    8  O   UNL     1      40.197 -13.241   6.177  1.00  0.00    -0.287 OA
BRANCH   7   9
HETATM    9  C   UNL     1      40.549 -13.045   3.859  1.00  0.00     0.015 A 
HETATM   10  C   UNL     1      41.441 -12.168   3.233  1.00  0.00     0.018 A 
HETATM   11  C   UNL     1      41.125 -11.610   1.988  1.00  0.00     0.038 A 
HETATM   12  C   UNL     1      39.930 -11.945   1.350  1.00  0.00     0.069 A 
HETATM   13  C   UNL     1      39.070 -12.867   1.949  1.00  0.00     0.038 A 
HETATM   14  C   UNL     1      39.374 -13.415   3.197  1.00  0.00     0.018 A 
BRANCH  12  15
HETATM   15  O   UNL     1      39.506 -11.470   0.141  1.00  0.00    -0.347 OA
BRANCH  15  16
HETATM   16  C   UNL     1      40.416 -11.584  -0.953  1.00  0.00     0.214 C 
BRANCH  16  17
HETATM   17  C   UNL     1      40.028 -12.782  -1.788  1.00  0.00    -0.034 A 
HETATM   18  C   UNL     1      38.722 -13.289  -1.760  1.00  0.00     0.010 A 
HETATM   19  C   UNL     1      38.364 -14.374  -2.564  1.00  0.00     0.007 A 
HETATM   20  C   UNL     1      39.305 -14.973  -3.409  1.00  0.00    -0.062 A 
HETATM   21  C   UNL     1      38.929 -16.127  -4.291  1.00  0.00     0.048 C 
HETATM   22  C   UNL     1      40.609 -14.466  -3.442  1.00  0.00     0.007 A 
HETATM   23  C   UNL     1      40.967 -13.381  -2.639  1.00  0.00     0.010 A 
ENDBRANCH  16  17
ENDBRANCH  15  16
ENDBRANCH  12  15
ENDBRANCH   7   9
ENDBRANCH   5   7
BRANCH   4  24
HETATM   24  O   UNL     1      43.447 -13.622   6.898  1.00  0.00    -0.355 OA
HETATM   25  H   UNL     1      44.064 -14.025   7.540  1.00  0.00     0.218 HD
ENDBRANCH   4  24
BRANCH   6  26
HETATM   26  C   UNL     1      41.635 -16.119   3.307  1.00  0.00    -0.030 A 
HETATM   27  C   UNL     1      42.675 -15.546   2.553  1.00  0.00     0.012 A 
HETATM   28  C   UNL     1      42.680 -15.639   1.158  1.00  0.00     0.037 A 
HETATM   29  C   UNL     1      41.646 -16.307   0.511  1.00  0.00     0.065 A 
HETATM   30  C   UNL     1      40.608 -16.877   1.234  1.00  0.00     0.037 A 
HETATM   31  C   UNL     1      40.598 -16.780   2.626  1.00  0.00     0.012 A 
BRANCH  29  32
HETATM   32  O   UNL     1      41.610 -16.425  -0.845  1.00  0.00    -0.361 OA
HETATM   33  H   UNL     1      42.397 -16.907  -1.146  1.00  0.00     0.217 HD
ENDBRANCH  29  32
ENDBRANCH   6  26
BRANCH   1  34
HETATM   34  C   UNL     1      42.849 -18.238   5.161  1.00  0.00     0.129 C 
BRANCH  34  35
HETATM   35  C   UNL     1      44.021 -18.553   4.224  1.00  0.00     0.048 C 
BRANCH  35  36
HETATM   36  C   UNL     1      44.935 -19.636   4.793  1.00  0.00     0.236 C 
BRANCH  36  37
HETATM   37  N   UNL     1      45.094 -20.798   3.814  1.00  0.00    -0.072 N 
HETATM   38  H   UNL     1      46.078 -20.826   3.516  1.00  0.00     0.279 HD
BRANCH  37  39
HETATM   39  C   UNL     1      44.235 -20.602   2.574  1.00  0.00     0.230 C 
HETATM   40  C   UNL     1      44.164 -21.879   1.755  1.00  0.00     0.034 C 
ENDBRANCH  37  39
BRANCH  37  41
HETATM   41  C   UNL     1      44.792 -22.129   4.504  1.00  0.00     0.230 C 
HETATM   42  C   UNL     1      44.377 -21.912   5.949  1.00  0.00     0.034 C 
ENDBRANCH  37  41
ENDBRANCH  36  37
ENDBRANCH  35  36
ENDBRANCH  34  35
ENDBRANCH   1  34
TORSDOF 14
ENDMDL
MODEL 6
REMARK VINA RESULT:      -7.3      4.369      7.860
REMARK  14 active torsions:
REMARK  status: ('A' for Active; 'I' for Inactive)
REMARK    1  A    between atoms: C_2  and  N_3 
REMARK    2  A    between atoms: N_3  and  C_5 
REMARK    3  A    between atoms: N_3  and  C_39 
REMARK    4  A    between atoms: C_5  and  C_6 
REMARK    5  A    between atoms: C_6  and  C_7 
REMARK    6  A    between atoms: C_7  and  N_8 
REMARK    7  A    between atoms: C_11  and  O_12 
REMARK    8  A    between atoms: C_13  and  C_14 
REMARK    9  A    between atoms: C_14  and  C_15 
REMARK   10  A    between atoms: C_18  and  O_19 
REMARK   11  A    between atoms: O_19  and  C_20 
REMARK   12  A    between atoms: C_20  and  C_21 
REMARK   13  A    between atoms: C_31  and  C_32 
REMARK   14  A    between atoms: C_35  and  O_36 
ROOT
HETATM    1  N   UNL     1      40.804 -14.100   1.936  1.00  0.00    -0.333 N 
HETATM    2  C   UNL     1      39.464 -13.854   1.744  1.00  0.00     0.278 A 
HETATM    3  O   UNL     1      38.681 -14.427   1.004  1.00  0.00    -0.265 OA
HETATM    4  C   UNL     1      39.117 -12.637   2.510  1.00  0.00     0.146 A 
HETATM    5  C   UNL     1      40.217 -12.258   3.167  1.00  0.00     0.059 A 
HETATM    6  C   UNL     1      41.371 -13.183   2.923  1.00  0.00     0.161 A 
ENDROOT
BRANCH   5   7
HETATM    7  C   UNL     1      40.468 -11.010   3.915  1.00  0.00     0.193 C 
HETATM    8  O   UNL     1      40.589  -9.962   3.282  1.00  0.00    -0.287 OA
BRANCH   7   9
HETATM    9  C   UNL     1      40.524 -10.989   5.397  1.00  0.00     0.015 A 
HETATM   10  C   UNL     1      39.527 -11.554   6.199  1.00  0.00     0.018 A 
HETATM   11  C   UNL     1      39.616 -11.478   7.595  1.00  0.00     0.038 A 
HETATM   12  C   UNL     1      40.714 -10.861   8.197  1.00  0.00     0.069 A 
HETATM   13  C   UNL     1      41.737 -10.352   7.395  1.00  0.00     0.038 A 
HETATM   14  C   UNL     1      41.646 -10.413   6.003  1.00  0.00     0.018 A 
BRANCH  12  15
HETATM   15  O   UNL     1      40.918 -10.720   9.541  1.00  0.00    -0.347 OA
BRANCH  15  16
HETATM   16  C   UNL     1      42.258 -10.866  10.010  1.00  0.00     0.214 C 
BRANCH  16  17
HETATM   17  C   UNL     1      42.297 -10.541  11.484  1.00  0.00    -0.034 A 
HETATM   18  C   UNL     1      43.342  -9.782  12.028  1.00  0.00     0.010 A 
HETATM   19  C   UNL     1      43.350  -9.455  13.387  1.00  0.00     0.007 A 
HETATM   20  C   UNL     1      42.315  -9.882  14.226  1.00  0.00    -0.062 A 
HETATM   21  C   UNL     1      42.302  -9.523  15.683  1.00  0.00     0.048 C 
HETATM   22  C   UNL     1      41.269 -10.637  13.685  1.00  0.00     0.007 A 
HETATM   23  C   UNL     1      41.260 -10.963  12.327  1.00  0.00     0.010 A 
ENDBRANCH  16  17
ENDBRANCH  15  16
ENDBRANCH  12  15
ENDBRANCH   7   9
ENDBRANCH   5   7
BRANCH   4  24
HETATM   24  O   UNL     1      37.913 -12.011   2.396  1.00  0.00    -0.355 OA
HETATM   25  H   UNL     1      37.270 -12.688   2.105  1.00  0.00     0.218 HD
ENDBRANCH   4  24
BRANCH   6  26
HETATM   26  C   UNL     1      41.881 -13.892   4.165  1.00  0.00    -0.030 A 
HETATM   27  C   UNL     1      41.035 -14.633   5.010  1.00  0.00     0.012 A 
HETATM   28  C   UNL     1      41.543 -15.275   6.144  1.00  0.00     0.037 A 
HETATM   29  C   UNL     1      42.899 -15.182   6.435  1.00  0.00     0.065 A 
HETATM   30  C   UNL     1      43.751 -14.454   5.617  1.00  0.00     0.037 A 
HETATM   31  C   UNL     1      43.245 -13.806   4.490  1.00  0.00     0.012 A 
BRANCH  29  32
HETATM   32  O   UNL     1      43.439 -15.792   7.525  1.00  0.00    -0.361 OA
HETATM   33  H   UNL     1      43.146 -16.717   7.553  1.00  0.00     0.217 HD
ENDBRANCH  29  32
ENDBRANCH   6  26
BRANCH   1  34
HETATM   34  C   UNL     1      41.562 -15.240   1.430  1.00  0.00     0.129 C 
BRANCH  34  35
HETATM   35  C   UNL     1      41.102 -16.610   1.942  1.00  0.00     0.048 C 
BRANCH  35  36
HETATM   36  C   UNL     1      41.975 -17.744   1.409  1.00  0.00     0.236 C 
BRANCH  36  37
HETATM   37  N   UNL     1      42.506 -18.616   2.546  1.00  0.00    -0.072 N 
HETATM   38  H   UNL     1      41.825 -19.370   2.709  1.00  0.00     0.279 HD
BRANCH  37  39
HETATM   39  C   UNL     1      42.644 -17.825   3.837  1.00  0.00     0.230 C 
HETATM   40  C   UNL     1      43.804 -18.340   4.670  1.00  0.00     0.034 C 
ENDBRANCH  37  39
BRANCH  37  41
HETATM   41  C   UNL     1      43.825 -19.277   2.146  1.00  0.00     0.230 C 
HETATM   42  C   UNL     1      43.632 -20.759   1.876  1.00  0.00     0.034 C 
ENDBRANCH  37  41
ENDBRANCH  36  37
ENDBRANCH  35  36
ENDBRANCH  34  35
ENDBRANCH   1  34
TORSDOF 14
ENDMDL
MODEL 7
REMARK VINA RESULT:      -7.0      3.561      7.331
REMARK  14 active torsions:
REMARK  status: ('A' for Active; 'I' for Inactive)
REMARK    1  A    between atoms: C_2  and  N_3 
REMARK    2  A    between atoms: N_3  and  C_5 
REMARK    3  A    between atoms: N_3  and  C_39 
REMARK    4  A    between atoms: C_5  and  C_6 
REMARK    5  A    between atoms: C_6  and  C_7 
REMARK    6  A    between atoms: C_7  and  N_8 
REMARK    7  A    between atoms: C_11  and  O_12 
REMARK    8  A    between atoms: C_13  and  C_14 
REMARK    9  A    between atoms: C_14  and  C_15 
REMARK   10  A    between atoms: C_18  and  O_19 
REMARK   11  A    between atoms: O_19  and  C_20 
REMARK   12  A    between atoms: C_20  and  C_21 
REMARK   13  A    between atoms: C_31  and  C_32 
REMARK   14  A    between atoms: C_35  and  O_36 
ROOT
HETATM    1  N   UNL     1      40.976 -10.794   6.654  1.00  0.00    -0.333 N 
HETATM    2  C   UNL     1      41.403  -9.697   5.941  1.00  0.00     0.278 A 
HETATM    3  O   UNL     1      41.836  -8.635   6.358  1.00  0.00    -0.265 OA
HETATM    4  C   UNL     1      41.122  -9.955   4.512  1.00  0.00     0.146 A 
HETATM    5  C   UNL     1      40.619 -11.190   4.426  1.00  0.00     0.059 A 
HETATM    6  C   UNL     1      40.541 -11.866   5.762  1.00  0.00     0.161 A 
ENDROOT
BRANCH   5   7
HETATM    7  C   UNL     1      39.998 -11.861   3.266  1.00  0.00     0.193 C 
HETATM    8  O   UNL     1      38.969 -11.381   2.794  1.00  0.00    -0.287 OA
BRANCH   7   9
HETATM    9  C   UNL     1      40.612 -13.056   2.637  1.00  0.00     0.015 A 
HETATM   10  C   UNL     1      41.973 -13.128   2.321  1.00  0.00     0.018 A 
HETATM   11  C   UNL     1      42.494 -14.270   1.699  1.00  0.00     0.038 A 
HETATM   12  C   UNL     1      41.665 -15.356   1.415  1.00  0.00     0.069 A 
HETATM   13  C   UNL     1      40.320 -15.306   1.787  1.00  0.00     0.038 A 
HETATM   14  C   UNL     1      39.793 -14.164   2.394  1.00  0.00     0.018 A 
BRANCH  12  15
HETATM   15  O   UNL     1      42.047 -16.521   0.813  1.00  0.00    -0.347 OA
BRANCH  15  16
HETATM   16  C   UNL     1      41.449 -17.724   1.295  1.00  0.00     0.214 C 
BRANCH  16  17
HETATM   17  C   UNL     1      42.448 -18.451   2.165  1.00  0.00    -0.034 A 
HETATM   18  C   UNL     1      42.481 -18.246   3.550  1.00  0.00     0.010 A 
HETATM   19  C   UNL     1      43.384 -18.951   4.351  1.00  0.00     0.007 A 
HETATM   20  C   UNL     1      44.271 -19.871   3.781  1.00  0.00    -0.062 A 
HETATM   21  C   UNL     1      45.233 -20.648   4.631  1.00  0.00     0.048 C 
HETATM   22  C   UNL     1      44.237 -20.080   2.398  1.00  0.00     0.007 A 
HETATM   23  C   UNL     1      43.335 -19.376   1.598  1.00  0.00     0.010 A 
ENDBRANCH  16  17
ENDBRANCH  15  16
ENDBRANCH  12  15
ENDBRANCH   7   9
ENDBRANCH   5   7
BRANCH   4  24
HETATM   24  O   UNL     1      41.255  -9.001   3.549  1.00  0.00    -0.355 OA
HETATM   25  H   UNL     1      41.420  -8.156   4.011  1.00  0.00     0.218 HD
ENDBRANCH   4  24
BRANCH   6  26
HETATM   26  C   UNL     1      41.391 -13.118   5.882  1.00  0.00    -0.030 A 
HETATM   27  C   UNL     1      40.830 -14.407   5.945  1.00  0.00     0.012 A 
HETATM   28  C   UNL     1      41.647 -15.536   6.052  1.00  0.00     0.037 A 
HETATM   29  C   UNL     1      43.029 -15.382   6.093  1.00  0.00     0.065 A 
HETATM   30  C   UNL     1      43.603 -14.121   6.035  1.00  0.00     0.037 A 
HETATM   31  C   UNL     1      42.790 -12.992   5.935  1.00  0.00     0.012 A 
BRANCH  29  32
HETATM   32  O   UNL     1      43.864 -16.453   6.193  1.00  0.00    -0.361 OA
HETATM   33  H   UNL     1      44.543 -16.268   6.861  1.00  0.00     0.217 HD
ENDBRANCH  29  32
ENDBRANCH   6  26
BRANCH   1  34
HETATM   34  C   UNL     1      41.122 -11.009   8.091  1.00  0.00     0.129 C 
BRANCH  34  35
HETATM   35  C   UNL     1      40.024 -10.385   8.960  1.00  0.00     0.048 C 
BRANCH  35  36
HETATM   36  C   UNL     1      40.599  -9.460  10.032  1.00  0.00     0.236 C 
BRANCH  36  37
HETATM   37  N   UNL     1      41.478 -10.230  11.015  1.00  0.00    -0.072 N 
HETATM   38  H   UNL     1      41.581 -11.190  10.661  1.00  0.00     0.279 HD
BRANCH  37  39
HETATM   39  C   UNL     1      40.838 -10.306  12.393  1.00  0.00     0.230 C 
HETATM   40  C   UNL     1      40.234 -11.678  12.637  1.00  0.00     0.034 C 
ENDBRANCH  37  39
BRANCH  37  41
HETATM   41  C   UNL     1      42.878  -9.619  11.078  1.00  0.00     0.230 C 
HETATM   42  C   UNL     1      43.597 -10.033  12.350  1.00  0.00     0.034 C 
ENDBRANCH  37  41
ENDBRANCH  36  37
ENDBRANCH  35  36
ENDBRANCH  34  35
ENDBRANCH   1  34
TORSDOF 14
ENDMDL
MODEL 8
REMARK VINA RESULT:      -6.8      4.837      8.367
REMARK  14 active torsions:
REMARK  status: ('A' for Active; 'I' for Inactive)
REMARK    1  A    between atoms: C_2  and  N_3 
REMARK    2  A    between atoms: N_3  and  C_5 
REMARK    3  A    between atoms: N_3  and  C_39 
REMARK    4  A    between atoms: C_5  and  C_6 
REMARK    5  A    between atoms: C_6  and  C_7 
REMARK    6  A    between atoms: C_7  and  N_8 
REMARK    7  A    between atoms: C_11  and  O_12 
REMARK    8  A    between atoms: C_13  and  C_14 
REMARK    9  A    between atoms: C_14  and  C_15 
REMARK   10  A    between atoms: C_18  and  O_19 
REMARK   11  A    between atoms: O_19  and  C_20 
REMARK   12  A    between atoms: C_20  and  C_21 
REMARK   13  A    between atoms: C_31  and  C_32 
REMARK   14  A    between atoms: C_35  and  O_36 
ROOT
HETATM    1  N   UNL     1      41.222  -8.761   7.617  1.00  0.00    -0.333 N 
HETATM    2  C   UNL     1      41.332  -8.616   6.253  1.00  0.00     0.278 A 
HETATM    3  O   UNL     1      41.561  -7.606   5.608  1.00  0.00    -0.265 OA
HETATM    4  C   UNL     1      40.981  -9.913   5.635  1.00  0.00     0.146 A 
HETATM    5  C   UNL     1      40.752 -10.775   6.630  1.00  0.00     0.059 A 
HETATM    6  C   UNL     1      40.948 -10.151   7.979  1.00  0.00     0.161 A 
ENDROOT
BRANCH   5   7
HETATM    7  C   UNL     1      40.185 -12.137   6.567  1.00  0.00     0.193 C 
HETATM    8  O   UNL     1      39.062 -12.326   7.033  1.00  0.00    -0.287 OA
BRANCH   7   9
HETATM    9  C   UNL     1      40.912 -13.253   5.915  1.00  0.00     0.015 A 
HETATM   10  C   UNL     1      40.294 -14.464   5.582  1.00  0.00     0.018 A 
HETATM   11  C   UNL     1      41.037 -15.497   4.994  1.00  0.00     0.038 A 
HETATM   12  C   UNL     1      42.391 -15.316   4.711  1.00  0.00     0.069 A 
HETATM   13  C   UNL     1      42.989 -14.085   4.988  1.00  0.00     0.038 A 
HETATM   14  C   UNL     1      42.257 -13.058   5.587  1.00  0.00     0.018 A 
BRANCH  12  15
HETATM   15  O   UNL     1      43.222 -16.240   4.144  1.00  0.00    -0.347 OA
BRANCH  15  16
HETATM   16  C   UNL     1      43.592 -17.358   4.952  1.00  0.00     0.214 C 
BRANCH  16  17
HETATM   17  C   UNL     1      43.719 -18.577   4.069  1.00  0.00    -0.034 A 
HETATM   18  C   UNL     1      43.040 -18.656   2.846  1.00  0.00     0.010 A 
HETATM   19  C   UNL     1      43.194 -19.773   2.020  1.00  0.00     0.007 A 
HETATM   20  C   UNL     1      44.026 -20.830   2.402  1.00  0.00    -0.062 A 
HETATM   21  C   UNL     1      44.214 -22.027   1.516  1.00  0.00     0.048 C 
HETATM   22  C   UNL     1      44.708 -20.752   3.622  1.00  0.00     0.007 A 
HETATM   23  C   UNL     1      44.556 -19.636   4.447  1.00  0.00     0.010 A 
ENDBRANCH  16  17
ENDBRANCH  15  16
ENDBRANCH  12  15
ENDBRANCH   7   9
ENDBRANCH   5   7
BRANCH   4  24
HETATM   24  O   UNL     1      40.811 -10.069   4.293  1.00  0.00    -0.355 OA
HETATM   25  H   UNL     1      40.537 -10.996   4.150  1.00  0.00     0.218 HD
ENDBRANCH   4  24
BRANCH   6  26
HETATM   26  C   UNL     1      42.057 -10.777   8.805  1.00  0.00    -0.030 A 
HETATM   27  C   UNL     1      43.249 -11.255   8.228  1.00  0.00     0.012 A 
HETATM   28  C   UNL     1      44.249 -11.822   9.023  1.00  0.00     0.037 A 
HETATM   29  C   UNL     1      44.064 -11.911  10.398  1.00  0.00     0.065 A 
HETATM   30  C   UNL     1      42.896 -11.450  10.988  1.00  0.00     0.037 A 
HETATM   31  C   UNL     1      41.894 -10.890  10.196  1.00  0.00     0.012 A 
BRANCH  29  32
HETATM   32  O   UNL     1      45.011 -12.453  11.213  1.00  0.00    -0.361 OA
HETATM   33  H   UNL     1      44.758 -12.309  12.139  1.00  0.00     0.217 HD
ENDBRANCH  29  32
ENDBRANCH   6  26
BRANCH   1  34
HETATM   34  C   UNL     1      41.546  -7.759   8.629  1.00  0.00     0.129 C 
BRANCH  34  35
HETATM   35  C   UNL     1      40.464  -7.529   9.691  1.00  0.00     0.048 C 
BRANCH  35  36
HETATM   36  C   UNL     1      41.018  -7.655  11.109  1.00  0.00     0.236 C 
BRANCH  36  37
HETATM   37  N   UNL     1      39.977  -8.242  12.060  1.00  0.00    -0.072 N 
HETATM   38  H   UNL     1      39.355  -7.478  12.357  1.00  0.00     0.279 HD
BRANCH  37  39
HETATM   39  C   UNL     1      40.626  -8.827  13.305  1.00  0.00     0.230 C 
HETATM   40  C   UNL     1      41.884  -8.060  13.674  1.00  0.00     0.034 C 
ENDBRANCH  37  39
BRANCH  37  41
HETATM   41  C   UNL     1      39.110  -9.274  11.339  1.00  0.00     0.230 C 
HETATM   42  C   UNL     1      37.633  -9.013  11.584  1.00  0.00     0.034 C 
ENDBRANCH  37  41
ENDBRANCH  36  37
ENDBRANCH  35  36
ENDBRANCH  34  35
ENDBRANCH   1  34
TORSDOF 14
ENDMDL
MODEL 9
REMARK VINA RESULT:      -6.8      3.358      5.317
REMARK  14 active torsions:
REMARK  status: ('A' for Active; 'I' for Inactive)
REMARK    1  A    between atoms: C_2  and  N_3 
REMARK    2  A    between atoms: N_3  and  C_5 
REMARK    3  A    between atoms: N_3  and  C_39 
REMARK    4  A    between atoms: C_5  and  C_6 
REMARK    5  A    between atoms: C_6  and  C_7 
REMARK    6  A    between atoms: C_7  and  N_8 
REMARK    7  A    between atoms: C_11  and  O_12 
REMARK    8  A    between atoms: C_13  and  C_14 
REMARK    9  A    between atoms: C_14  and  C_15 
REMARK   10  A    between atoms: C_18  and  O_19 
REMARK   11  A    between atoms: O_19  and  C_20 
REMARK   12  A    between atoms: C_20  and  C_21 
REMARK   13  A    between atoms: C_31  and  C_32 
REMARK   14  A    between atoms: C_35  and  O_36 
ROOT
HETATM    1  N   UNL     1      40.659 -12.931  -2.924  1.00  0.00    -0.333 N 
HETATM    2  C   UNL     1      41.000 -14.264  -2.902  1.00  0.00     0.278 A 
HETATM    3  O   UNL     1      41.303 -14.990  -3.835  1.00  0.00    -0.265 OA
HETATM    4  C   UNL     1      40.808 -14.753  -1.520  1.00  0.00     0.146 A 
HETATM    5  C   UNL     1      40.439 -13.704  -0.778  1.00  0.00     0.059 A 
HETATM    6  C   UNL     1      40.375 -12.437  -1.578  1.00  0.00     0.161 A 
ENDROOT
BRANCH   5   7
HETATM    7  C   UNL     1      39.940 -13.679   0.611  1.00  0.00     0.193 C 
HETATM    8  O   UNL     1      38.901 -13.064   0.849  1.00  0.00    -0.287 OA
BRANCH   7   9
HETATM    9  C   UNL     1      40.629 -14.414   1.700  1.00  0.00     0.015 A 
HETATM   10  C   UNL     1      41.924 -14.096   2.123  1.00  0.00     0.018 A 
HETATM   11  C   UNL     1      42.539 -14.843   3.136  1.00  0.00     0.038 A 
HETATM   12  C   UNL     1      41.855 -15.894   3.749  1.00  0.00     0.069 A 
HETATM   13  C   UNL     1      40.541 -16.169   3.366  1.00  0.00     0.038 A 
HETATM   14  C   UNL     1      39.929 -15.436   2.348  1.00  0.00     0.018 A 
BRANCH  12  15
HETATM   15  O   UNL     1      42.341 -16.696   4.741  1.00  0.00    -0.347 OA
BRANCH  15  16
HETATM   16  C   UNL     1      43.720 -17.056   4.664  1.00  0.00     0.214 C 
BRANCH  16  17
HETATM   17  C   UNL     1      43.845 -18.352   3.898  1.00  0.00    -0.034 A 
HETATM   18  C   UNL     1      43.389 -18.456   2.578  1.00  0.00     0.010 A 
HETATM   19  C   UNL     1      43.542 -19.648   1.865  1.00  0.00     0.007 A 
HETATM   20  C   UNL     1      44.153 -20.758   2.460  1.00  0.00    -0.062 A 
HETATM   21  C   UNL     1      44.340 -22.038   1.700  1.00  0.00     0.048 C 
HETATM   22  C   UNL     1      44.612 -20.655   3.778  1.00  0.00     0.007 A 
HETATM   23  C   UNL     1      44.460 -19.464   4.490  1.00  0.00     0.010 A 
ENDBRANCH  16  17
ENDBRANCH  15  16
ENDBRANCH  12  15
ENDBRANCH   7   9
ENDBRANCH   5   7
BRANCH   4  24
HETATM   24  O   UNL     1      40.881 -16.071  -1.186  1.00  0.00    -0.355 OA
HETATM   25  H   UNL     1      40.967 -16.569  -2.022  1.00  0.00     0.218 HD
ENDBRANCH   4  24
BRANCH   6  26
HETATM   26  C   UNL     1      41.344 -11.360  -1.125  1.00  0.00    -0.030 A 
HETATM   27  C   UNL     1      42.728 -11.441  -1.366  1.00  0.00     0.012 A 
HETATM   28  C   UNL     1      43.588 -10.426  -0.937  1.00  0.00     0.037 A 
HETATM   29  C   UNL     1      43.068  -9.324  -0.267  1.00  0.00     0.065 A 
HETATM   30  C   UNL     1      41.707  -9.224  -0.016  1.00  0.00     0.037 A 
HETATM   31  C   UNL     1      40.848 -10.240  -0.438  1.00  0.00     0.012 A 
BRANCH  29  32
HETATM   32  O   UNL     1      43.866  -8.310   0.167  1.00  0.00    -0.361 OA
HETATM   33  H   UNL     1      44.404  -8.622   0.912  1.00  0.00     0.217 HD
ENDBRANCH  29  32
ENDBRANCH   6  26
BRANCH   1  34
HETATM   34  C   UNL     1      40.766 -12.023  -4.062  1.00  0.00     0.129 C 
BRANCH  34  35
HETATM   35  C   UNL     1      39.553 -11.113  -4.290  1.00  0.00     0.048 C 
BRANCH  35  36
HETATM   36  C   UNL     1      39.883  -9.644  -4.037  1.00  0.00     0.236 C 
BRANCH  36  37
HETATM   37  N   UNL     1      40.147  -8.902  -5.346  1.00  0.00    -0.072 N 
HETATM   38  H   UNL     1      39.449  -8.151  -5.429  1.00  0.00     0.279 HD
BRANCH  37  39
HETATM   39  C   UNL     1      39.987  -9.821  -6.548  1.00  0.00     0.230 C 
HETATM   40  C   UNL     1      41.184  -9.715  -7.476  1.00  0.00     0.034 C 
ENDBRANCH  37  39
BRANCH  37  41
HETATM   41  C   UNL     1      41.525  -8.240  -5.322  1.00  0.00     0.230 C 
HETATM   42  C   UNL     1      42.272  -8.584  -4.046  1.00  0.00     0.034 C 
ENDBRANCH  37  41
ENDBRANCH  36  37
ENDBRANCH  35  36
ENDBRANCH  34  35
ENDBRANCH   1  34
TORSDOF 14
ENDMDL
MODEL 10
REMARK VINA RESULT:      -6.7      2.085      2.938
REMARK  14 active torsions:
REMARK  status: ('A' for Active; 'I' for Inactive)
REMARK    1  A    between atoms: C_2  and  N_3 
REMARK    2  A    between atoms: N_3  and  C_5 
REMARK    3  A    between atoms: N_3  and  C_39 
REMARK    4  A    between atoms: C_5  and  C_6 
REMARK    5  A    between atoms: C_6  and  C_7 
REMARK    6  A    between atoms: C_7  and  N_8 
REMARK    7  A    between atoms: C_11  and  O_12 
REMARK    8  A    between atoms: C_13  and  C_14 
REMARK    9  A    between atoms: C_14  and  C_15 
REMARK   10  A    between atoms: C_18  and  O_19 
REMARK   11  A    between atoms: O_19  and  C_20 
REMARK   12  A    between atoms: C_20  and  C_21 
REMARK   13  A    between atoms: C_31  and  C_32 
REMARK   14  A    between atoms: C_35  and  O_36 
ROOT
HETATM    1  N   UNL     1      39.127 -10.407   0.297  1.00  0.00    -0.333 N 
HETATM    2  C   UNL     1      37.819 -10.174   0.656  1.00  0.00     0.278 A 
HETATM    3  O   UNL     1      36.944  -9.607   0.024  1.00  0.00    -0.265 OA
HETATM    4  C   UNL     1      37.653 -10.620   2.056  1.00  0.00     0.146 A 
HETATM    5  C   UNL     1      38.817 -11.153   2.441  1.00  0.00     0.059 A 
HETATM    6  C   UNL     1      39.841 -11.133   1.347  1.00  0.00     0.161 A 
ENDROOT
BRANCH   5   7
HETATM    7  C   UNL     1      39.246 -11.567   3.792  1.00  0.00     0.193 C 
HETATM    8  O   UNL     1      38.669 -11.083   4.764  1.00  0.00    -0.287 OA
BRANCH   7   9
HETATM    9  C   UNL     1      40.309 -12.582   3.993  1.00  0.00     0.015 A 
HETATM   10  C   UNL     1      41.646 -12.239   4.223  1.00  0.00     0.018 A 
HETATM   11  C   UNL     1      42.615 -13.239   4.376  1.00  0.00     0.038 A 
HETATM   12  C   UNL     1      42.250 -14.585   4.328  1.00  0.00     0.069 A 
HETATM   13  C   UNL     1      40.906 -14.924   4.160  1.00  0.00     0.038 A 
HETATM   14  C   UNL     1      39.939 -13.930   3.993  1.00  0.00     0.018 A 
BRANCH  12  15
HETATM   15  O   UNL     1      43.095 -15.651   4.461  1.00  0.00    -0.347 OA
BRANCH  15  16
HETATM   16  C   UNL     1      42.545 -16.846   5.014  1.00  0.00     0.214 C 
BRANCH  16  17
HETATM   17  C   UNL     1      43.002 -18.023   4.185  1.00  0.00    -0.034 A 
HETATM   18  C   UNL     1      42.519 -18.221   2.885  1.00  0.00     0.010 A 
HETATM   19  C   UNL     1      42.976 -19.292   2.112  1.00  0.00     0.007 A 
HETATM   20  C   UNL     1      43.923 -20.185   2.626  1.00  0.00    -0.062 A 
HETATM   21  C   UNL     1      44.436 -21.328   1.801  1.00  0.00     0.048 C 
HETATM   22  C   UNL     1      44.410 -19.988   3.923  1.00  0.00     0.007 A 
HETATM   23  C   UNL     1      43.954 -18.917   4.694  1.00  0.00     0.010 A 
ENDBRANCH  16  17
ENDBRANCH  15  16
ENDBRANCH  12  15
ENDBRANCH   7   9
ENDBRANCH   5   7
BRANCH   4  24
HETATM   24  O   UNL     1      36.529 -10.368   2.783  1.00  0.00    -0.355 OA
HETATM   25  H   UNL     1      36.722  -9.588   3.339  1.00  0.00     0.218 HD
ENDBRANCH   4  24
BRANCH   6  26
HETATM   26  C   UNL     1      40.311 -12.506   0.903  1.00  0.00    -0.030 A 
HETATM   27  C   UNL     1      39.416 -13.547   0.596  1.00  0.00     0.012 A 
HETATM   28  C   UNL     1      39.889 -14.797   0.187  1.00  0.00     0.037 A 
HETATM   29  C   UNL     1      41.258 -15.011   0.079  1.00  0.00     0.065 A 
HETATM   30  C   UNL     1      42.160 -14.000   0.379  1.00  0.00     0.037 A 
HETATM   31  C   UNL     1      41.690 -12.753   0.794  1.00  0.00     0.012 A 
BRANCH  29  32
HETATM   32  O   UNL     1      41.765 -16.211  -0.319  1.00  0.00    -0.361 OA
HETATM   33  H   UNL     1      42.734 -16.158  -0.342  1.00  0.00     0.217 HD
ENDBRANCH  29  32
ENDBRANCH   6  26
BRANCH   1  34
HETATM   34  C   UNL     1      39.721 -10.191  -1.019  1.00  0.00     0.129 C 
BRANCH  34  35
HETATM   35  C   UNL     1      39.149 -11.059  -2.146  1.00  0.00     0.048 C 
BRANCH  35  36
HETATM   36  C   UNL     1      40.154 -11.265  -3.277  1.00  0.00     0.236 C 
BRANCH  36  37
HETATM   37  N   UNL     1      41.579 -11.376  -2.739  1.00  0.00    -0.072 N 
HETATM   38  H   UNL     1      41.538 -11.283  -1.716  1.00  0.00     0.279 HD
BRANCH  37  39
HETATM   39  C   UNL     1      42.465 -10.261  -3.274  1.00  0.00     0.230 C 
HETATM   40  C   UNL     1      42.593 -10.344  -4.785  1.00  0.00     0.034 C 
ENDBRANCH  37  39
BRANCH  37  41
HETATM   41  C   UNL     1      42.165 -12.755  -3.044  1.00  0.00     0.230 C 
HETATM   42  C   UNL     1      41.074 -13.732  -3.449  1.00  0.00     0.034 C 
ENDBRANCH  37  41
ENDBRANCH  36  37
ENDBRANCH  35  36
ENDBRANCH  34  35
ENDBRANCH   1  34
TORSDOF 14
ENDMDL
