MODEL 1
REMARK VINA RESULT:      -8.6      0.000      0.000
REMARK  6 active torsions:
REMARK  status: ('A' for Active; 'I' for Inactive)
REMARK    1  A    between atoms: N_2  and  C_4 
REMARK    2  A    between atoms: C_4  and  C_5 
REMARK    3  A    between atoms: C_7  and  N_8 
REMARK       I    between atoms: N_8  and  C_9 
REMARK    4  A    between atoms: C_9  and  C_10 
REMARK    5  A    between atoms: C_12  and  C_13 
REMARK    6  A    between atoms: C_20  and  C_21 
ROOT
HETATM    1  N   UNL     1      44.315 -14.270   6.757  1.00  0.00    -0.322 N 
HETATM    2  C   UNL     1      43.884 -15.516   7.187  1.00  0.00     0.277 C 
HETATM    3  O   UNL     1      43.884 -15.895   8.355  1.00  0.00    -0.266 OA
HETATM    4  H   UNL     1      44.376 -14.171   5.745  1.00  0.00     0.169 HD
ENDROOT
BRANCH   2   5
HETATM    5  C   UNL     1      43.463 -16.367   6.079  1.00  0.00     0.157 A 
HETATM    6  N   UNL     1      44.172 -17.504   5.698  1.00  0.00    -0.216 NA
HETATM    7  C   UNL     1      43.489 -17.977   4.670  1.00  0.00     0.180 A 
HETATM    8  O   UNL     1      42.378 -17.243   4.356  1.00  0.00    -0.293 OA
HETATM    9  C   UNL     1      42.363 -16.215   5.256  1.00  0.00     0.094 A 
BRANCH   7  10
HETATM   10  C   UNL     1      43.748 -19.147   3.835  1.00  0.00     0.017 A 
HETATM   11  C   UNL     1      44.560 -20.186   4.316  1.00  0.00     0.016 A 
HETATM   12  C   UNL     1      44.823 -21.310   3.529  1.00  0.00     0.001 A 
HETATM   13  C   UNL     1      44.279 -21.411   2.250  1.00  0.00     0.000 A 
HETATM   14  C   UNL     1      43.472 -20.389   1.757  1.00  0.00     0.001 A 
HETATM   15  C   UNL     1      43.208 -19.265   2.545  1.00  0.00     0.016 A 
ENDBRANCH   7  10
BRANCH   9  16
HETATM   16  C   UNL     1      41.299 -15.133   5.285  1.00  0.00     0.046 A 
HETATM   17  C   UNL     1      41.480 -13.942   4.367  1.00  0.00     0.012 A 
HETATM   18  C   UNL     1      40.437 -14.958   4.052  1.00  0.00     0.012 A 
ENDBRANCH   9  16
ENDBRANCH   2   5
BRANCH   1  19
HETATM   19  C   UNL     1      44.771 -13.214   7.566  1.00  0.00     0.035 A 
HETATM   20  C   UNL     1      43.905 -12.415   8.316  1.00  0.00     0.038 A 
HETATM   21  C   UNL     1      44.386 -11.432   9.194  1.00  0.00    -0.030 A 
HETATM   22  C   UNL     1      45.765 -11.219   9.277  1.00  0.00     0.009 A 
HETATM   23  C   UNL     1      46.635 -11.971   8.484  1.00  0.00     0.003 A 
HETATM   24  C   UNL     1      46.140 -12.963   7.631  1.00  0.00     0.029 A 
BRANCH  21  25
HETATM   25  C   UNL     1      43.409 -10.671  10.049  1.00  0.00     0.272 C 
BRANCH  25  26
HETATM   26  N   UNL     1      42.546 -11.557  10.925  1.00  0.00    -0.075 N 
HETATM   27  C   UNL     1      41.116 -11.096  11.036  1.00  0.00     0.269 C 
HETATM   28  H   UNL     1      42.522 -12.476  10.469  1.00  0.00     0.279 HD
HETATM   29  C   UNL     1      43.161 -11.738  12.284  1.00  0.00     0.269 C 
ENDBRANCH  25  26
ENDBRANCH  21  25
ENDBRANCH   1  19
TORSDOF 6
ENDMDL
MODEL 2
REMARK VINA RESULT:      -8.2      4.442      8.413
REMARK  6 active torsions:
REMARK  status: ('A' for Active; 'I' for Inactive)
REMARK    1  A    between atoms: N_2  and  C_4 
REMARK    2  A    between atoms: C_4  and  C_5 
REMARK    3  A    between atoms: C_7  and  N_8 
REMARK       I    between atoms: N_8  and  C_9 
REMARK    4  A    between atoms: C_9  and  C_10 
REMARK    5  A    between atoms: C_12  and  C_13 
REMARK    6  A    between atoms: C_20  and  C_21 
ROOT
HETATM    1  N   UNL     1      40.677 -15.556   1.565  1.00  0.00    -0.322 N 
HETATM    2  C   UNL     1      41.944 -15.191   1.999  1.00  0.00     0.277 C 
HETATM    3  O   UNL     1      42.460 -14.092   1.814  1.00  0.00    -0.266 OA
HETATM    4  H   UNL     1      40.460 -16.544   1.682  1.00  0.00     0.169 HD
ENDROOT
BRANCH   2   5
HETATM    5  C   UNL     1      42.632 -16.286   2.673  1.00  0.00     0.157 A 
HETATM    6  N   UNL     1      42.743 -17.557   2.114  1.00  0.00    -0.216 NA
HETATM    7  C   UNL     1      43.409 -18.248   3.023  1.00  0.00     0.180 A 
HETATM    8  O   UNL     1      43.753 -17.524   4.131  1.00  0.00    -0.293 OA
HETATM    9  C   UNL     1      43.256 -16.271   3.906  1.00  0.00     0.094 A 
BRANCH   7  10
HETATM   10  C   UNL     1      43.818 -19.651   3.016  1.00  0.00     0.017 A 
HETATM   11  C   UNL     1      43.580 -20.444   1.883  1.00  0.00     0.016 A 
HETATM   12  C   UNL     1      43.959 -21.789   1.859  1.00  0.00     0.001 A 
HETATM   13  C   UNL     1      44.579 -22.359   2.970  1.00  0.00     0.000 A 
HETATM   14  C   UNL     1      44.822 -21.587   4.102  1.00  0.00     0.001 A 
HETATM   15  C   UNL     1      44.444 -20.241   4.125  1.00  0.00     0.016 A 
ENDBRANCH   7  10
BRANCH   9  16
HETATM   16  C   UNL     1      43.398 -15.118   4.884  1.00  0.00     0.046 A 
HETATM   17  C   UNL     1      42.405 -15.034   6.024  1.00  0.00     0.012 A 
HETATM   18  C   UNL     1      43.810 -15.444   6.304  1.00  0.00     0.012 A 
ENDBRANCH   9  16
ENDBRANCH   2   5
BRANCH   1  19
HETATM   19  C   UNL     1      39.752 -14.736   0.895  1.00  0.00     0.035 A 
HETATM   20  C   UNL     1      39.723 -14.615  -0.495  1.00  0.00     0.038 A 
HETATM   21  C   UNL     1      38.730 -13.871  -1.150  1.00  0.00    -0.030 A 
HETATM   22  C   UNL     1      37.778 -13.195  -0.380  1.00  0.00     0.009 A 
HETATM   23  C   UNL     1      37.836 -13.259   1.014  1.00  0.00     0.003 A 
HETATM   24  C   UNL     1      38.820 -14.024   1.649  1.00  0.00     0.029 A 
BRANCH  21  25
HETATM   25  C   UNL     1      38.693 -13.860  -2.654  1.00  0.00     0.272 C 
BRANCH  25  26
HETATM   26  N   UNL     1      38.060 -15.098  -3.258  1.00  0.00    -0.075 N 
HETATM   27  C   UNL     1      39.026 -15.962  -4.027  1.00  0.00     0.269 C 
HETATM   28  H   UNL     1      37.727 -15.663  -2.469  1.00  0.00     0.279 HD
HETATM   29  C   UNL     1      36.869 -14.740  -4.100  1.00  0.00     0.269 C 
ENDBRANCH  25  26
ENDBRANCH  21  25
ENDBRANCH   1  19
TORSDOF 6
ENDMDL
MODEL 3
REMARK VINA RESULT:      -8.0      5.230      8.491
REMARK  6 active torsions:
REMARK  status: ('A' for Active; 'I' for Inactive)
REMARK    1  A    between atoms: N_2  and  C_4 
REMARK    2  A    between atoms: C_4  and  C_5 
REMARK    3  A    between atoms: C_7  and  N_8 
REMARK       I    between atoms: N_8  and  C_9 
REMARK    4  A    between atoms: C_9  and  C_10 
REMARK    5  A    between atoms: C_12  and  C_13 
REMARK    6  A    between atoms: C_20  and  C_21 
ROOT
HETATM    1  N   UNL     1      41.950 -15.298  -0.431  1.00  0.00    -0.322 N 
HETATM    2  C   UNL     1      41.370 -15.639   0.782  1.00  0.00     0.277 C 
HETATM    3  O   UNL     1      40.261 -15.268   1.160  1.00  0.00    -0.266 OA
HETATM    4  H   UNL     1      42.925 -15.577  -0.524  1.00  0.00     0.169 HD
ENDROOT
BRANCH   2   5
HETATM    5  C   UNL     1      42.249 -16.465   1.602  1.00  0.00     0.157 A 
HETATM    6  N   UNL     1      42.331 -17.847   1.451  1.00  0.00    -0.216 NA
HETATM    7  C   UNL     1      43.208 -18.217   2.369  1.00  0.00     0.180 A 
HETATM    8  O   UNL     1      43.716 -17.181   3.103  1.00  0.00    -0.293 OA
HETATM    9  C   UNL     1      43.103 -16.062   2.612  1.00  0.00     0.094 A 
BRANCH   7  10
HETATM   10  C   UNL     1      43.699 -19.551   2.708  1.00  0.00     0.017 A 
HETATM   11  C   UNL     1      44.346 -19.768   3.934  1.00  0.00     0.016 A 
HETATM   12  C   UNL     1      44.827 -21.036   4.274  1.00  0.00     0.001 A 
HETATM   13  C   UNL     1      44.669 -22.102   3.391  1.00  0.00     0.000 A 
HETATM   14  C   UNL     1      44.030 -21.903   2.170  1.00  0.00     0.001 A 
HETATM   15  C   UNL     1      43.548 -20.636   1.831  1.00  0.00     0.016 A 
ENDBRANCH   7  10
BRANCH   9  16
HETATM   16  C   UNL     1      43.359 -14.660   3.134  1.00  0.00     0.046 A 
HETATM   17  C   UNL     1      42.298 -14.031   4.015  1.00  0.00     0.012 A 
HETATM   18  C   UNL     1      43.578 -14.491   4.623  1.00  0.00     0.012 A 
ENDBRANCH   9  16
ENDBRANCH   2   5
BRANCH   1  19
HETATM   19  C   UNL     1      41.368 -14.527  -1.452  1.00  0.00     0.035 A 
HETATM   20  C   UNL     1      41.422 -13.132  -1.463  1.00  0.00     0.038 A 
HETATM   21  C   UNL     1      40.922 -12.384  -2.541  1.00  0.00    -0.030 A 
HETATM   22  C   UNL     1      40.311 -13.058  -3.602  1.00  0.00     0.009 A 
HETATM   23  C   UNL     1      40.196 -14.450  -3.570  1.00  0.00     0.003 A 
HETATM   24  C   UNL     1      40.721 -15.181  -2.499  1.00  0.00     0.029 A 
BRANCH  21  25
HETATM   25  C   UNL     1      41.098 -10.890  -2.540  1.00  0.00     0.272 C 
BRANCH  25  26
HETATM   26  N   UNL     1      42.465 -10.437  -3.012  1.00  0.00    -0.075 N 
HETATM   27  C   UNL     1      43.329  -9.866  -1.918  1.00  0.00     0.269 C 
HETATM   28  H   UNL     1      42.945 -11.278  -3.353  1.00  0.00     0.279 HD
HETATM   29  C   UNL     1      42.350  -9.478  -4.164  1.00  0.00     0.269 C 
ENDBRANCH  25  26
ENDBRANCH  21  25
ENDBRANCH   1  19
TORSDOF 6
ENDMDL
MODEL 4
REMARK VINA RESULT:      -7.7      3.919      7.292
REMARK  6 active torsions:
REMARK  status: ('A' for Active; 'I' for Inactive)
REMARK    1  A    between atoms: N_2  and  C_4 
REMARK    2  A    between atoms: C_4  and  C_5 
REMARK    3  A    between atoms: C_7  and  N_8 
REMARK       I    between atoms: N_8  and  C_9 
REMARK    4  A    between atoms: C_9  and  C_10 
REMARK    5  A    between atoms: C_12  and  C_13 
REMARK    6  A    between atoms: C_20  and  C_21 
ROOT
HETATM    1  N   UNL     1      41.601 -14.647   2.334  1.00  0.00    -0.322 N 
HETATM    2  C   UNL     1      42.831 -14.665   2.976  1.00  0.00     0.277 C 
HETATM    3  O   UNL     1      43.591 -13.704   3.065  1.00  0.00    -0.266 OA
HETATM    4  H   UNL     1      41.164 -15.562   2.235  1.00  0.00     0.169 HD
ENDROOT
BRANCH   2   5
HETATM    5  C   UNL     1      43.157 -15.984   3.507  1.00  0.00     0.157 A 
HETATM    6  N   UNL     1      43.358 -17.091   2.687  1.00  0.00    -0.216 NA
HETATM    7  C   UNL     1      43.613 -18.074   3.534  1.00  0.00     0.180 A 
HETATM    8  O   UNL     1      43.605 -17.692   4.847  1.00  0.00    -0.293 OA
HETATM    9  C   UNL     1      43.314 -16.357   4.829  1.00  0.00     0.094 A 
BRANCH   7  10
HETATM   10  C   UNL     1      43.890 -19.484   3.273  1.00  0.00     0.017 A 
HETATM   11  C   UNL     1      44.511 -20.270   4.256  1.00  0.00     0.016 A 
HETATM   12  C   UNL     1      44.789 -21.619   4.022  1.00  0.00     0.001 A 
HETATM   13  C   UNL     1      44.452 -22.200   2.801  1.00  0.00     0.000 A 
HETATM   14  C   UNL     1      43.837 -21.435   1.815  1.00  0.00     0.001 A 
HETATM   15  C   UNL     1      43.558 -20.086   2.049  1.00  0.00     0.016 A 
ENDBRANCH   7  10
BRANCH   9  16
HETATM   16  C   UNL     1      43.195 -15.500   6.077  1.00  0.00     0.046 A 
HETATM   17  C   UNL     1      43.700 -16.082   7.381  1.00  0.00     0.012 A 
HETATM   18  C   UNL     1      44.476 -14.999   6.712  1.00  0.00     0.012 A 
ENDBRANCH   9  16
ENDBRANCH   2   5
BRANCH   1  19
HETATM   19  C   UNL     1      40.987 -13.537   1.728  1.00  0.00     0.035 A 
HETATM   20  C   UNL     1      41.157 -13.229   0.377  1.00  0.00     0.038 A 
HETATM   21  C   UNL     1      40.458 -12.176  -0.232  1.00  0.00    -0.030 A 
HETATM   22  C   UNL     1      39.610 -11.388   0.552  1.00  0.00     0.009 A 
HETATM   23  C   UNL     1      39.482 -11.649   1.918  1.00  0.00     0.003 A 
HETATM   24  C   UNL     1      40.169 -12.718   2.504  1.00  0.00     0.029 A 
BRANCH  21  25
HETATM   25  C   UNL     1      40.608 -11.956  -1.713  1.00  0.00     0.272 C 
BRANCH  25  26
HETATM   26  N   UNL     1      41.374 -13.057  -2.419  1.00  0.00    -0.075 N 
HETATM   27  C   UNL     1      42.725 -12.628  -2.931  1.00  0.00     0.269 C 
HETATM   28  H   UNL     1      41.546 -13.783  -1.715  1.00  0.00     0.279 HD
HETATM   29  C   UNL     1      40.552 -13.670  -3.517  1.00  0.00     0.269 C 
ENDBRANCH  25  26
ENDBRANCH  21  25
ENDBRANCH   1  19
TORSDOF 6
ENDMDL
MODEL 5
REMARK VINA RESULT:      -7.7      5.399      9.008
REMARK  6 active torsions:
REMARK  status: ('A' for Active; 'I' for Inactive)
REMARK    1  A    between atoms: N_2  and  C_4 
REMARK    2  A    between atoms: C_4  and  C_5 
REMARK    3  A    between atoms: C_7  and  N_8 
REMARK       I    between atoms: N_8  and  C_9 
REMARK    4  A    between atoms: C_9  and  C_10 
REMARK    5  A    between atoms: C_12  and  C_13 
REMARK    6  A    between atoms: C_20  and  C_21 
ROOT
HETATM    1  N   UNL     1      41.886 -15.143  -0.480  1.00  0.00    -0.322 N 
HETATM    2  C   UNL     1      41.448 -15.227   0.833  1.00  0.00     0.277 C 
HETATM    3  O   UNL     1      40.480 -14.626   1.291  1.00  0.00    -0.266 OA
HETATM    4  H   UNL     1      42.781 -15.597  -0.656  1.00  0.00     0.169 HD
ENDROOT
BRANCH   2   5
HETATM    5  C   UNL     1      42.300 -16.089   1.645  1.00  0.00     0.157 A 
HETATM    6  N   UNL     1      42.365 -17.468   1.458  1.00  0.00    -0.216 NA
HETATM    7  C   UNL     1      43.220 -17.875   2.380  1.00  0.00     0.180 A 
HETATM    8  O   UNL     1      43.729 -16.867   3.151  1.00  0.00    -0.293 OA
HETATM    9  C   UNL     1      43.141 -15.727   2.680  1.00  0.00     0.094 A 
BRANCH   7  10
HETATM   10  C   UNL     1      43.685 -19.225   2.691  1.00  0.00     0.017 A 
HETATM   11  C   UNL     1      44.383 -19.468   3.884  1.00  0.00     0.016 A 
HETATM   12  C   UNL     1      44.840 -20.751   4.196  1.00  0.00     0.001 A 
HETATM   13  C   UNL     1      44.608 -21.808   3.318  1.00  0.00     0.000 A 
HETATM   14  C   UNL     1      43.918 -21.584   2.130  1.00  0.00     0.001 A 
HETATM   15  C   UNL     1      43.460 -20.301   1.819  1.00  0.00     0.016 A 
ENDBRANCH   7  10
BRANCH   9  16
HETATM   16  C   UNL     1      43.408 -14.343   3.246  1.00  0.00     0.046 A 
HETATM   17  C   UNL     1      42.436 -13.802   4.273  1.00  0.00     0.012 A 
HETATM   18  C   UNL     1      43.792 -14.240   4.707  1.00  0.00     0.012 A 
ENDBRANCH   9  16
ENDBRANCH   2   5
BRANCH   1  19
HETATM   19  C   UNL     1      41.285 -14.412  -1.520  1.00  0.00     0.035 A 
HETATM   20  C   UNL     1      39.912 -14.448  -1.767  1.00  0.00     0.038 A 
HETATM   21  C   UNL     1      39.318 -13.635  -2.745  1.00  0.00    -0.030 A 
HETATM   22  C   UNL     1      40.136 -12.808  -3.521  1.00  0.00     0.009 A 
HETATM   23  C   UNL     1      41.518 -12.812  -3.324  1.00  0.00     0.003 A 
HETATM   24  C   UNL     1      42.091 -13.612  -2.329  1.00  0.00     0.029 A 
BRANCH  21  25
HETATM   25  C   UNL     1      37.821 -13.645  -2.896  1.00  0.00     0.272 C 
BRANCH  25  26
HETATM   26  N   UNL     1      37.289 -14.860  -3.630  1.00  0.00    -0.075 N 
HETATM   27  C   UNL     1      38.362 -15.706  -4.264  1.00  0.00     0.269 C 
HETATM   28  H   UNL     1      36.836 -15.447  -2.920  1.00  0.00     0.279 HD
HETATM   29  C   UNL     1      36.244 -14.470  -4.636  1.00  0.00     0.269 C 
ENDBRANCH  25  26
ENDBRANCH  21  25
ENDBRANCH   1  19
TORSDOF 6
ENDMDL
MODEL 6
REMARK VINA RESULT:      -7.5      4.815      8.147
REMARK  6 active torsions:
REMARK  status: ('A' for Active; 'I' for Inactive)
REMARK    1  A    between atoms: N_2  and  C_4 
REMARK    2  A    between atoms: C_4  and  C_5 
REMARK    3  A    between atoms: C_7  and  N_8 
REMARK       I    between atoms: N_8  and  C_9 
REMARK    4  A    between atoms: C_9  and  C_10 
REMARK    5  A    between atoms: C_12  and  C_13 
REMARK    6  A    between atoms: C_20  and  C_21 
ROOT
HETATM    1  N   UNL     1      41.026 -15.612  -0.152  1.00  0.00    -0.322 N 
HETATM    2  C   UNL     1      41.786 -15.099   0.889  1.00  0.00     0.277 C 
HETATM    3  O   UNL     1      42.092 -13.917   1.019  1.00  0.00    -0.266 OA
HETATM    4  H   UNL     1      40.982 -16.629  -0.180  1.00  0.00     0.169 HD
ENDROOT
BRANCH   2   5
HETATM    5  C   UNL     1      42.230 -16.138   1.812  1.00  0.00     0.157 A 
HETATM    6  N   UNL     1      42.729 -17.362   1.375  1.00  0.00    -0.216 NA
HETATM    7  C   UNL     1      43.002 -18.014   2.492  1.00  0.00     0.180 A 
HETATM    8  O   UNL     1      42.729 -17.304   3.630  1.00  0.00    -0.293 OA
HETATM    9  C   UNL     1      42.237 -16.106   3.194  1.00  0.00     0.094 A 
BRANCH   7  10
HETATM   10  C   UNL     1      43.537 -19.360   2.683  1.00  0.00     0.017 A 
HETATM   11  C   UNL     1      43.316 -20.346   1.709  1.00  0.00     0.016 A 
HETATM   12  C   UNL     1      43.816 -21.640   1.877  1.00  0.00     0.001 A 
HETATM   13  C   UNL     1      44.542 -21.966   3.021  1.00  0.00     0.000 A 
HETATM   14  C   UNL     1      44.769 -21.000   3.997  1.00  0.00     0.001 A 
HETATM   15  C   UNL     1      44.270 -19.705   3.829  1.00  0.00     0.016 A 
ENDBRANCH   7  10
BRANCH   9  16
HETATM   16  C   UNL     1      41.792 -14.988   4.120  1.00  0.00     0.046 A 
HETATM   17  C   UNL     1      40.307 -14.836   4.377  1.00  0.00     0.012 A 
HETATM   18  C   UNL     1      41.186 -15.376   5.453  1.00  0.00     0.012 A 
ENDBRANCH   9  16
ENDBRANCH   2   5
BRANCH   1  19
HETATM   19  C   UNL     1      40.436 -14.882  -1.199  1.00  0.00     0.035 A 
HETATM   20  C   UNL     1      39.301 -14.090  -1.015  1.00  0.00     0.038 A 
HETATM   21  C   UNL     1      38.785 -13.291  -2.048  1.00  0.00    -0.030 A 
HETATM   22  C   UNL     1      39.399 -13.335  -3.303  1.00  0.00     0.009 A 
HETATM   23  C   UNL     1      40.497 -14.172  -3.514  1.00  0.00     0.003 A 
HETATM   24  C   UNL     1      41.012 -14.945  -2.467  1.00  0.00     0.029 A 
BRANCH  21  25
HETATM   25  C   UNL     1      37.621 -12.383  -1.760  1.00  0.00     0.272 C 
BRANCH  25  26
HETATM   26  N   UNL     1      37.656 -11.765  -0.377  1.00  0.00    -0.075 N 
HETATM   27  C   UNL     1      36.296 -11.605   0.253  1.00  0.00     0.269 C 
HETATM   28  H   UNL     1      38.178 -12.420   0.216  1.00  0.00     0.279 HD
HETATM   29  C   UNL     1      38.402 -10.461  -0.386  1.00  0.00     0.269 C 
ENDBRANCH  25  26
ENDBRANCH  21  25
ENDBRANCH   1  19
TORSDOF 6
ENDMDL
MODEL 7
REMARK VINA RESULT:      -7.5      2.684      3.988
REMARK  6 active torsions:
REMARK  status: ('A' for Active; 'I' for Inactive)
REMARK    1  A    between atoms: N_2  and  C_4 
REMARK    2  A    between atoms: C_4  and  C_5 
REMARK    3  A    between atoms: C_7  and  N_8 
REMARK       I    between atoms: N_8  and  C_9 
REMARK    4  A    between atoms: C_9  and  C_10 
REMARK    5  A    between atoms: C_12  and  C_13 
REMARK    6  A    between atoms: C_20  and  C_21 
ROOT
HETATM    1  N   UNL     1      41.253 -14.021   4.291  1.00  0.00    -0.322 N 
HETATM    2  C   UNL     1      42.295 -14.153   3.386  1.00  0.00     0.277 C 
HETATM    3  O   UNL     1      43.019 -13.235   3.009  1.00  0.00    -0.266 OA
HETATM    4  H   UNL     1      40.670 -14.851   4.387  1.00  0.00     0.169 HD
ENDROOT
BRANCH   2   5
HETATM    5  C   UNL     1      42.418 -15.516   2.881  1.00  0.00     0.157 A 
HETATM    6  N   UNL     1      43.152 -16.496   3.546  1.00  0.00    -0.216 NA
HETATM    7  C   UNL     1      43.030 -17.563   2.776  1.00  0.00     0.180 A 
HETATM    8  O   UNL     1      42.262 -17.361   1.662  1.00  0.00    -0.293 OA
HETATM    9  C   UNL     1      41.872 -16.053   1.731  1.00  0.00     0.094 A 
BRANCH   7  10
HETATM   10  C   UNL     1      43.593 -18.902   2.939  1.00  0.00     0.017 A 
HETATM   11  C   UNL     1      43.414 -19.864   1.934  1.00  0.00     0.016 A 
HETATM   12  C   UNL     1      43.939 -21.152   2.074  1.00  0.00     0.001 A 
HETATM   13  C   UNL     1      44.650 -21.494   3.223  1.00  0.00     0.000 A 
HETATM   14  C   UNL     1      44.836 -20.551   4.230  1.00  0.00     0.001 A 
HETATM   15  C   UNL     1      44.311 -19.264   4.089  1.00  0.00     0.016 A 
ENDBRANCH   7  10
BRANCH   9  16
HETATM   16  C   UNL     1      40.998 -15.377   0.690  1.00  0.00     0.046 A 
HETATM   17  C   UNL     1      41.669 -14.443  -0.295  1.00  0.00     0.012 A 
HETATM   18  C   UNL     1      41.189 -15.775  -0.758  1.00  0.00     0.012 A 
ENDBRANCH   9  16
ENDBRANCH   2   5
BRANCH   1  19
HETATM   19  C   UNL     1      40.875 -12.849   4.970  1.00  0.00     0.035 A 
HETATM   20  C   UNL     1      41.587 -12.351   6.063  1.00  0.00     0.038 A 
HETATM   21  C   UNL     1      41.252 -11.128   6.664  1.00  0.00    -0.030 A 
HETATM   22  C   UNL     1      40.146 -10.421   6.183  1.00  0.00     0.009 A 
HETATM   23  C   UNL     1      39.390 -10.942   5.131  1.00  0.00     0.003 A 
HETATM   24  C   UNL     1      39.751 -12.152   4.528  1.00  0.00     0.029 A 
BRANCH  21  25
HETATM   25  C   UNL     1      42.118 -10.596   7.774  1.00  0.00     0.272 C 
BRANCH  25  26
HETATM   26  N   UNL     1      41.850 -11.239   9.120  1.00  0.00    -0.075 N 
HETATM   27  C   UNL     1      40.608 -10.728   9.802  1.00  0.00     0.269 C 
HETATM   28  H   UNL     1      41.692 -12.236   8.934  1.00  0.00     0.279 HD
HETATM   29  C   UNL     1      43.046 -11.125  10.021  1.00  0.00     0.269 C 
ENDBRANCH  25  26
ENDBRANCH  21  25
ENDBRANCH   1  19
TORSDOF 6
ENDMDL
MODEL 8
REMARK VINA RESULT:      -7.5      3.356      5.500
REMARK  6 active torsions:
REMARK  status: ('A' for Active; 'I' for Inactive)
REMARK    1  A    between atoms: N_2  and  C_4 
REMARK    2  A    between atoms: C_4  and  C_5 
REMARK    3  A    between atoms: C_7  and  N_8 
REMARK       I    between atoms: N_8  and  C_9 
REMARK    4  A    between atoms: C_9  and  C_10 
REMARK    5  A    between atoms: C_12  and  C_13 
REMARK    6  A    between atoms: C_20  and  C_21 
ROOT
HETATM    1  N   UNL     1      40.704 -14.849   3.415  1.00  0.00    -0.322 N 
HETATM    2  C   UNL     1      42.055 -14.922   3.112  1.00  0.00     0.277 C 
HETATM    3  O   UNL     1      42.681 -14.075   2.480  1.00  0.00    -0.266 OA
HETATM    4  H   UNL     1      40.317 -15.697   3.824  1.00  0.00     0.169 HD
ENDROOT
BRANCH   2   5
HETATM    5  C   UNL     1      42.662 -16.159   3.593  1.00  0.00     0.157 A 
HETATM    6  N   UNL     1      42.822 -17.279   2.780  1.00  0.00    -0.216 NA
HETATM    7  C   UNL     1      43.384 -18.172   3.576  1.00  0.00     0.180 A 
HETATM    8  O   UNL     1      43.615 -17.720   4.846  1.00  0.00    -0.293 OA
HETATM    9  C   UNL     1      43.153 -16.434   4.855  1.00  0.00     0.094 A 
BRANCH   7  10
HETATM   10  C   UNL     1      43.782 -19.551   3.299  1.00  0.00     0.017 A 
HETATM   11  C   UNL     1      44.511 -20.275   4.253  1.00  0.00     0.016 A 
HETATM   12  C   UNL     1      44.905 -21.593   4.004  1.00  0.00     0.001 A 
HETATM   13  C   UNL     1      44.576 -22.202   2.795  1.00  0.00     0.000 A 
HETATM   14  C   UNL     1      43.854 -21.498   1.836  1.00  0.00     0.001 A 
HETATM   15  C   UNL     1      43.459 -20.180   2.086  1.00  0.00     0.016 A 
ENDBRANCH   7  10
BRANCH   9  16
HETATM   16  C   UNL     1      43.200 -15.528   6.073  1.00  0.00     0.046 A 
HETATM   17  C   UNL     1      44.541 -15.320   6.746  1.00  0.00     0.012 A 
HETATM   18  C   UNL     1      43.942 -14.214   5.947  1.00  0.00     0.012 A 
ENDBRANCH   9  16
ENDBRANCH   2   5
BRANCH   1  19
HETATM   19  C   UNL     1      39.832 -13.789   3.108  1.00  0.00     0.035 A 
HETATM   20  C   UNL     1      39.670 -12.683   3.945  1.00  0.00     0.038 A 
HETATM   21  C   UNL     1      38.871 -11.590   3.574  1.00  0.00    -0.030 A 
HETATM   22  C   UNL     1      38.183 -11.640   2.358  1.00  0.00     0.009 A 
HETATM   23  C   UNL     1      38.289 -12.770   1.543  1.00  0.00     0.003 A 
HETATM   24  C   UNL     1      39.108 -13.841   1.918  1.00  0.00     0.029 A 
BRANCH  21  25
HETATM   25  C   UNL     1      38.816 -10.385   4.473  1.00  0.00     0.272 C 
BRANCH  25  26
HETATM   26  N   UNL     1      40.176  -9.794   4.787  1.00  0.00    -0.075 N 
HETATM   27  C   UNL     1      40.172  -8.843   5.955  1.00  0.00     0.269 C 
HETATM   28  H   UNL     1      40.776 -10.583   5.055  1.00  0.00     0.279 HD
HETATM   29  C   UNL     1      40.782  -9.152   3.571  1.00  0.00     0.269 C 
ENDBRANCH  25  26
ENDBRANCH  21  25
ENDBRANCH   1  19
TORSDOF 6
ENDMDL
MODEL 9
REMARK VINA RESULT:      -7.4      4.637      8.369
REMARK  6 active torsions:
REMARK  status: ('A' for Active; 'I' for Inactive)
REMARK    1  A    between atoms: N_2  and  C_4 
REMARK    2  A    between atoms: C_4  and  C_5 
REMARK    3  A    between atoms: C_7  and  N_8 
REMARK       I    between atoms: N_8  and  C_9 
REMARK    4  A    between atoms: C_9  and  C_10 
REMARK    5  A    between atoms: C_12  and  C_13 
REMARK    6  A    between atoms: C_20  and  C_21 
ROOT
HETATM    1  N   UNL     1      43.188 -17.664   1.728  1.00  0.00    -0.322 N 
HETATM    2  C   UNL     1      41.945 -17.081   1.920  1.00  0.00     0.277 C 
HETATM    3  O   UNL     1      41.016 -17.594   2.539  1.00  0.00    -0.266 OA
HETATM    4  H   UNL     1      43.792 -17.165   1.077  1.00  0.00     0.169 HD
ENDROOT
BRANCH   2   5
HETATM    5  C   UNL     1      41.835 -15.785   1.258  1.00  0.00     0.157 A 
HETATM    6  N   UNL     1      41.686 -15.661  -0.121  1.00  0.00    -0.216 NA
HETATM    7  C   UNL     1      41.639 -14.355  -0.321  1.00  0.00     0.180 A 
HETATM    8  O   UNL     1      41.735 -13.614   0.825  1.00  0.00    -0.293 OA
HETATM    9  C   UNL     1      41.860 -14.529   1.832  1.00  0.00     0.094 A 
BRANCH   7  10
HETATM   10  C   UNL     1      41.507 -13.604  -1.567  1.00  0.00     0.017 A 
HETATM   11  C   UNL     1      42.576 -12.821  -2.030  1.00  0.00     0.016 A 
HETATM   12  C   UNL     1      42.466 -12.092  -3.217  1.00  0.00     0.001 A 
HETATM   13  C   UNL     1      41.285 -12.135  -3.956  1.00  0.00     0.000 A 
HETATM   14  C   UNL     1      40.216 -12.906  -3.511  1.00  0.00     0.001 A 
HETATM   15  C   UNL     1      40.326 -13.636  -2.324  1.00  0.00     0.016 A 
ENDBRANCH   7  10
BRANCH   9  16
HETATM   16  C   UNL     1      42.001 -14.158   3.298  1.00  0.00     0.046 A 
HETATM   17  C   UNL     1      43.335 -13.610   3.761  1.00  0.00     0.012 A 
HETATM   18  C   UNL     1      42.167 -12.692   3.642  1.00  0.00     0.012 A 
ENDBRANCH   9  16
ENDBRANCH   2   5
BRANCH   1  19
HETATM   19  C   UNL     1      43.624 -18.899   2.240  1.00  0.00     0.035 A 
HETATM   20  C   UNL     1      44.123 -19.041   3.536  1.00  0.00     0.038 A 
HETATM   21  C   UNL     1      44.459 -20.298   4.063  1.00  0.00    -0.030 A 
HETATM   22  C   UNL     1      44.336 -21.425   3.246  1.00  0.00     0.009 A 
HETATM   23  C   UNL     1      43.897 -21.285   1.927  1.00  0.00     0.003 A 
HETATM   24  C   UNL     1      43.545 -20.028   1.425  1.00  0.00     0.029 A 
BRANCH  21  25
HETATM   25  C   UNL     1      44.896 -20.397   5.499  1.00  0.00     0.272 C 
BRANCH  25  26
HETATM   26  N   UNL     1      43.821 -20.007   6.493  1.00  0.00    -0.075 N 
HETATM   27  C   UNL     1      44.141 -18.760   7.278  1.00  0.00     0.269 C 
HETATM   28  H   UNL     1      42.982 -19.796   5.941  1.00  0.00     0.279 HD
HETATM   29  C   UNL     1      43.490 -21.150   7.410  1.00  0.00     0.269 C 
ENDBRANCH  25  26
ENDBRANCH  21  25
ENDBRANCH   1  19
TORSDOF 6
ENDMDL
MODEL 10
REMARK VINA RESULT:      -7.3      4.284      8.326
REMARK  6 active torsions:
REMARK  status: ('A' for Active; 'I' for Inactive)
REMARK    1  A    between atoms: N_2  and  C_4 
REMARK    2  A    between atoms: C_4  and  C_5 
REMARK    3  A    between atoms: C_7  and  N_8 
REMARK       I    between atoms: N_8  and  C_9 
REMARK    4  A    between atoms: C_9  and  C_10 
REMARK    5  A    between atoms: C_12  and  C_13 
REMARK    6  A    between atoms: C_20  and  C_21 
ROOT
HETATM    1  N   UNL     1      41.744 -17.092   2.693  1.00  0.00    -0.322 N 
HETATM    2  C   UNL     1      42.080 -15.753   2.558  1.00  0.00     0.277 C 
HETATM    3  O   UNL     1      43.223 -15.306   2.608  1.00  0.00    -0.266 OA
HETATM    4  H   UNL     1      40.744 -17.271   2.764  1.00  0.00     0.169 HD
ENDROOT
BRANCH   2   5
HETATM    5  C   UNL     1      40.905 -14.904   2.391  1.00  0.00     0.157 A 
HETATM    6  N   UNL     1      40.438 -14.511   1.139  1.00  0.00    -0.216 NA
HETATM    7  C   UNL     1      39.388 -13.756   1.413  1.00  0.00     0.180 A 
HETATM    8  O   UNL     1      39.125 -13.632   2.749  1.00  0.00    -0.293 OA
HETATM    9  C   UNL     1      40.094 -14.366   3.373  1.00  0.00     0.094 A 
BRANCH   7  10
HETATM   10  C   UNL     1      38.489 -13.042   0.509  1.00  0.00     0.017 A 
HETATM   11  C   UNL     1      38.742 -13.039  -0.872  1.00  0.00     0.016 A 
HETATM   12  C   UNL     1      37.896 -12.358  -1.751  1.00  0.00     0.001 A 
HETATM   13  C   UNL     1      36.787 -11.670  -1.262  1.00  0.00     0.000 A 
HETATM   14  C   UNL     1      36.523 -11.663   0.105  1.00  0.00     0.001 A 
HETATM   15  C   UNL     1      37.368 -12.345   0.984  1.00  0.00     0.016 A 
ENDBRANCH   7  10
BRANCH   9  16
HETATM   16  C   UNL     1      40.203 -14.515   4.880  1.00  0.00     0.046 A 
HETATM   17  C   UNL     1      41.103 -13.549   5.621  1.00  0.00     0.012 A 
HETATM   18  C   UNL     1      39.624 -13.412   5.742  1.00  0.00     0.012 A 
ENDBRANCH   9  16
ENDBRANCH   2   5
BRANCH   1  19
HETATM   19  C   UNL     1      42.636 -18.168   2.855  1.00  0.00     0.035 A 
HETATM   20  C   UNL     1      43.302 -18.417   4.056  1.00  0.00     0.038 A 
HETATM   21  C   UNL     1      44.111 -19.551   4.228  1.00  0.00    -0.030 A 
HETATM   22  C   UNL     1      44.288 -20.422   3.149  1.00  0.00     0.009 A 
HETATM   23  C   UNL     1      43.675 -20.147   1.924  1.00  0.00     0.003 A 
HETATM   24  C   UNL     1      42.855 -19.024   1.777  1.00  0.00     0.029 A 
BRANCH  21  25
HETATM   25  C   UNL     1      44.722 -19.818   5.577  1.00  0.00     0.272 C 
BRANCH  25  26
HETATM   26  N   UNL     1      43.723 -19.788   6.717  1.00  0.00    -0.075 N 
HETATM   27  C   UNL     1      44.016 -18.736   7.755  1.00  0.00     0.269 C 
HETATM   28  H   UNL     1      42.819 -19.541   6.299  1.00  0.00     0.279 HD
HETATM   29  C   UNL     1      43.581 -21.143   7.348  1.00  0.00     0.269 C 
ENDBRANCH  25  26
ENDBRANCH  21  25
ENDBRANCH   1  19
TORSDOF 6
ENDMDL
