MODEL 1
REMARK VINA RESULT:      -8.7      0.000      0.000
REMARK  2 active torsions:
REMARK  status: ('A' for Active; 'I' for Inactive)
REMARK    1  A    between atoms: C_2  and  N_3 
REMARK    2  A    between atoms: N_3  and  C_4 
ROOT
HETATM    1  C   UNL     1      41.311 -16.914   4.205  1.00  0.00     0.143 A 
HETATM    2  N   UNL     1      40.966 -16.001   5.145  1.00  0.00    -0.223 NA
HETATM    3  C   UNL     1      41.680 -15.898   6.271  1.00  0.00     0.236 A 
HETATM    4  N   UNL     1      42.741 -16.618   6.618  1.00  0.00    -0.234 NA
HETATM    5  C   UNL     1      43.082 -17.513   5.678  1.00  0.00     0.114 A 
HETATM    6  C   UNL     1      42.458 -17.719   4.452  1.00  0.00     0.053 A 
HETATM    7  S   UNL     1      44.401 -18.554   5.948  1.00  0.00    -0.073 SA
HETATM    8  C   UNL     1      44.187 -19.312   4.447  1.00  0.00    -0.008 A 
HETATM    9  C   UNL     1      43.152 -18.761   3.708  1.00  0.00    -0.028 A 
HETATM   10  C   UNL     1      42.830 -19.280   2.334  1.00  0.00     0.041 C 
HETATM   11  C   UNL     1      43.929 -20.193   1.769  1.00  0.00     0.005 C 
HETATM   12  C   UNL     1      44.452 -21.177   2.820  1.00  0.00     0.005 C 
HETATM   13  C   UNL     1      45.076 -20.434   4.008  1.00  0.00     0.047 C 
ENDROOT
BRANCH   1  14
HETATM   14  N   UNL     1      40.552 -17.027   3.029  1.00  0.00    -0.340 N 
HETATM   15  H   UNL     1      39.902 -17.795   3.039  1.00  0.00     0.167 HD
BRANCH  14  16
HETATM   16  C   UNL     1      40.336 -16.141   1.956  1.00  0.00     0.036 A 
HETATM   17  C   UNL     1      41.224 -16.192   0.866  1.00  0.00     0.032 A 
HETATM   18  C   UNL     1      41.077 -15.343  -0.235  1.00  0.00     0.042 A 
HETATM   19  C   UNL     1      40.038 -14.420  -0.260  1.00  0.00     0.102 A 
HETATM   20  C   UNL     1      39.178 -14.318   0.835  1.00  0.00     0.104 A 
HETATM   21  O   UNL     1      39.924 -13.645  -1.384  1.00  0.00    -0.346 OA
HETATM   22  C   UNL     1      39.326 -15.173   1.930  1.00  0.00     0.069 A 
HETATM   23  O   UNL     1      38.151 -13.409   0.899  1.00  0.00    -0.346 OA
HETATM   24  C   UNL     1      38.289 -12.392  -0.099  1.00  0.00     0.202 C 
HETATM   25  C   UNL     1      38.644 -13.006  -1.444  1.00  0.00     0.202 C 
ENDBRANCH  14  16
ENDBRANCH   1  14
TORSDOF 2
ENDMDL
MODEL 2
REMARK VINA RESULT:      -8.6      1.937      2.296
REMARK  2 active torsions:
REMARK  status: ('A' for Active; 'I' for Inactive)
REMARK    1  A    between atoms: C_2  and  N_3 
REMARK    2  A    between atoms: N_3  and  C_4 
ROOT
HETATM    1  C   UNL     1      42.052 -17.057   5.602  1.00  0.00     0.143 A 
HETATM    2  N   UNL     1      42.050 -16.687   6.906  1.00  0.00    -0.223 NA
HETATM    3  C   UNL     1      42.821 -17.335   7.785  1.00  0.00     0.236 A 
HETATM    4  N   UNL     1      43.632 -18.359   7.541  1.00  0.00    -0.234 NA
HETATM    5  C   UNL     1      43.635 -18.713   6.247  1.00  0.00     0.114 A 
HETATM    6  C   UNL     1      42.913 -18.121   5.215  1.00  0.00     0.053 A 
HETATM    7  S   UNL     1      44.590 -20.025   5.737  1.00  0.00    -0.073 SA
HETATM    8  C   UNL     1      44.076 -19.852   4.131  1.00  0.00    -0.008 A 
HETATM    9  C   UNL     1      43.218 -18.779   3.953  1.00  0.00    -0.028 A 
HETATM   10  C   UNL     1      42.679 -18.446   2.588  1.00  0.00     0.041 C 
HETATM   11  C   UNL     1      43.419 -19.182   1.459  1.00  0.00     0.005 C 
HETATM   12  C   UNL     1      43.676 -20.651   1.808  1.00  0.00     0.005 C 
HETATM   13  C   UNL     1      44.558 -20.776   3.056  1.00  0.00     0.047 C 
ENDROOT
BRANCH   1  14
HETATM   14  N   UNL     1      41.231 -16.382   4.683  1.00  0.00    -0.340 N 
HETATM   15  H   UNL     1      40.247 -16.504   4.853  1.00  0.00     0.167 HD
BRANCH  14  16
HETATM   16  C   UNL     1      41.502 -15.372   3.740  1.00  0.00     0.036 A 
HETATM   17  C   UNL     1      42.529 -14.454   4.029  1.00  0.00     0.032 A 
HETATM   18  C   UNL     1      42.855 -13.422   3.144  1.00  0.00     0.042 A 
HETATM   19  C   UNL     1      42.151 -13.287   1.953  1.00  0.00     0.102 A 
HETATM   20  C   UNL     1      41.094 -14.155   1.673  1.00  0.00     0.104 A 
HETATM   21  O   UNL     1      42.545 -12.281   1.111  1.00  0.00    -0.346 OA
HETATM   22  C   UNL     1      40.777 -15.188   2.559  1.00  0.00     0.069 A 
HETATM   23  O   UNL     1      40.331 -14.063   0.535  1.00  0.00    -0.346 OA
HETATM   24  C   UNL     1      40.522 -12.807  -0.123  1.00  0.00     0.202 C 
HETATM   25  C   UNL     1      42.000 -12.462  -0.201  1.00  0.00     0.202 C 
ENDBRANCH  14  16
ENDBRANCH   1  14
TORSDOF 2
ENDMDL
MODEL 3
REMARK VINA RESULT:      -8.2      3.796      4.710
REMARK  2 active torsions:
REMARK  status: ('A' for Active; 'I' for Inactive)
REMARK    1  A    between atoms: C_2  and  N_3 
REMARK    2  A    between atoms: N_3  and  C_4 
ROOT
HETATM    1  C   UNL     1      43.216 -16.465   6.219  1.00  0.00     0.143 A 
HETATM    2  N   UNL     1      43.216 -16.388   7.572  1.00  0.00    -0.223 NA
HETATM    3  C   UNL     1      43.553 -17.457   8.302  1.00  0.00     0.236 A 
HETATM    4  N   UNL     1      43.899 -18.659   7.855  1.00  0.00    -0.234 NA
HETATM    5  C   UNL     1      43.905 -18.724   6.515  1.00  0.00     0.114 A 
HETATM    6  C   UNL     1      43.608 -17.696   5.625  1.00  0.00     0.053 A 
HETATM    7  S   UNL     1      44.295 -20.191   5.747  1.00  0.00    -0.073 SA
HETATM    8  C   UNL     1      44.081 -19.512   4.209  1.00  0.00    -0.008 A 
HETATM    9  C   UNL     1      43.760 -18.165   4.255  1.00  0.00    -0.028 A 
HETATM   10  C   UNL     1      43.563 -17.380   2.987  1.00  0.00     0.041 C 
HETATM   11  C   UNL     1      44.062 -18.126   1.739  1.00  0.00     0.005 C 
HETATM   12  C   UNL     1      43.658 -19.604   1.757  1.00  0.00     0.005 C 
HETATM   13  C   UNL     1      44.265 -20.327   2.966  1.00  0.00     0.047 C 
ENDROOT
BRANCH   1  14
HETATM   14  N   UNL     1      42.851 -15.344   5.456  1.00  0.00    -0.340 N 
HETATM   15  H   UNL     1      43.144 -15.396   4.494  1.00  0.00     0.167 HD
BRANCH  14  16
HETATM   16  C   UNL     1      41.945 -14.293   5.696  1.00  0.00     0.036 A 
HETATM   17  C   UNL     1      40.572 -14.552   5.536  1.00  0.00     0.032 A 
HETATM   18  C   UNL     1      39.612 -13.559   5.753  1.00  0.00     0.042 A 
HETATM   19  C   UNL     1      40.013 -12.283   6.129  1.00  0.00     0.102 A 
HETATM   20  C   UNL     1      41.374 -11.992   6.242  1.00  0.00     0.104 A 
HETATM   21  O   UNL     1      39.022 -11.366   6.366  1.00  0.00    -0.346 OA
HETATM   22  C   UNL     1      42.328 -12.990   6.030  1.00  0.00     0.069 A 
HETATM   23  O   UNL     1      41.848 -10.747   6.576  1.00  0.00    -0.346 OA
HETATM   24  C   UNL     1      40.830  -9.748   6.452  1.00  0.00     0.202 C 
HETATM   25  C   UNL     1      39.529 -10.229   7.074  1.00  0.00     0.202 C 
ENDBRANCH  14  16
ENDBRANCH   1  14
TORSDOF 2
ENDMDL
MODEL 4
REMARK VINA RESULT:      -8.1      1.898      2.423
REMARK  2 active torsions:
REMARK  status: ('A' for Active; 'I' for Inactive)
REMARK    1  A    between atoms: C_2  and  N_3 
REMARK    2  A    between atoms: N_3  and  C_4 
ROOT
HETATM    1  C   UNL     1      43.436 -17.445   5.382  1.00  0.00     0.143 A 
HETATM    2  N   UNL     1      43.204 -16.843   6.574  1.00  0.00    -0.223 NA
HETATM    3  C   UNL     1      43.295 -17.548   7.707  1.00  0.00     0.236 A 
HETATM    4  N   UNL     1      43.591 -18.838   7.830  1.00  0.00    -0.234 NA
HETATM    5  C   UNL     1      43.829 -19.423   6.646  1.00  0.00     0.114 A 
HETATM    6  C   UNL     1      43.800 -18.820   5.393  1.00  0.00     0.053 A 
HETATM    7  S   UNL     1      44.197 -21.083   6.589  1.00  0.00    -0.073 SA
HETATM    8  C   UNL     1      44.331 -21.056   4.900  1.00  0.00    -0.008 A 
HETATM    9  C   UNL     1      44.145 -19.792   4.364  1.00  0.00    -0.028 A 
HETATM   10  C   UNL     1      44.258 -19.562   2.882  1.00  0.00     0.041 C 
HETATM   11  C   UNL     1      44.892 -20.749   2.141  1.00  0.00     0.005 C 
HETATM   12  C   UNL     1      44.343 -22.091   2.636  1.00  0.00     0.005 C 
HETATM   13  C   UNL     1      44.649 -22.297   4.124  1.00  0.00     0.047 C 
ENDROOT
BRANCH   1  14
HETATM   14  N   UNL     1      43.329 -16.705   4.194  1.00  0.00    -0.340 N 
HETATM   15  H   UNL     1      44.179 -16.676   3.655  1.00  0.00     0.167 HD
BRANCH  14  16
HETATM   16  C   UNL     1      42.215 -16.215   3.484  1.00  0.00     0.036 A 
HETATM   17  C   UNL     1      41.322 -17.148   2.927  1.00  0.00     0.032 A 
HETATM   18  C   UNL     1      40.196 -16.740   2.206  1.00  0.00     0.042 A 
HETATM   19  C   UNL     1      39.948 -15.386   2.025  1.00  0.00     0.102 A 
HETATM   20  C   UNL     1      40.850 -14.444   2.524  1.00  0.00     0.104 A 
HETATM   21  O   UNL     1      38.807 -15.050   1.344  1.00  0.00    -0.346 OA
HETATM   22  C   UNL     1      41.971 -14.858   3.249  1.00  0.00     0.069 A 
HETATM   23  O   UNL     1      40.691 -13.091   2.355  1.00  0.00    -0.346 OA
HETATM   24  C   UNL     1      39.718 -12.800   1.347  1.00  0.00     0.202 C 
HETATM   25  C   UNL     1      38.482 -13.667   1.528  1.00  0.00     0.202 C 
ENDBRANCH  14  16
ENDBRANCH   1  14
TORSDOF 2
ENDMDL
MODEL 5
REMARK VINA RESULT:      -7.9      2.223      2.687
REMARK  2 active torsions:
REMARK  status: ('A' for Active; 'I' for Inactive)
REMARK    1  A    between atoms: C_2  and  N_3 
REMARK    2  A    between atoms: N_3  and  C_4 
ROOT
HETATM    1  C   UNL     1      40.575 -15.595   2.850  1.00  0.00     0.143 A 
HETATM    2  N   UNL     1      39.867 -14.711   3.595  1.00  0.00    -0.223 NA
HETATM    3  C   UNL     1      40.004 -14.699   4.925  1.00  0.00     0.236 A 
HETATM    4  N   UNL     1      40.780 -15.487   5.661  1.00  0.00    -0.234 NA
HETATM    5  C   UNL     1      41.484 -16.352   4.916  1.00  0.00     0.114 A 
HETATM    6  C   UNL     1      41.470 -16.468   3.529  1.00  0.00     0.053 A 
HETATM    7  S   UNL     1      42.517 -17.470   5.677  1.00  0.00    -0.073 SA
HETATM    8  C   UNL     1      42.979 -18.144   4.192  1.00  0.00    -0.008 A 
HETATM    9  C   UNL     1      42.398 -17.508   3.107  1.00  0.00    -0.028 A 
HETATM   10  C   UNL     1      42.713 -17.944   1.702  1.00  0.00     0.041 C 
HETATM   11  C   UNL     1      43.927 -18.884   1.628  1.00  0.00     0.005 C 
HETATM   12  C   UNL     1      43.899 -19.942   2.736  1.00  0.00     0.005 C 
HETATM   13  C   UNL     1      43.943 -19.288   4.123  1.00  0.00     0.047 C 
ENDROOT
BRANCH   1  14
HETATM   14  N   UNL     1      40.420 -15.614   1.455  1.00  0.00    -0.340 N 
HETATM   15  H   UNL     1      39.676 -16.213   1.138  1.00  0.00     0.167 HD
BRANCH  14  16
HETATM   16  C   UNL     1      40.920 -14.778   0.438  1.00  0.00     0.036 A 
HETATM   17  C   UNL     1      40.870 -15.244  -0.888  1.00  0.00     0.032 A 
HETATM   18  C   UNL     1      41.350 -14.474  -1.951  1.00  0.00     0.042 A 
HETATM   19  C   UNL     1      41.896 -13.221  -1.702  1.00  0.00     0.102 A 
HETATM   20  C   UNL     1      42.004 -12.762  -0.388  1.00  0.00     0.104 A 
HETATM   21  O   UNL     1      42.312 -12.498  -2.790  1.00  0.00    -0.346 OA
HETATM   22  C   UNL     1      41.517 -13.534   0.670  1.00  0.00     0.069 A 
HETATM   23  O   UNL     1      42.562 -11.551  -0.061  1.00  0.00    -0.346 OA
HETATM   24  C   UNL     1      43.305 -11.004  -1.155  1.00  0.00     0.202 C 
HETATM   25  C   UNL     1      42.517 -11.122  -2.450  1.00  0.00     0.202 C 
ENDBRANCH  14  16
ENDBRANCH   1  14
TORSDOF 2
ENDMDL
MODEL 6
REMARK VINA RESULT:      -7.9      3.332      4.929
REMARK  2 active torsions:
REMARK  status: ('A' for Active; 'I' for Inactive)
REMARK    1  A    between atoms: C_2  and  N_3 
REMARK    2  A    between atoms: N_3  and  C_4 
ROOT
HETATM    1  C   UNL     1      40.925 -16.577   3.403  1.00  0.00     0.143 A 
HETATM    2  N   UNL     1      40.511 -16.581   2.113  1.00  0.00    -0.223 NA
HETATM    3  C   UNL     1      41.138 -17.347   1.213  1.00  0.00     0.236 A 
HETATM    4  N   UNL     1      42.178 -18.145   1.422  1.00  0.00    -0.234 NA
HETATM    5  C   UNL     1      42.576 -18.143   2.703  1.00  0.00     0.114 A 
HETATM    6  C   UNL     1      42.012 -17.426   3.754  1.00  0.00     0.053 A 
HETATM    7  S   UNL     1      43.916 -19.082   3.168  1.00  0.00    -0.073 SA
HETATM    8  C   UNL     1      43.793 -18.568   4.779  1.00  0.00    -0.008 A 
HETATM    9  C   UNL     1      42.716 -17.722   4.994  1.00  0.00    -0.028 A 
HETATM   10  C   UNL     1      42.424 -17.186   6.368  1.00  0.00     0.041 C 
HETATM   11  C   UNL     1      43.206 -17.916   7.472  1.00  0.00     0.005 C 
HETATM   12  C   UNL     1      44.666 -18.156   7.073  1.00  0.00     0.005 C 
HETATM   13  C   UNL     1      44.758 -19.039   5.823  1.00  0.00     0.047 C 
ENDROOT
BRANCH   1  14
HETATM   14  N   UNL     1      40.273 -15.764   4.344  1.00  0.00    -0.340 N 
HETATM   15  H   UNL     1      39.636 -16.264   4.941  1.00  0.00     0.167 HD
BRANCH  14  16
HETATM   16  C   UNL     1      40.518 -14.449   4.786  1.00  0.00     0.036 A 
HETATM   17  C   UNL     1      41.697 -13.814   4.356  1.00  0.00     0.032 A 
HETATM   18  C   UNL     1      42.012 -12.512   4.754  1.00  0.00     0.042 A 
HETATM   19  C   UNL     1      41.151 -11.823   5.600  1.00  0.00     0.102 A 
HETATM   20  C   UNL     1      40.002 -12.455   6.081  1.00  0.00     0.104 A 
HETATM   21  O   UNL     1      41.495 -10.536   5.922  1.00  0.00    -0.346 OA
HETATM   22  C   UNL     1      39.690 -13.754   5.674  1.00  0.00     0.069 A 
HETATM   23  O   UNL     1      39.122 -11.851   6.945  1.00  0.00    -0.346 OA
HETATM   24  C   UNL     1      39.691 -10.680   7.539  1.00  0.00     0.202 C 
HETATM   25  C   UNL     1      40.385  -9.830   6.488  1.00  0.00     0.202 C 
ENDBRANCH  14  16
ENDBRANCH   1  14
TORSDOF 2
ENDMDL
MODEL 7
REMARK VINA RESULT:      -7.9      2.013      2.891
REMARK  2 active torsions:
REMARK  status: ('A' for Active; 'I' for Inactive)
REMARK    1  A    between atoms: C_2  and  N_3 
REMARK    2  A    between atoms: N_3  and  C_4 
ROOT
HETATM    1  C   UNL     1      43.450 -16.198   5.865  1.00  0.00     0.143 A 
HETATM    2  N   UNL     1      43.391 -15.931   7.193  1.00  0.00    -0.223 NA
HETATM    3  C   UNL     1      43.541 -16.920   8.080  1.00  0.00     0.236 A 
HETATM    4  N   UNL     1      43.743 -18.208   7.823  1.00  0.00    -0.234 NA
HETATM    5  C   UNL     1      43.809 -18.462   6.507  1.00  0.00     0.114 A 
HETATM    6  C   UNL     1      43.701 -17.541   5.469  1.00  0.00     0.053 A 
HETATM    7  S   UNL     1      44.035 -20.061   5.971  1.00  0.00    -0.073 SA
HETATM    8  C   UNL     1      43.995 -19.584   4.345  1.00  0.00    -0.008 A 
HETATM    9  C   UNL     1      43.858 -18.215   4.188  1.00  0.00    -0.028 A 
HETATM   10  C   UNL     1      43.835 -17.598   2.816  1.00  0.00     0.041 C 
HETATM   11  C   UNL     1      44.293 -18.571   1.717  1.00  0.00     0.005 C 
HETATM   12  C   UNL     1      43.691 -19.968   1.904  1.00  0.00     0.005 C 
HETATM   13  C   UNL     1      44.131 -20.584   3.238  1.00  0.00     0.047 C 
ENDROOT
BRANCH   1  14
HETATM   14  N   UNL     1      43.280 -15.159   4.935  1.00  0.00    -0.340 N 
HETATM   15  H   UNL     1      44.120 -14.925   4.433  1.00  0.00     0.167 HD
BRANCH  14  16
HETATM   16  C   UNL     1      42.129 -14.562   4.387  1.00  0.00     0.036 A 
HETATM   17  C   UNL     1      41.562 -13.469   5.066  1.00  0.00     0.032 A 
HETATM   18  C   UNL     1      40.418 -12.825   4.585  1.00  0.00     0.042 A 
HETATM   19  C   UNL     1      39.816 -13.272   3.415  1.00  0.00     0.102 A 
HETATM   20  C   UNL     1      40.333 -14.389   2.755  1.00  0.00     0.104 A 
HETATM   21  O   UNL     1      38.722 -12.574   2.975  1.00  0.00    -0.346 OA
HETATM   22  C   UNL     1      41.480 -15.024   3.237  1.00  0.00     0.069 A 
HETATM   23  O   UNL     1      39.774 -14.909   1.613  1.00  0.00    -0.346 OA
HETATM   24  C   UNL     1      38.453 -14.400   1.399  1.00  0.00     0.202 C 
HETATM   25  C   UNL     1      38.416 -12.896   1.613  1.00  0.00     0.202 C 
ENDBRANCH  14  16
ENDBRANCH   1  14
TORSDOF 2
ENDMDL
MODEL 8
REMARK VINA RESULT:      -7.8      1.772      3.662
REMARK  2 active torsions:
REMARK  status: ('A' for Active; 'I' for Inactive)
REMARK    1  A    between atoms: C_2  and  N_3 
REMARK    2  A    between atoms: N_3  and  C_4 
ROOT
HETATM    1  C   UNL     1      43.348 -17.647   2.188  1.00  0.00     0.143 A 
HETATM    2  N   UNL     1      43.452 -18.773   1.440  1.00  0.00    -0.223 NA
HETATM    3  C   UNL     1      43.814 -19.925   2.014  1.00  0.00     0.236 A 
HETATM    4  N   UNL     1      44.112 -20.128   3.292  1.00  0.00    -0.234 NA
HETATM    5  C   UNL     1      43.997 -19.011   4.027  1.00  0.00     0.114 A 
HETATM    6  C   UNL     1      43.608 -17.752   3.582  1.00  0.00     0.053 A 
HETATM    7  S   UNL     1      44.365 -19.057   5.688  1.00  0.00    -0.073 SA
HETATM    8  C   UNL     1      44.020 -17.407   5.871  1.00  0.00    -0.008 A 
HETATM    9  C   UNL     1      43.581 -16.816   4.697  1.00  0.00    -0.028 A 
HETATM   10  C   UNL     1      43.195 -15.362   4.669  1.00  0.00     0.041 C 
HETATM   11  C   UNL     1      43.037 -14.760   6.074  1.00  0.00     0.005 C 
HETATM   12  C   UNL     1      44.162 -15.202   7.016  1.00  0.00     0.005 C 
HETATM   13  C   UNL     1      44.164 -16.725   7.196  1.00  0.00     0.047 C 
ENDROOT
BRANCH   1  14
HETATM   14  N   UNL     1      42.980 -16.436   1.580  1.00  0.00    -0.340 N 
HETATM   15  H   UNL     1      43.722 -16.004   1.054  1.00  0.00     0.167 HD
BRANCH  14  16
HETATM   16  C   UNL     1      41.725 -15.842   1.345  1.00  0.00     0.036 A 
HETATM   17  C   UNL     1      40.677 -16.131   2.237  1.00  0.00     0.032 A 
HETATM   18  C   UNL     1      39.403 -15.582   2.069  1.00  0.00     0.042 A 
HETATM   19  C   UNL     1      39.154 -14.734   0.997  1.00  0.00     0.102 A 
HETATM   20  C   UNL     1      40.166 -14.476   0.070  1.00  0.00     0.104 A 
HETATM   21  O   UNL     1      37.896 -14.197   0.910  1.00  0.00    -0.346 OA
HETATM   22  C   UNL     1      41.439 -15.023   0.247  1.00  0.00     0.069 A 
HETATM   23  O   UNL     1      39.986 -13.677  -1.032  1.00  0.00    -0.346 OA
HETATM   24  C   UNL     1      38.598 -13.442  -1.288  1.00  0.00     0.202 C 
HETATM   25  C   UNL     1      37.867 -13.092  -0.002  1.00  0.00     0.202 C 
ENDBRANCH  14  16
ENDBRANCH   1  14
TORSDOF 2
ENDMDL
MODEL 9
REMARK VINA RESULT:      -7.8      3.778      7.141
REMARK  2 active torsions:
REMARK  status: ('A' for Active; 'I' for Inactive)
REMARK    1  A    between atoms: C_2  and  N_3 
REMARK    2  A    between atoms: N_3  and  C_4 
ROOT
HETATM    1  C   UNL     1      42.548 -15.391   3.398  1.00  0.00     0.143 A 
HETATM    2  N   UNL     1      42.554 -15.076   4.716  1.00  0.00    -0.223 NA
HETATM    3  C   UNL     1      41.640 -14.230   5.205  1.00  0.00     0.236 A 
HETATM    4  N   UNL     1      40.675 -13.613   4.533  1.00  0.00    -0.234 NA
HETATM    5  C   UNL     1      40.670 -13.938   3.231  1.00  0.00     0.114 A 
HETATM    6  C   UNL     1      41.532 -14.817   2.584  1.00  0.00     0.053 A 
HETATM    7  S   UNL     1      39.525 -13.227   2.192  1.00  0.00    -0.073 SA
HETATM    8  C   UNL     1      40.135 -14.063   0.850  1.00  0.00    -0.008 A 
HETATM    9  C   UNL     1      41.175 -14.918   1.175  1.00  0.00    -0.028 A 
HETATM   10  C   UNL     1      41.827 -15.771   0.120  1.00  0.00     0.041 C 
HETATM   11  C   UNL     1      41.023 -15.817  -1.189  1.00  0.00     0.005 C 
HETATM   12  C   UNL     1      40.496 -14.433  -1.585  1.00  0.00     0.005 C 
HETATM   13  C   UNL     1      39.549 -13.877  -0.515  1.00  0.00     0.047 C 
ENDROOT
BRANCH   1  14
HETATM   14  N   UNL     1      43.515 -16.270   2.886  1.00  0.00    -0.340 N 
HETATM   15  H   UNL     1      44.269 -15.808   2.404  1.00  0.00     0.167 HD
BRANCH  14  16
HETATM   16  C   UNL     1      43.776 -17.633   3.129  1.00  0.00     0.036 A 
HETATM   17  C   UNL     1      43.776 -18.513   2.032  1.00  0.00     0.032 A 
HETATM   18  C   UNL     1      44.023 -19.880   2.193  1.00  0.00     0.042 A 
HETATM   19  C   UNL     1      44.269 -20.390   3.462  1.00  0.00     0.102 A 
HETATM   20  C   UNL     1      44.221 -19.542   4.570  1.00  0.00     0.104 A 
HETATM   21  O   UNL     1      44.543 -21.730   3.548  1.00  0.00    -0.346 OA
HETATM   22  C   UNL     1      43.979 -18.176   4.401  1.00  0.00     0.069 A 
HETATM   23  O   UNL     1      44.420 -19.979   5.857  1.00  0.00    -0.346 OA
HETATM   24  C   UNL     1      44.333 -21.405   5.945  1.00  0.00     0.202 C 
HETATM   25  C   UNL     1      45.117 -22.060   4.819  1.00  0.00     0.202 C 
ENDBRANCH  14  16
ENDBRANCH   1  14
TORSDOF 2
ENDMDL
MODEL 10
REMARK VINA RESULT:      -7.7      2.166      3.794
REMARK  2 active torsions:
REMARK  status: ('A' for Active; 'I' for Inactive)
REMARK    1  A    between atoms: C_2  and  N_3 
REMARK    2  A    between atoms: N_3  and  C_4 
ROOT
HETATM    1  C   UNL     1      42.448 -18.350   2.489  1.00  0.00     0.143 A 
HETATM    2  N   UNL     1      42.658 -19.388   1.643  1.00  0.00    -0.223 NA
HETATM    3  C   UNL     1      43.548 -20.335   1.956  1.00  0.00     0.236 A 
HETATM    4  N   UNL     1      44.307 -20.397   3.045  1.00  0.00    -0.234 NA
HETATM    5  C   UNL     1      44.087 -19.371   3.881  1.00  0.00     0.114 A 
HETATM    6  C   UNL     1      43.180 -18.330   3.709  1.00  0.00     0.053 A 
HETATM    7  S   UNL     1      44.985 -19.254   5.322  1.00  0.00    -0.073 SA
HETATM    8  C   UNL     1      44.200 -17.817   5.764  1.00  0.00    -0.008 A 
HETATM    9  C   UNL     1      43.224 -17.436   4.857  1.00  0.00    -0.028 A 
HETATM   10  C   UNL     1      42.396 -16.202   5.095  1.00  0.00     0.041 C 
HETATM   11  C   UNL     1      42.531 -15.660   6.527  1.00  0.00     0.005 C 
HETATM   12  C   UNL     1      43.986 -15.672   7.008  1.00  0.00     0.005 C 
HETATM   13  C   UNL     1      44.548 -17.099   7.031  1.00  0.00     0.047 C 
ENDROOT
BRANCH   1  14
HETATM   14  N   UNL     1      41.521 -17.351   2.152  1.00  0.00    -0.340 N 
HETATM   15  H   UNL     1      40.798 -17.220   2.840  1.00  0.00     0.167 HD
BRANCH  14  16
HETATM   16  C   UNL     1      41.544 -16.330   1.182  1.00  0.00     0.036 A 
HETATM   17  C   UNL     1      41.790 -15.014   1.611  1.00  0.00     0.032 A 
HETATM   18  C   UNL     1      41.825 -13.947   0.708  1.00  0.00     0.042 A 
HETATM   19  C   UNL     1      41.607 -14.181  -0.644  1.00  0.00     0.102 A 
HETATM   20  C   UNL     1      41.308 -15.472  -1.083  1.00  0.00     0.104 A 
HETATM   21  O   UNL     1      41.694 -13.100  -1.483  1.00  0.00    -0.346 OA
HETATM   22  C   UNL     1      41.281 -16.535  -0.177  1.00  0.00     0.069 A 
HETATM   23  O   UNL     1      41.048 -15.775  -2.397  1.00  0.00    -0.346 OA
HETATM   24  C   UNL     1      40.785 -14.596  -3.164  1.00  0.00     0.202 C 
HETATM   25  C   UNL     1      41.804 -13.513  -2.850  1.00  0.00     0.202 C 
ENDBRANCH  14  16
ENDBRANCH   1  14
TORSDOF 2
ENDMDL
