MODEL 1
REMARK VINA RESULT:      -9.5      0.000      0.000
REMARK  4 active torsions:
REMARK  status: ('A' for Active; 'I' for Inactive)
REMARK    1  A    between atoms: C_2  and  C_3 
REMARK    2  A    between atoms: C_8  and  N_9 
REMARK       I    between atoms: N_9  and  C_10 
REMARK       I    between atoms: C_10  and  N_11 
REMARK    3  A    between atoms: N_11  and  C_12 
REMARK    4  A    between atoms: C_12  and  C_13 
ROOT
HETATM    1  N   UNL     1      44.343 -13.672   8.180  1.00  0.00    -0.305 N 
HETATM    2  C   UNL     1      44.002 -14.051   6.907  1.00  0.00     0.321 C 
HETATM    3  N   UNL     1      43.225 -15.194   6.909  1.00  0.00    -0.339 N 
HETATM    4  O   UNL     1      44.329 -13.497   5.867  1.00  0.00    -0.247 OA
HETATM    5  H   UNL     1      44.171 -14.348   8.908  1.00  0.00     0.171 HD
HETATM    6  H   UNL     1      42.621 -15.323   7.706  1.00  0.00     0.164 HD
ENDROOT
BRANCH   3   7
HETATM    7  C   UNL     1      42.696 -15.656   5.641  1.00  0.00     0.162 C 
BRANCH   7   8
HETATM    8  C   UNL     1      43.345 -16.930   5.170  1.00  0.00    -0.040 A 
HETATM    9  C   UNL     1      42.982 -17.507   3.942  1.00  0.00     0.021 A 
HETATM   10  C   UNL     1      43.509 -18.744   3.534  1.00  0.00    -0.025 A 
HETATM   11  C   UNL     1      44.420 -19.420   4.375  1.00  0.00    -0.026 A 
HETATM   12  C   UNL     1      43.135 -19.335   2.315  1.00  0.00     0.012 A 
HETATM   13  C   UNL     1      44.790 -18.835   5.595  1.00  0.00     0.013 A 
HETATM   14  C   UNL     1      44.926 -20.670   3.981  1.00  0.00     0.012 A 
HETATM   15  C   UNL     1      44.257 -17.605   5.989  1.00  0.00     0.010 A 
HETATM   16  C   UNL     1      44.540 -21.245   2.770  1.00  0.00     0.001 A 
HETATM   17  C   UNL     1      43.647 -20.578   1.937  1.00  0.00     0.001 A 
ENDBRANCH   7   8
ENDBRANCH   3   7
BRANCH   1  18
HETATM   18  C   UNL     1      45.040 -12.524   8.547  1.00  0.00     0.095 A 
HETATM   19  C   UNL     1      44.511 -11.559   9.384  1.00  0.00     0.107 A 
HETATM   20  O   UNL     1      45.407 -10.552   9.543  1.00  0.00    -0.215 OA
HETATM   21  N   UNL     1      46.545 -10.827   8.826  1.00  0.00    -0.131 NA
HETATM   22  C   UNL     1      46.332 -12.007   8.223  1.00  0.00     0.087 A 
HETATM   23  C   UNL     1      47.412 -12.538   7.358  1.00  0.00     0.075 C 
BRANCH  19  24
HETATM   24  C   UNL     1      43.232 -11.381  10.113  1.00  0.00     0.065 C 
HETATM   25  C   UNL     1      43.399 -11.610  11.607  1.00  0.00     0.012 C 
ENDBRANCH  19  24
ENDBRANCH   1  18
TORSDOF 4
ENDMDL
MODEL 2
REMARK VINA RESULT:      -8.6      5.813      8.725
REMARK  4 active torsions:
REMARK  status: ('A' for Active; 'I' for Inactive)
REMARK    1  A    between atoms: C_2  and  C_3 
REMARK    2  A    between atoms: C_8  and  N_9 
REMARK       I    between atoms: N_9  and  C_10 
REMARK       I    between atoms: C_10  and  N_11 
REMARK    3  A    between atoms: N_11  and  C_12 
REMARK    4  A    between atoms: C_12  and  C_13 
ROOT
HETATM    1  N   UNL     1      41.865 -15.078  -1.119  1.00  0.00    -0.305 N 
HETATM    2  C   UNL     1      41.572 -15.230   0.212  1.00  0.00     0.321 C 
HETATM    3  N   UNL     1      42.518 -16.005   0.856  1.00  0.00    -0.339 N 
HETATM    4  O   UNL     1      40.602 -14.775   0.803  1.00  0.00    -0.247 OA
HETATM    5  H   UNL     1      42.580 -15.685  -1.490  1.00  0.00     0.171 HD
HETATM    6  H   UNL     1      43.459 -15.949   0.499  1.00  0.00     0.164 HD
ENDROOT
BRANCH   3   7
HETATM    7  C   UNL     1      42.401 -16.163   2.291  1.00  0.00     0.162 C 
BRANCH   7   8
HETATM    8  C   UNL     1      43.093 -17.401   2.797  1.00  0.00    -0.040 A 
HETATM    9  C   UNL     1      43.123 -18.573   2.024  1.00  0.00     0.021 A 
HETATM   10  C   UNL     1      43.682 -19.762   2.522  1.00  0.00    -0.025 A 
HETATM   11  C   UNL     1      44.222 -19.779   3.827  1.00  0.00    -0.026 A 
HETATM   12  C   UNL     1      43.698 -20.941   1.758  1.00  0.00     0.012 A 
HETATM   13  C   UNL     1      44.203 -18.604   4.592  1.00  0.00     0.013 A 
HETATM   14  C   UNL     1      44.756 -20.975   4.336  1.00  0.00     0.012 A 
HETATM   15  C   UNL     1      43.642 -17.429   4.084  1.00  0.00     0.010 A 
HETATM   16  C   UNL     1      44.758 -22.139   3.567  1.00  0.00     0.001 A 
HETATM   17  C   UNL     1      44.232 -22.122   2.279  1.00  0.00     0.001 A 
ENDBRANCH   7   8
ENDBRANCH   3   7
BRANCH   1  18
HETATM   18  C   UNL     1      41.177 -14.292  -2.038  1.00  0.00     0.095 A 
HETATM   19  C   UNL     1      40.351 -14.822  -3.012  1.00  0.00     0.107 A 
HETATM   20  O   UNL     1      39.838 -13.820  -3.770  1.00  0.00    -0.215 OA
HETATM   21  N   UNL     1      40.301 -12.611  -3.315  1.00  0.00    -0.131 NA
HETATM   22  C   UNL     1      41.107 -12.885  -2.278  1.00  0.00     0.087 A 
HETATM   23  C   UNL     1      41.765 -11.741  -1.602  1.00  0.00     0.075 C 
BRANCH  19  24
HETATM   24  C   UNL     1      39.924 -16.187  -3.404  1.00  0.00     0.065 C 
HETATM   25  C   UNL     1      38.806 -16.153  -4.434  1.00  0.00     0.012 C 
ENDBRANCH  19  24
ENDBRANCH   1  18
TORSDOF 4
ENDMDL
MODEL 3
REMARK VINA RESULT:      -8.4      5.938      8.398
REMARK  4 active torsions:
REMARK  status: ('A' for Active; 'I' for Inactive)
REMARK    1  A    between atoms: C_2  and  C_3 
REMARK    2  A    between atoms: C_8  and  N_9 
REMARK       I    between atoms: N_9  and  C_10 
REMARK       I    between atoms: C_10  and  N_11 
REMARK    3  A    between atoms: N_11  and  C_12 
REMARK    4  A    between atoms: C_12  and  C_13 
ROOT
HETATM    1  N   UNL     1      41.743 -15.156  -1.360  1.00  0.00    -0.305 N 
HETATM    2  C   UNL     1      41.483 -15.202  -0.014  1.00  0.00     0.321 C 
HETATM    3  N   UNL     1      42.214 -16.194   0.612  1.00  0.00    -0.339 N 
HETATM    4  O   UNL     1      40.702 -14.491   0.603  1.00  0.00    -0.247 OA
HETATM    5  H   UNL     1      42.249 -15.940  -1.742  1.00  0.00     0.171 HD
HETATM    6  H   UNL     1      43.118 -16.401   0.215  1.00  0.00     0.164 HD
ENDROOT
BRANCH   3   7
HETATM    7  C   UNL     1      42.127 -16.292   2.055  1.00  0.00     0.162 C 
BRANCH   7   8
HETATM    8  C   UNL     1      42.900 -17.461   2.605  1.00  0.00    -0.040 A 
HETATM    9  C   UNL     1      42.953 -18.678   1.907  1.00  0.00     0.021 A 
HETATM   10  C   UNL     1      43.589 -19.805   2.453  1.00  0.00    -0.025 A 
HETATM   11  C   UNL     1      44.187 -19.712   3.730  1.00  0.00    -0.026 A 
HETATM   12  C   UNL     1      43.629 -21.031   1.767  1.00  0.00     0.012 A 
HETATM   13  C   UNL     1      44.144 -18.491   4.419  1.00  0.00     0.013 A 
HETATM   14  C   UNL     1      44.800 -20.846   4.289  1.00  0.00     0.012 A 
HETATM   15  C   UNL     1      43.506 -17.379   3.864  1.00  0.00     0.010 A 
HETATM   16  C   UNL     1      44.825 -22.057   3.596  1.00  0.00     0.001 A 
HETATM   17  C   UNL     1      44.242 -22.148   2.335  1.00  0.00     0.001 A 
ENDBRANCH   7   8
ENDBRANCH   3   7
BRANCH   1  18
HETATM   18  C   UNL     1      41.251 -14.227  -2.271  1.00  0.00     0.095 A 
HETATM   19  C   UNL     1      41.781 -12.958  -2.412  1.00  0.00     0.107 A 
HETATM   20  O   UNL     1      41.085 -12.275  -3.355  1.00  0.00    -0.215 OA
HETATM   21  N   UNL     1      40.090 -13.071  -3.864  1.00  0.00    -0.131 NA
HETATM   22  C   UNL     1      40.180 -14.243  -3.217  1.00  0.00     0.087 A 
HETATM   23  C   UNL     1      39.196 -15.295  -3.566  1.00  0.00     0.075 C 
BRANCH  19  24
HETATM   24  C   UNL     1      42.891 -12.203  -1.782  1.00  0.00     0.065 C 
HETATM   25  C   UNL     1      42.413 -11.391  -0.589  1.00  0.00     0.012 C 
ENDBRANCH  19  24
ENDBRANCH   1  18
TORSDOF 4
ENDMDL
MODEL 4
REMARK VINA RESULT:      -8.4      5.633      7.922
REMARK  4 active torsions:
REMARK  status: ('A' for Active; 'I' for Inactive)
REMARK    1  A    between atoms: C_2  and  C_3 
REMARK    2  A    between atoms: C_8  and  N_9 
REMARK       I    between atoms: N_9  and  C_10 
REMARK       I    between atoms: C_10  and  N_11 
REMARK    3  A    between atoms: N_11  and  C_12 
REMARK    4  A    between atoms: C_12  and  C_13 
ROOT
HETATM    1  N   UNL     1      40.590 -15.481  -0.093  1.00  0.00    -0.305 N 
HETATM    2  C   UNL     1      41.485 -15.192   0.905  1.00  0.00     0.321 C 
HETATM    3  N   UNL     1      41.963 -16.340   1.508  1.00  0.00    -0.339 N 
HETATM    4  O   UNL     1      41.839 -14.079   1.268  1.00  0.00    -0.247 OA
HETATM    5  H   UNL     1      40.251 -16.430  -0.126  1.00  0.00     0.171 HD
HETATM    6  H   UNL     1      42.032 -17.158   0.921  1.00  0.00     0.164 HD
ENDROOT
BRANCH   3   7
HETATM    7  C   UNL     1      43.000 -16.199   2.509  1.00  0.00     0.162 C 
BRANCH   7   8
HETATM    8  C   UNL     1      43.531 -17.524   2.986  1.00  0.00    -0.040 A 
HETATM    9  C   UNL     1      43.558 -18.637   2.129  1.00  0.00     0.021 A 
HETATM   10  C   UNL     1      43.961 -19.902   2.588  1.00  0.00    -0.025 A 
HETATM   11  C   UNL     1      44.346 -20.058   3.939  1.00  0.00    -0.026 A 
HETATM   12  C   UNL     1      43.973 -21.022   1.740  1.00  0.00     0.012 A 
HETATM   13  C   UNL     1      44.331 -18.943   4.789  1.00  0.00     0.013 A 
HETATM   14  C   UNL     1      44.723 -21.328   4.406  1.00  0.00     0.012 A 
HETATM   15  C   UNL     1      43.925 -17.691   4.319  1.00  0.00     0.010 A 
HETATM   16  C   UNL     1      44.722 -22.431   3.551  1.00  0.00     0.001 A 
HETATM   17  C   UNL     1      44.350 -22.277   2.219  1.00  0.00     0.001 A 
ENDBRANCH   7   8
ENDBRANCH   3   7
BRANCH   1  18
HETATM   18  C   UNL     1      39.987 -14.573  -0.958  1.00  0.00     0.095 A 
HETATM   19  C   UNL     1      38.780 -13.958  -0.682  1.00  0.00     0.107 A 
HETATM   20  O   UNL     1      38.434 -13.147  -1.713  1.00  0.00    -0.215 OA
HETATM   21  N   UNL     1      39.399 -13.198  -2.687  1.00  0.00    -0.131 NA
HETATM   22  C   UNL     1      40.333 -14.054  -2.244  1.00  0.00     0.087 A 
HETATM   23  C   UNL     1      41.498 -14.312  -3.124  1.00  0.00     0.075 C 
BRANCH  19  24
HETATM   24  C   UNL     1      37.813 -13.991   0.442  1.00  0.00     0.065 C 
HETATM   25  C   UNL     1      37.205 -12.622   0.702  1.00  0.00     0.012 C 
ENDBRANCH  19  24
ENDBRANCH   1  18
TORSDOF 4
ENDMDL
MODEL 5
REMARK VINA RESULT:      -8.3      5.521      8.124
REMARK  4 active torsions:
REMARK  status: ('A' for Active; 'I' for Inactive)
REMARK    1  A    between atoms: C_2  and  C_3 
REMARK    2  A    between atoms: C_8  and  N_9 
REMARK       I    between atoms: N_9  and  C_10 
REMARK       I    between atoms: C_10  and  N_11 
REMARK    3  A    between atoms: N_11  and  C_12 
REMARK    4  A    between atoms: C_12  and  C_13 
ROOT
HETATM    1  N   UNL     1      40.412 -15.343   0.465  1.00  0.00    -0.305 N 
HETATM    2  C   UNL     1      41.495 -15.102   1.272  1.00  0.00     0.321 C 
HETATM    3  N   UNL     1      41.929 -16.255   1.899  1.00  0.00    -0.339 N 
HETATM    4  O   UNL     1      42.038 -14.023   1.463  1.00  0.00    -0.247 OA
HETATM    5  H   UNL     1      39.962 -16.238   0.581  1.00  0.00     0.171 HD
HETATM    6  H   UNL     1      41.797 -17.117   1.391  1.00  0.00     0.164 HD
ENDROOT
BRANCH   3   7
HETATM    7  C   UNL     1      43.134 -16.179   2.700  1.00  0.00     0.162 C 
BRANCH   7   8
HETATM    8  C   UNL     1      43.634 -17.533   3.127  1.00  0.00    -0.040 A 
HETATM    9  C   UNL     1      43.622 -18.617   2.234  1.00  0.00     0.021 A 
HETATM   10  C   UNL     1      43.995 -19.907   2.646  1.00  0.00    -0.025 A 
HETATM   11  C   UNL     1      44.390 -20.118   3.986  1.00  0.00    -0.026 A 
HETATM   12  C   UNL     1      43.967 -20.998   1.761  1.00  0.00     0.012 A 
HETATM   13  C   UNL     1      44.414 -19.031   4.872  1.00  0.00     0.013 A 
HETATM   14  C   UNL     1      44.737 -21.412   4.407  1.00  0.00     0.012 A 
HETATM   15  C   UNL     1      44.038 -17.754   4.449  1.00  0.00     0.010 A 
HETATM   16  C   UNL     1      44.697 -22.486   3.516  1.00  0.00     0.001 A 
HETATM   17  C   UNL     1      44.315 -22.278   2.194  1.00  0.00     0.001 A 
ENDBRANCH   7   8
ENDBRANCH   3   7
BRANCH   1  18
HETATM   18  C   UNL     1      39.782 -14.431  -0.375  1.00  0.00     0.095 A 
HETATM   19  C   UNL     1      40.000 -14.391  -1.740  1.00  0.00     0.107 A 
HETATM   20  O   UNL     1      39.269 -13.389  -2.290  1.00  0.00    -0.215 OA
HETATM   21  N   UNL     1      38.549 -12.750  -1.312  1.00  0.00    -0.131 NA
HETATM   22  C   UNL     1      38.854 -13.366  -0.159  1.00  0.00     0.087 A 
HETATM   23  C   UNL     1      38.218 -12.856   1.078  1.00  0.00     0.075 C 
BRANCH  19  24
HETATM   24  C   UNL     1      40.826 -15.164  -2.699  1.00  0.00     0.065 C 
HETATM   25  C   UNL     1      40.012 -16.235  -3.408  1.00  0.00     0.012 C 
ENDBRANCH  19  24
ENDBRANCH   1  18
TORSDOF 4
ENDMDL
MODEL 6
REMARK VINA RESULT:      -8.3      4.155      5.389
REMARK  4 active torsions:
REMARK  status: ('A' for Active; 'I' for Inactive)
REMARK    1  A    between atoms: C_2  and  C_3 
REMARK    2  A    between atoms: C_8  and  N_9 
REMARK       I    between atoms: N_9  and  C_10 
REMARK       I    between atoms: C_10  and  N_11 
REMARK    3  A    between atoms: N_11  and  C_12 
REMARK    4  A    between atoms: C_12  and  C_13 
ROOT
HETATM    1  N   UNL     1      40.082 -15.344   5.560  1.00  0.00    -0.305 N 
HETATM    2  C   UNL     1      41.319 -15.665   6.058  1.00  0.00     0.321 C 
HETATM    3  N   UNL     1      41.305 -16.882   6.711  1.00  0.00    -0.339 N 
HETATM    4  O   UNL     1      42.336 -14.989   5.979  1.00  0.00    -0.247 OA
HETATM    5  H   UNL     1      39.311 -15.904   5.890  1.00  0.00     0.171 HD
HETATM    6  H   UNL     1      40.653 -17.569   6.362  1.00  0.00     0.164 HD
ENDROOT
BRANCH   3   7
HETATM    7  C   UNL     1      42.565 -17.407   7.196  1.00  0.00     0.162 C 
BRANCH   7   8
HETATM    8  C   UNL     1      43.184 -18.400   6.250  1.00  0.00    -0.040 A 
HETATM    9  C   UNL     1      42.965 -18.306   4.866  1.00  0.00     0.021 A 
HETATM   10  C   UNL     1      43.457 -19.280   3.981  1.00  0.00    -0.025 A 
HETATM   11  C   UNL     1      44.186 -20.376   4.493  1.00  0.00    -0.026 A 
HETATM   12  C   UNL     1      43.224 -19.199   2.598  1.00  0.00     0.012 A 
HETATM   13  C   UNL     1      44.415 -20.460   5.874  1.00  0.00     0.013 A 
HETATM   14  C   UNL     1      44.655 -21.364   3.612  1.00  0.00     0.012 A 
HETATM   15  C   UNL     1      43.918 -19.486   6.743  1.00  0.00     0.010 A 
HETATM   16  C   UNL     1      44.409 -21.272   2.242  1.00  0.00     0.001 A 
HETATM   17  C   UNL     1      43.697 -20.190   1.735  1.00  0.00     0.001 A 
ENDBRANCH   7   8
ENDBRANCH   3   7
BRANCH   1  18
HETATM   18  C   UNL     1      39.761 -14.239   4.778  1.00  0.00     0.095 A 
HETATM   19  C   UNL     1      39.678 -14.293   3.398  1.00  0.00     0.107 A 
HETATM   20  O   UNL     1      39.372 -13.065   2.911  1.00  0.00    -0.215 OA
HETATM   21  N   UNL     1      39.238 -12.175   3.948  1.00  0.00    -0.131 NA
HETATM   22  C   UNL     1      39.473 -12.871   5.071  1.00  0.00     0.087 A 
HETATM   23  C   UNL     1      39.410 -12.136   6.356  1.00  0.00     0.075 C 
BRANCH  19  24
HETATM   24  C   UNL     1      39.850 -15.350   2.372  1.00  0.00     0.065 C 
HETATM   25  C   UNL     1      41.296 -15.808   2.272  1.00  0.00     0.012 C 
ENDBRANCH  19  24
ENDBRANCH   1  18
TORSDOF 4
ENDMDL
MODEL 7
REMARK VINA RESULT:      -8.2      3.523      5.099
REMARK  4 active torsions:
REMARK  status: ('A' for Active; 'I' for Inactive)
REMARK    1  A    between atoms: C_2  and  C_3 
REMARK    2  A    between atoms: C_8  and  N_9 
REMARK       I    between atoms: N_9  and  C_10 
REMARK       I    between atoms: C_10  and  N_11 
REMARK    3  A    between atoms: N_11  and  C_12 
REMARK    4  A    between atoms: C_12  and  C_13 
ROOT
HETATM    1  N   UNL     1      40.811 -14.712   6.172  1.00  0.00    -0.305 N 
HETATM    2  C   UNL     1      42.119 -14.987   5.862  1.00  0.00     0.321 C 
HETATM    3  N   UNL     1      42.540 -16.171   6.437  1.00  0.00    -0.339 N 
HETATM    4  O   UNL     1      42.868 -14.298   5.184  1.00  0.00    -0.247 OA
HETATM    5  H   UNL     1      40.401 -15.268   6.906  1.00  0.00     0.171 HD
HETATM    6  H   UNL     1      41.837 -16.885   6.555  1.00  0.00     0.164 HD
ENDROOT
BRANCH   3   7
HETATM    7  C   UNL     1      43.868 -16.649   6.110  1.00  0.00     0.162 C 
BRANCH   7   8
HETATM    8  C   UNL     1      43.851 -17.776   5.113  1.00  0.00    -0.040 A 
HETATM    9  C   UNL     1      44.229 -19.074   5.491  1.00  0.00     0.021 A 
HETATM   10  C   UNL     1      44.309 -20.115   4.551  1.00  0.00    -0.025 A 
HETATM   11  C   UNL     1      44.005 -19.849   3.197  1.00  0.00    -0.026 A 
HETATM   12  C   UNL     1      44.705 -21.411   4.922  1.00  0.00     0.012 A 
HETATM   13  C   UNL     1      43.615 -18.555   2.824  1.00  0.00     0.013 A 
HETATM   14  C   UNL     1      44.112 -20.882   2.251  1.00  0.00     0.012 A 
HETATM   15  C   UNL     1      43.541 -17.529   3.770  1.00  0.00     0.010 A 
HETATM   16  C   UNL     1      44.512 -22.162   2.635  1.00  0.00     0.001 A 
HETATM   17  C   UNL     1      44.806 -22.427   3.969  1.00  0.00     0.001 A 
ENDBRANCH   7   8
ENDBRANCH   3   7
BRANCH   1  18
HETATM   18  C   UNL     1      40.047 -13.653   5.691  1.00  0.00     0.095 A 
HETATM   19  C   UNL     1      39.707 -13.516   4.357  1.00  0.00     0.107 A 
HETATM   20  O   UNL     1      38.982 -12.382   4.186  1.00  0.00    -0.215 OA
HETATM   21  N   UNL     1      38.819 -11.749   5.393  1.00  0.00    -0.131 NA
HETATM   22  C   UNL     1      39.457 -12.504   6.301  1.00  0.00     0.087 A 
HETATM   23  C   UNL     1      39.453 -12.033   7.706  1.00  0.00     0.075 C 
BRANCH  19  24
HETATM   24  C   UNL     1      39.955 -14.295   3.120  1.00  0.00     0.065 C 
HETATM   25  C   UNL     1      40.988 -13.624   2.230  1.00  0.00     0.012 C 
ENDBRANCH  19  24
ENDBRANCH   1  18
TORSDOF 4
ENDMDL
MODEL 8
REMARK VINA RESULT:      -8.2      5.595      7.164
REMARK  4 active torsions:
REMARK  status: ('A' for Active; 'I' for Inactive)
REMARK    1  A    between atoms: C_2  and  C_3 
REMARK    2  A    between atoms: C_8  and  N_9 
REMARK       I    between atoms: N_9  and  C_10 
REMARK       I    between atoms: C_10  and  N_11 
REMARK    3  A    between atoms: N_11  and  C_12 
REMARK    4  A    between atoms: C_12  and  C_13 
ROOT
HETATM    1  N   UNL     1      39.793 -15.300   1.672  1.00  0.00    -0.305 N 
HETATM    2  C   UNL     1      41.130 -15.539   1.482  1.00  0.00     0.321 C 
HETATM    3  N   UNL     1      41.387 -16.886   1.314  1.00  0.00    -0.339 N 
HETATM    4  O   UNL     1      42.026 -14.706   1.471  1.00  0.00    -0.247 OA
HETATM    5  H   UNL     1      39.219 -16.107   1.862  1.00  0.00     0.171 HD
HETATM    6  H   UNL     1      40.660 -17.428   0.873  1.00  0.00     0.164 HD
ENDROOT
BRANCH   3   7
HETATM    7  C   UNL     1      42.744 -17.283   0.994  1.00  0.00     0.162 C 
BRANCH   7   8
HETATM    8  C   UNL     1      43.344 -18.191   2.033  1.00  0.00    -0.040 A 
HETATM    9  C   UNL     1      43.584 -19.545   1.750  1.00  0.00     0.021 A 
HETATM   10  C   UNL     1      44.054 -20.425   2.739  1.00  0.00    -0.025 A 
HETATM   11  C   UNL     1      44.289 -19.938   4.044  1.00  0.00    -0.026 A 
HETATM   12  C   UNL     1      44.279 -21.785   2.465  1.00  0.00     0.012 A 
HETATM   13  C   UNL     1      44.061 -18.582   4.321  1.00  0.00     0.013 A 
HETATM   14  C   UNL     1      44.733 -20.823   5.041  1.00  0.00     0.012 A 
HETATM   15  C   UNL     1      43.591 -17.719   3.328  1.00  0.00     0.010 A 
HETATM   16  C   UNL     1      44.944 -22.172   4.754  1.00  0.00     0.001 A 
HETATM   17  C   UNL     1      44.720 -22.652   3.467  1.00  0.00     0.001 A 
ENDBRANCH   7   8
ENDBRANCH   3   7
BRANCH   1  18
HETATM   18  C   UNL     1      39.178 -14.057   1.785  1.00  0.00     0.095 A 
HETATM   19  C   UNL     1      38.395 -13.512   0.785  1.00  0.00     0.107 A 
HETATM   20  O   UNL     1      37.951 -12.288   1.168  1.00  0.00    -0.215 OA
HETATM   21  N   UNL     1      38.419 -11.998   2.425  1.00  0.00    -0.131 NA
HETATM   22  C   UNL     1      39.159 -13.052   2.802  1.00  0.00     0.087 A 
HETATM   23  C   UNL     1      39.808 -12.993   4.133  1.00  0.00     0.075 C 
BRANCH  19  24
HETATM   24  C   UNL     1      37.955 -13.945  -0.564  1.00  0.00     0.065 C 
HETATM   25  C   UNL     1      39.084 -13.859  -1.579  1.00  0.00     0.012 C 
ENDBRANCH  19  24
ENDBRANCH   1  18
TORSDOF 4
ENDMDL
MODEL 9
REMARK VINA RESULT:      -8.1      3.368      4.471
REMARK  4 active torsions:
REMARK  status: ('A' for Active; 'I' for Inactive)
REMARK    1  A    between atoms: C_2  and  C_3 
REMARK    2  A    between atoms: C_8  and  N_9 
REMARK       I    between atoms: N_9  and  C_10 
REMARK       I    between atoms: C_10  and  N_11 
REMARK    3  A    between atoms: N_11  and  C_12 
REMARK    4  A    between atoms: C_12  and  C_13 
ROOT
HETATM    1  N   UNL     1      40.559 -14.012   6.278  1.00  0.00    -0.305 N 
HETATM    2  C   UNL     1      41.845 -14.337   5.930  1.00  0.00     0.321 C 
HETATM    3  N   UNL     1      42.183 -15.606   6.360  1.00  0.00    -0.339 N 
HETATM    4  O   UNL     1      42.640 -13.628   5.330  1.00  0.00    -0.247 OA
HETATM    5  H   UNL     1      40.112 -14.621   6.947  1.00  0.00     0.171 HD
HETATM    6  H   UNL     1      41.433 -16.280   6.400  1.00  0.00     0.164 HD
ENDROOT
BRANCH   3   7
HETATM    7  C   UNL     1      43.476 -16.133   5.970  1.00  0.00     0.162 C 
BRANCH   7   8
HETATM    8  C   UNL     1      43.373 -17.215   4.929  1.00  0.00    -0.040 A 
HETATM    9  C   UNL     1      44.029 -18.444   5.104  1.00  0.00     0.021 A 
HETATM   10  C   UNL     1      44.021 -19.426   4.099  1.00  0.00    -0.025 A 
HETATM   11  C   UNL     1      43.339 -19.171   2.888  1.00  0.00    -0.026 A 
HETATM   12  C   UNL     1      44.691 -20.649   4.262  1.00  0.00     0.012 A 
HETATM   13  C   UNL     1      42.672 -17.948   2.721  1.00  0.00     0.013 A 
HETATM   14  C   UNL     1      43.352 -20.141   1.872  1.00  0.00     0.012 A 
HETATM   15  C   UNL     1      42.691 -16.980   3.728  1.00  0.00     0.010 A 
HETATM   16  C   UNL     1      44.029 -21.348   2.048  1.00  0.00     0.001 A 
HETATM   17  C   UNL     1      44.696 -21.603   3.243  1.00  0.00     0.001 A 
ENDBRANCH   7   8
ENDBRANCH   3   7
BRANCH   1  18
HETATM   18  C   UNL     1      39.870 -12.855   5.929  1.00  0.00     0.095 A 
HETATM   19  C   UNL     1      39.433 -11.930   6.860  1.00  0.00     0.107 A 
HETATM   20  O   UNL     1      38.777 -10.924   6.231  1.00  0.00    -0.215 OA
HETATM   21  N   UNL     1      38.770 -11.151   4.877  1.00  0.00    -0.131 NA
HETATM   22  C   UNL     1      39.420 -12.309   4.688  1.00  0.00     0.087 A 
HETATM   23  C   UNL     1      39.544 -12.805   3.297  1.00  0.00     0.075 C 
BRANCH  19  24
HETATM   24  C   UNL     1      39.512 -11.802   8.336  1.00  0.00     0.065 C 
HETATM   25  C   UNL     1      39.075 -10.423   8.804  1.00  0.00     0.012 C 
ENDBRANCH  19  24
ENDBRANCH   1  18
TORSDOF 4
ENDMDL
MODEL 10
REMARK VINA RESULT:      -8.1      6.244      8.967
REMARK  4 active torsions:
REMARK  status: ('A' for Active; 'I' for Inactive)
REMARK    1  A    between atoms: C_2  and  C_3 
REMARK    2  A    between atoms: C_8  and  N_9 
REMARK       I    between atoms: N_9  and  C_10 
REMARK       I    between atoms: C_10  and  N_11 
REMARK    3  A    between atoms: N_11  and  C_12 
REMARK    4  A    between atoms: C_12  and  C_13 
ROOT
HETATM    1  N   UNL     1      40.224 -14.993  -1.248  1.00  0.00    -0.305 N 
HETATM    2  C   UNL     1      40.502 -14.852   0.088  1.00  0.00     0.321 C 
HETATM    3  N   UNL     1      40.503 -16.072   0.738  1.00  0.00    -0.339 N 
HETATM    4  O   UNL     1      40.713 -13.805   0.683  1.00  0.00    -0.247 OA
HETATM    5  H   UNL     1      39.870 -15.893  -1.537  1.00  0.00     0.171 HD
HETATM    6  H   UNL     1      40.793 -16.869   0.193  1.00  0.00     0.164 HD
ENDROOT
BRANCH   3   7
HETATM    7  C   UNL     1      40.888 -16.095   2.135  1.00  0.00     0.162 C 
BRANCH   7   8
HETATM    8  C   UNL     1      41.821 -17.229   2.461  1.00  0.00    -0.040 A 
HETATM    9  C   UNL     1      42.084 -17.582   3.795  1.00  0.00     0.021 A 
HETATM   10  C   UNL     1      43.024 -18.574   4.117  1.00  0.00    -0.025 A 
HETATM   11  C   UNL     1      43.721 -19.230   3.078  1.00  0.00    -0.026 A 
HETATM   12  C   UNL     1      43.303 -18.917   5.451  1.00  0.00     0.012 A 
HETATM   13  C   UNL     1      43.448 -18.886   1.746  1.00  0.00     0.013 A 
HETATM   14  C   UNL     1      44.682 -20.204   3.399  1.00  0.00     0.012 A 
HETATM   15  C   UNL     1      42.511 -17.895   1.441  1.00  0.00     0.010 A 
HETATM   16  C   UNL     1      44.951 -20.527   4.729  1.00  0.00     0.001 A 
HETATM   17  C   UNL     1      44.261 -19.887   5.754  1.00  0.00     0.001 A 
ENDBRANCH   7   8
ENDBRANCH   3   7
BRANCH   1  18
HETATM   18  C   UNL     1      40.230 -13.987  -2.209  1.00  0.00     0.095 A 
HETATM   19  C   UNL     1      39.089 -13.574  -2.872  1.00  0.00     0.107 A 
HETATM   20  O   UNL     1      39.406 -12.600  -3.762  1.00  0.00    -0.215 OA
HETATM   21  N   UNL     1      40.753 -12.341  -3.706  1.00  0.00    -0.131 NA
HETATM   22  C   UNL     1      41.255 -13.172  -2.779  1.00  0.00     0.087 A 
HETATM   23  C   UNL     1      42.714 -13.113  -2.527  1.00  0.00     0.075 C 
BRANCH  19  24
HETATM   24  C   UNL     1      37.654 -13.947  -2.835  1.00  0.00     0.065 C 
HETATM   25  C   UNL     1      37.327 -15.027  -3.855  1.00  0.00     0.012 C 
ENDBRANCH  19  24
ENDBRANCH   1  18
TORSDOF 4
ENDMDL
