MODEL 1
REMARK VINA RESULT:      -8.0      0.000      0.000
REMARK  9 active torsions:
REMARK  status: ('A' for Active; 'I' for Inactive)
REMARK    1  A    between atoms: C_5  and  O_6 
REMARK    2  A    between atoms: O_6  and  C_7 
REMARK    3  A    between atoms: C_7  and  C_8 
REMARK    4  A    between atoms: N_9  and  C_10 
REMARK    5  A    between atoms: C_10  and  C_11 
REMARK    6  A    between atoms: C_11  and  C_12 
REMARK    7  A    between atoms: C_18  and  S_19 
REMARK    8  A    between atoms: S_19  and  C_20 
REMARK    9  A    between atoms: C_20  and  C_21 
REMARK       I    between atoms: C_21  and  N_22 
ROOT
HETATM    1  C   UNL     1      40.354 -14.705   3.288  1.00  0.00     0.155 A 
HETATM    2  N   UNL     1      40.837 -15.684   2.440  1.00  0.00    -0.309 N 
HETATM    3  C   UNL     1      40.755 -15.138   1.186  1.00  0.00     0.192 A 
HETATM    4  N   UNL     1      40.227 -13.939   1.254  1.00  0.00    -0.123 NA
HETATM    5  N   UNL     1      39.986 -13.662   2.568  1.00  0.00    -0.132 NA
ENDROOT
BRANCH   1   6
HETATM    6  C   UNL     1      40.200 -14.808   4.766  1.00  0.00     0.256 C 
BRANCH   6   7
HETATM    7  O   UNL     1      41.396 -14.321   5.367  1.00  0.00    -0.344 OA
BRANCH   7   8
HETATM    8  C   UNL     1      42.194 -15.250   5.977  1.00  0.00     0.069 A 
HETATM    9  C   UNL     1      41.521 -16.378   6.448  1.00  0.00     0.037 A 
HETATM   10  C   UNL     1      42.218 -17.413   7.075  1.00  0.00     0.009 A 
HETATM   11  C   UNL     1      43.601 -17.324   7.253  1.00  0.00    -0.062 A 
HETATM   12  C   UNL     1      44.371 -18.447   7.885  1.00  0.00     0.048 C 
HETATM   13  C   UNL     1      44.274 -16.190   6.784  1.00  0.00     0.009 A 
HETATM   14  C   UNL     1      43.574 -15.155   6.155  1.00  0.00     0.037 A 
ENDBRANCH   7   8
ENDBRANCH   6   7
ENDBRANCH   1   6
BRANCH   2  15
HETATM   15  C   UNL     1      41.337 -16.997   2.805  1.00  0.00     0.137 C 
BRANCH  15  16
HETATM   16  C   UNL     1      42.851 -17.021   3.020  1.00  0.00     0.059 C 
BRANCH  16  17
HETATM   17  C   UNL     1      43.404 -18.424   3.004  1.00  0.00    -0.057 A 
HETATM   18  C   UNL     1      43.138 -19.286   1.932  1.00  0.00     0.007 A 
HETATM   19  C   UNL     1      43.649 -20.586   1.932  1.00  0.00     0.001 A 
HETATM   20  C   UNL     1      44.425 -21.035   2.999  1.00  0.00     0.000 A 
HETATM   21  C   UNL     1      44.689 -20.185   4.071  1.00  0.00     0.001 A 
HETATM   22  C   UNL     1      44.178 -18.887   4.076  1.00  0.00     0.007 A 
ENDBRANCH  16  17
ENDBRANCH  15  16
ENDBRANCH   2  15
BRANCH   3  23
HETATM   23  S   UNL     1      41.282 -15.906  -0.270  1.00  0.00    -0.081 SA
BRANCH  23  24
HETATM   24  C   UNL     1      41.276 -14.503  -1.426  1.00  0.00     0.185 C 
BRANCH  24  25
HETATM   25  C   UNL     1      40.801 -14.937  -2.803  1.00  0.00     0.226 C 
HETATM   26  N   UNL     1      39.761 -15.845  -2.792  1.00  0.00    -0.365 N 
HETATM   27  C   UNL     1      39.136 -16.264  -4.019  1.00  0.00     0.149 C 
HETATM   28  H   UNL     1      39.192 -15.876  -1.945  1.00  0.00     0.161 HD
HETATM   29  O   UNL     1      41.315 -14.515  -3.837  1.00  0.00    -0.273 OA
ENDBRANCH  24  25
ENDBRANCH  23  24
ENDBRANCH   3  23
TORSDOF 9
ENDMDL
MODEL 2
REMARK VINA RESULT:      -7.9      3.094      6.776
REMARK  9 active torsions:
REMARK  status: ('A' for Active; 'I' for Inactive)
REMARK    1  A    between atoms: C_5  and  O_6 
REMARK    2  A    between atoms: O_6  and  C_7 
REMARK    3  A    between atoms: C_7  and  C_8 
REMARK    4  A    between atoms: N_9  and  C_10 
REMARK    5  A    between atoms: C_10  and  C_11 
REMARK    6  A    between atoms: C_11  and  C_12 
REMARK    7  A    between atoms: C_18  and  S_19 
REMARK    8  A    between atoms: S_19  and  C_20 
REMARK    9  A    between atoms: C_20  and  C_21 
REMARK       I    between atoms: C_21  and  N_22 
ROOT
HETATM    1  C   UNL     1      42.070 -14.434   2.652  1.00  0.00     0.155 A 
HETATM    2  N   UNL     1      41.863 -14.618   4.006  1.00  0.00    -0.309 N 
HETATM    3  C   UNL     1      42.788 -13.812   4.618  1.00  0.00     0.192 A 
HETATM    4  N   UNL     1      43.527 -13.215   3.715  1.00  0.00    -0.123 NA
HETATM    5  N   UNL     1      43.073 -13.593   2.485  1.00  0.00    -0.132 NA
ENDROOT
BRANCH   1   6
HETATM    6  C   UNL     1      41.340 -15.110   1.543  1.00  0.00     0.256 C 
BRANCH   6   7
HETATM    7  O   UNL     1      42.296 -15.802   0.746  1.00  0.00    -0.344 OA
BRANCH   7   8
HETATM    8  C   UNL     1      42.672 -17.042   1.185  1.00  0.00     0.069 A 
HETATM    9  C   UNL     1      44.043 -17.196   1.393  1.00  0.00     0.037 A 
HETATM   10  C   UNL     1      44.561 -18.407   1.857  1.00  0.00     0.009 A 
HETATM   11  C   UNL     1      43.711 -19.488   2.106  1.00  0.00    -0.062 A 
HETATM   12  C   UNL     1      44.246 -20.781   2.647  1.00  0.00     0.048 C 
HETATM   13  C   UNL     1      42.337 -19.333   1.893  1.00  0.00     0.009 A 
HETATM   14  C   UNL     1      41.819 -18.119   1.428  1.00  0.00     0.037 A 
ENDBRANCH   7   8
ENDBRANCH   6   7
ENDBRANCH   1   6
BRANCH   2  15
HETATM   15  C   UNL     1      40.871 -15.469   4.639  1.00  0.00     0.137 C 
BRANCH  15  16
HETATM   16  C   UNL     1      41.255 -16.949   4.620  1.00  0.00     0.059 C 
BRANCH  16  17
HETATM   17  C   UNL     1      42.338 -17.266   5.621  1.00  0.00    -0.057 A 
HETATM   18  C   UNL     1      42.103 -17.136   6.995  1.00  0.00     0.007 A 
HETATM   19  C   UNL     1      43.116 -17.425   7.913  1.00  0.00     0.001 A 
HETATM   20  C   UNL     1      44.369 -17.841   7.465  1.00  0.00     0.000 A 
HETATM   21  C   UNL     1      44.612 -17.967   6.099  1.00  0.00     0.001 A 
HETATM   22  C   UNL     1      43.604 -17.678   5.181  1.00  0.00     0.007 A 
ENDBRANCH  16  17
ENDBRANCH  15  16
ENDBRANCH   2  15
BRANCH   3  23
HETATM   23  S   UNL     1      42.948 -13.601   6.327  1.00  0.00    -0.081 SA
BRANCH  23  24
HETATM   24  C   UNL     1      44.698 -14.030   6.568  1.00  0.00     0.185 C 
BRANCH  24  25
HETATM   25  C   UNL     1      45.319 -13.178   7.663  1.00  0.00     0.226 C 
HETATM   26  N   UNL     1      44.481 -12.911   8.727  1.00  0.00    -0.365 N 
HETATM   27  C   UNL     1      44.964 -12.207   9.886  1.00  0.00     0.149 C 
HETATM   28  H   UNL     1      43.698 -13.553   8.863  1.00  0.00     0.161 HD
HETATM   29  O   UNL     1      46.472 -12.757   7.592  1.00  0.00    -0.273 OA
ENDBRANCH  24  25
ENDBRANCH  23  24
ENDBRANCH   3  23
TORSDOF 9
ENDMDL
MODEL 3
REMARK VINA RESULT:      -7.5      2.262      7.317
REMARK  9 active torsions:
REMARK  status: ('A' for Active; 'I' for Inactive)
REMARK    1  A    between atoms: C_5  and  O_6 
REMARK    2  A    between atoms: O_6  and  C_7 
REMARK    3  A    between atoms: C_7  and  C_8 
REMARK    4  A    between atoms: N_9  and  C_10 
REMARK    5  A    between atoms: C_10  and  C_11 
REMARK    6  A    between atoms: C_11  and  C_12 
REMARK    7  A    between atoms: C_18  and  S_19 
REMARK    8  A    between atoms: S_19  and  C_20 
REMARK    9  A    between atoms: C_20  and  C_21 
REMARK       I    between atoms: C_21  and  N_22 
ROOT
HETATM    1  C   UNL     1      41.593 -15.556   1.608  1.00  0.00     0.155 A 
HETATM    2  N   UNL     1      41.798 -16.332   2.733  1.00  0.00    -0.309 N 
HETATM    3  C   UNL     1      41.631 -15.474   3.789  1.00  0.00     0.192 A 
HETATM    4  N   UNL     1      41.384 -14.264   3.348  1.00  0.00    -0.123 NA
HETATM    5  N   UNL     1      41.349 -14.314   1.985  1.00  0.00    -0.132 NA
ENDROOT
BRANCH   1   6
HETATM    6  C   UNL     1      41.690 -16.004   0.190  1.00  0.00     0.256 C 
BRANCH   6   7
HETATM    7  O   UNL     1      41.600 -14.852  -0.642  1.00  0.00    -0.344 OA
BRANCH   7   8
HETATM    8  C   UNL     1      40.495 -14.765  -1.445  1.00  0.00     0.069 A 
HETATM    9  C   UNL     1      40.584 -15.481  -2.640  1.00  0.00     0.037 A 
HETATM   10  C   UNL     1      39.520 -15.493  -3.544  1.00  0.00     0.009 A 
HETATM   11  C   UNL     1      38.354 -14.774  -3.269  1.00  0.00    -0.062 A 
HETATM   12  C   UNL     1      37.185 -14.812  -4.208  1.00  0.00     0.048 C 
HETATM   13  C   UNL     1      38.268 -14.053  -2.072  1.00  0.00     0.009 A 
HETATM   14  C   UNL     1      39.335 -14.043  -1.167  1.00  0.00     0.037 A 
ENDBRANCH   7   8
ENDBRANCH   6   7
ENDBRANCH   1   6
BRANCH   2  15
HETATM   15  C   UNL     1      42.107 -17.749   2.781  1.00  0.00     0.137 C 
BRANCH  15  16
HETATM   16  C   UNL     1      43.602 -18.039   2.638  1.00  0.00     0.059 C 
BRANCH  16  17
HETATM   17  C   UNL     1      43.912 -19.506   2.793  1.00  0.00    -0.057 A 
HETATM   18  C   UNL     1      43.600 -20.416   1.776  1.00  0.00     0.007 A 
HETATM   19  C   UNL     1      43.885 -21.774   1.934  1.00  0.00     0.001 A 
HETATM   20  C   UNL     1      44.480 -22.233   3.108  1.00  0.00     0.000 A 
HETATM   21  C   UNL     1      44.789 -21.335   4.127  1.00  0.00     0.001 A 
HETATM   22  C   UNL     1      44.503 -19.979   3.973  1.00  0.00     0.007 A 
ENDBRANCH  16  17
ENDBRANCH  15  16
ENDBRANCH   2  15
BRANCH   3  23
HETATM   23  S   UNL     1      41.716 -15.922   5.457  1.00  0.00    -0.081 SA
BRANCH  23  24
HETATM   24  C   UNL     1      43.514 -15.935   5.721  1.00  0.00     0.185 C 
BRANCH  24  25
HETATM   25  C   UNL     1      44.009 -14.563   6.151  1.00  0.00     0.226 C 
HETATM   26  N   UNL     1      44.205 -14.423   7.510  1.00  0.00    -0.365 N 
HETATM   27  C   UNL     1      44.773 -13.217   8.052  1.00  0.00     0.149 C 
HETATM   28  H   UNL     1      44.345 -15.284   8.042  1.00  0.00     0.161 HD
HETATM   29  O   UNL     1      44.206 -13.655   5.346  1.00  0.00    -0.273 OA
ENDBRANCH  24  25
ENDBRANCH  23  24
ENDBRANCH   3  23
TORSDOF 9
ENDMDL
MODEL 4
REMARK VINA RESULT:      -7.3      3.970      6.571
REMARK  9 active torsions:
REMARK  status: ('A' for Active; 'I' for Inactive)
REMARK    1  A    between atoms: C_5  and  O_6 
REMARK    2  A    between atoms: O_6  and  C_7 
REMARK    3  A    between atoms: C_7  and  C_8 
REMARK    4  A    between atoms: N_9  and  C_10 
REMARK    5  A    between atoms: C_10  and  C_11 
REMARK    6  A    between atoms: C_11  and  C_12 
REMARK    7  A    between atoms: C_18  and  S_19 
REMARK    8  A    between atoms: S_19  and  C_20 
REMARK    9  A    between atoms: C_20  and  C_21 
REMARK       I    between atoms: C_21  and  N_22 
ROOT
HETATM    1  C   UNL     1      42.853 -16.984   6.906  1.00  0.00     0.155 A 
HETATM    2  N   UNL     1      42.836 -18.159   6.179  1.00  0.00    -0.309 N 
HETATM    3  C   UNL     1      43.568 -19.047   6.924  1.00  0.00     0.192 A 
HETATM    4  N   UNL     1      44.030 -18.454   7.999  1.00  0.00    -0.123 NA
HETATM    5  N   UNL     1      43.576 -17.168   7.996  1.00  0.00    -0.132 NA
ENDROOT
BRANCH   1   6
HETATM    6  C   UNL     1      42.226 -15.689   6.518  1.00  0.00     0.256 C 
BRANCH   6   7
HETATM    7  O   UNL     1      43.135 -14.998   5.668  1.00  0.00    -0.344 OA
BRANCH   7   8
HETATM    8  C   UNL     1      42.583 -14.271   4.648  1.00  0.00     0.069 A 
HETATM    9  C   UNL     1      41.232 -13.965   4.814  1.00  0.00     0.037 A 
HETATM   10  C   UNL     1      40.549 -13.212   3.857  1.00  0.00     0.009 A 
HETATM   11  C   UNL     1      41.209 -12.768   2.708  1.00  0.00    -0.062 A 
HETATM   12  C   UNL     1      40.502 -11.921   1.691  1.00  0.00     0.048 C 
HETATM   13  C   UNL     1      42.563 -13.080   2.540  1.00  0.00     0.009 A 
HETATM   14  C   UNL     1      43.246 -13.833   3.502  1.00  0.00     0.037 A 
ENDBRANCH   7   8
ENDBRANCH   6   7
ENDBRANCH   1   6
BRANCH   2  15
HETATM   15  C   UNL     1      42.172 -18.400   4.910  1.00  0.00     0.137 C 
BRANCH  15  16
HETATM   16  C   UNL     1      43.025 -17.999   3.705  1.00  0.00     0.059 C 
BRANCH  16  17
HETATM   17  C   UNL     1      42.222 -17.266   2.661  1.00  0.00    -0.057 A 
HETATM   18  C   UNL     1      42.818 -16.841   1.467  1.00  0.00     0.007 A 
HETATM   19  C   UNL     1      42.066 -16.155   0.510  1.00  0.00     0.001 A 
HETATM   20  C   UNL     1      40.717 -15.888   0.739  1.00  0.00     0.000 A 
HETATM   21  C   UNL     1      40.118 -16.303   1.926  1.00  0.00     0.001 A 
HETATM   22  C   UNL     1      40.867 -16.986   2.885  1.00  0.00     0.007 A 
ENDBRANCH  16  17
ENDBRANCH  15  16
ENDBRANCH   2  15
BRANCH   3  23
HETATM   23  S   UNL     1      43.831 -20.706   6.517  1.00  0.00    -0.081 SA
BRANCH  23  24
HETATM   24  C   UNL     1      44.975 -20.542   5.114  1.00  0.00     0.185 C 
BRANCH  24  25
HETATM   25  C   UNL     1      44.668 -21.573   4.040  1.00  0.00     0.226 C 
HETATM   26  N   UNL     1      44.419 -21.042   2.790  1.00  0.00    -0.365 N 
HETATM   27  C   UNL     1      44.219 -21.900   1.652  1.00  0.00     0.149 C 
HETATM   28  H   UNL     1      44.789 -20.107   2.609  1.00  0.00     0.161 HD
HETATM   29  O   UNL     1      44.636 -22.778   4.277  1.00  0.00    -0.273 OA
ENDBRANCH  24  25
ENDBRANCH  23  24
ENDBRANCH   3  23
TORSDOF 9
ENDMDL
MODEL 5
REMARK VINA RESULT:      -7.3      2.276      4.436
REMARK  9 active torsions:
REMARK  status: ('A' for Active; 'I' for Inactive)
REMARK    1  A    between atoms: C_5  and  O_6 
REMARK    2  A    between atoms: O_6  and  C_7 
REMARK    3  A    between atoms: C_7  and  C_8 
REMARK    4  A    between atoms: N_9  and  C_10 
REMARK    5  A    between atoms: C_10  and  C_11 
REMARK    6  A    between atoms: C_11  and  C_12 
REMARK    7  A    between atoms: C_18  and  S_19 
REMARK    8  A    between atoms: S_19  and  C_20 
REMARK    9  A    between atoms: C_20  and  C_21 
REMARK       I    between atoms: C_21  and  N_22 
ROOT
HETATM    1  C   UNL     1      41.453 -16.558   1.209  1.00  0.00     0.155 A 
HETATM    2  N   UNL     1      41.048 -15.318   1.666  1.00  0.00    -0.309 N 
HETATM    3  C   UNL     1      40.902 -14.555   0.537  1.00  0.00     0.192 A 
HETATM    4  N   UNL     1      41.229 -15.256  -0.522  1.00  0.00    -0.123 NA
HETATM    5  N   UNL     1      41.563 -16.512  -0.105  1.00  0.00    -0.132 NA
ENDROOT
BRANCH   1   6
HETATM    6  C   UNL     1      41.782 -17.748   2.044  1.00  0.00     0.256 C 
BRANCH   6   7
HETATM    7  O   UNL     1      43.197 -17.906   2.044  1.00  0.00    -0.344 OA
BRANCH   7   8
HETATM    8  C   UNL     1      43.687 -19.005   2.697  1.00  0.00     0.069 A 
HETATM    9  C   UNL     1      43.941 -18.811   4.055  1.00  0.00     0.037 A 
HETATM   10  C   UNL     1      44.427 -19.856   4.845  1.00  0.00     0.009 A 
HETATM   11  C   UNL     1      44.680 -21.108   4.279  1.00  0.00    -0.062 A 
HETATM   12  C   UNL     1      45.159 -22.252   5.122  1.00  0.00     0.048 C 
HETATM   13  C   UNL     1      44.428 -21.299   2.916  1.00  0.00     0.009 A 
HETATM   14  C   UNL     1      43.940 -20.252   2.126  1.00  0.00     0.037 A 
ENDBRANCH   7   8
ENDBRANCH   6   7
ENDBRANCH   1   6
BRANCH   2  15
HETATM   15  C   UNL     1      40.816 -14.919   3.043  1.00  0.00     0.137 C 
BRANCH  15  16
HETATM   16  C   UNL     1      42.105 -14.568   3.788  1.00  0.00     0.059 C 
BRANCH  16  17
HETATM   17  C   UNL     1      42.318 -15.446   4.996  1.00  0.00    -0.057 A 
HETATM   18  C   UNL     1      41.302 -16.297   5.451  1.00  0.00     0.007 A 
HETATM   19  C   UNL     1      41.508 -17.100   6.575  1.00  0.00     0.001 A 
HETATM   20  C   UNL     1      42.726 -17.057   7.253  1.00  0.00     0.000 A 
HETATM   21  C   UNL     1      43.739 -16.210   6.809  1.00  0.00     0.001 A 
HETATM   22  C   UNL     1      43.535 -15.405   5.688  1.00  0.00     0.007 A 
ENDBRANCH  16  17
ENDBRANCH  15  16
ENDBRANCH   2  15
BRANCH   3  23
HETATM   23  S   UNL     1      40.353 -12.916   0.508  1.00  0.00    -0.081 SA
BRANCH  23  24
HETATM   24  C   UNL     1      41.920 -12.021   0.726  1.00  0.00     0.185 C 
BRANCH  24  25
HETATM   25  C   UNL     1      42.547 -11.689  -0.619  1.00  0.00     0.226 C 
HETATM   26  N   UNL     1      41.936 -12.292  -1.701  1.00  0.00    -0.365 N 
HETATM   27  C   UNL     1      42.351 -11.986  -3.045  1.00  0.00     0.149 C 
HETATM   28  H   UNL     1      40.970 -12.595  -1.569  1.00  0.00     0.161 HD
HETATM   29  O   UNL     1      43.523 -10.950  -0.724  1.00  0.00    -0.273 OA
ENDBRANCH  24  25
ENDBRANCH  23  24
ENDBRANCH   3  23
TORSDOF 9
ENDMDL
MODEL 6
REMARK VINA RESULT:      -7.3      2.076      4.260
REMARK  9 active torsions:
REMARK  status: ('A' for Active; 'I' for Inactive)
REMARK    1  A    between atoms: C_5  and  O_6 
REMARK    2  A    between atoms: O_6  and  C_7 
REMARK    3  A    between atoms: C_7  and  C_8 
REMARK    4  A    between atoms: N_9  and  C_10 
REMARK    5  A    between atoms: C_10  and  C_11 
REMARK    6  A    between atoms: C_11  and  C_12 
REMARK    7  A    between atoms: C_18  and  S_19 
REMARK    8  A    between atoms: S_19  and  C_20 
REMARK    9  A    between atoms: C_20  and  C_21 
REMARK       I    between atoms: C_21  and  N_22 
ROOT
HETATM    1  C   UNL     1      41.226 -16.556   0.958  1.00  0.00     0.155 A 
HETATM    2  N   UNL     1      40.702 -15.382   1.465  1.00  0.00    -0.309 N 
HETATM    3  C   UNL     1      40.572 -14.555   0.380  1.00  0.00     0.192 A 
HETATM    4  N   UNL     1      41.016 -15.158  -0.697  1.00  0.00    -0.123 NA
HETATM    5  N   UNL     1      41.415 -16.413  -0.340  1.00  0.00    -0.132 NA
ENDROOT
BRANCH   1   6
HETATM    6  C   UNL     1      41.588 -17.775   1.735  1.00  0.00     0.256 C 
BRANCH   6   7
HETATM    7  O   UNL     1      42.967 -17.684   2.077  1.00  0.00    -0.344 OA
BRANCH   7   8
HETATM    8  C   UNL     1      43.514 -18.774   2.698  1.00  0.00     0.069 A 
HETATM    9  C   UNL     1      43.773 -18.601   4.059  1.00  0.00     0.037 A 
HETATM   10  C   UNL     1      44.315 -19.641   4.818  1.00  0.00     0.009 A 
HETATM   11  C   UNL     1      44.620 -20.866   4.219  1.00  0.00    -0.062 A 
HETATM   12  C   UNL     1      45.161 -22.007   5.030  1.00  0.00     0.048 C 
HETATM   13  C   UNL     1      44.363 -21.036   2.854  1.00  0.00     0.009 A 
HETATM   14  C   UNL     1      43.819 -19.994   2.095  1.00  0.00     0.037 A 
ENDBRANCH   7   8
ENDBRANCH   6   7
ENDBRANCH   1   6
BRANCH   2  15
HETATM   15  C   UNL     1      40.354 -15.096   2.845  1.00  0.00     0.137 C 
BRANCH  15  16
HETATM   16  C   UNL     1      41.504 -14.467   3.633  1.00  0.00     0.059 C 
BRANCH  16  17
HETATM   17  C   UNL     1      41.874 -15.283   4.845  1.00  0.00    -0.057 A 
HETATM   18  C   UNL     1      43.110 -15.104   5.480  1.00  0.00     0.007 A 
HETATM   19  C   UNL     1      43.445 -15.872   6.597  1.00  0.00     0.001 A 
HETATM   20  C   UNL     1      42.552 -16.824   7.087  1.00  0.00     0.000 A 
HETATM   21  C   UNL     1      41.323 -17.012   6.458  1.00  0.00     0.001 A 
HETATM   22  C   UNL     1      40.986 -16.248   5.341  1.00  0.00     0.007 A 
ENDBRANCH  16  17
ENDBRANCH  15  16
ENDBRANCH   2  15
BRANCH   3  23
HETATM   23  S   UNL     1      39.906 -12.960   0.419  1.00  0.00    -0.081 SA
BRANCH  23  24
HETATM   24  C   UNL     1      38.177 -13.295  -0.031  1.00  0.00     0.185 C 
BRANCH  24  25
HETATM   25  C   UNL     1      38.022 -13.412  -1.539  1.00  0.00     0.226 C 
HETATM   26  N   UNL     1      37.935 -14.707  -2.008  1.00  0.00    -0.365 N 
HETATM   27  C   UNL     1      37.678 -14.971  -3.400  1.00  0.00     0.149 C 
HETATM   28  H   UNL     1      37.636 -15.416  -1.337  1.00  0.00     0.161 HD
HETATM   29  O   UNL     1      37.988 -12.427  -2.274  1.00  0.00    -0.273 OA
ENDBRANCH  24  25
ENDBRANCH  23  24
ENDBRANCH   3  23
TORSDOF 9
ENDMDL
MODEL 7
REMARK VINA RESULT:      -7.3      3.070      6.261
REMARK  9 active torsions:
REMARK  status: ('A' for Active; 'I' for Inactive)
REMARK    1  A    between atoms: C_5  and  O_6 
REMARK    2  A    between atoms: O_6  and  C_7 
REMARK    3  A    between atoms: C_7  and  C_8 
REMARK    4  A    between atoms: N_9  and  C_10 
REMARK    5  A    between atoms: C_10  and  C_11 
REMARK    6  A    between atoms: C_11  and  C_12 
REMARK    7  A    between atoms: C_18  and  S_19 
REMARK    8  A    between atoms: S_19  and  C_20 
REMARK    9  A    between atoms: C_20  and  C_21 
REMARK       I    between atoms: C_21  and  N_22 
ROOT
HETATM    1  C   UNL     1      39.761 -14.363   3.098  1.00  0.00     0.155 A 
HETATM    2  N   UNL     1      40.084 -14.289   4.439  1.00  0.00    -0.309 N 
HETATM    3  C   UNL     1      39.730 -13.020   4.819  1.00  0.00     0.192 A 
HETATM    4  N   UNL     1      39.267 -12.357   3.787  1.00  0.00    -0.123 NA
HETATM    5  N   UNL     1      39.274 -13.198   2.712  1.00  0.00    -0.132 NA
ENDROOT
BRANCH   1   6
HETATM    6  C   UNL     1      39.976 -15.529   2.195  1.00  0.00     0.256 C 
BRANCH   6   7
HETATM    7  O   UNL     1      41.284 -15.420   1.641  1.00  0.00    -0.344 OA
BRANCH   7   8
HETATM    8  C   UNL     1      42.127 -16.475   1.858  1.00  0.00     0.069 A 
HETATM    9  C   UNL     1      41.513 -17.728   1.831  1.00  0.00     0.037 A 
HETATM   10  C   UNL     1      42.261 -18.893   2.019  1.00  0.00     0.009 A 
HETATM   11  C   UNL     1      43.636 -18.816   2.254  1.00  0.00    -0.062 A 
HETATM   12  C   UNL     1      44.461 -20.059   2.414  1.00  0.00     0.048 C 
HETATM   13  C   UNL     1      44.250 -17.559   2.285  1.00  0.00     0.009 A 
HETATM   14  C   UNL     1      43.499 -16.394   2.095  1.00  0.00     0.037 A 
ENDBRANCH   7   8
ENDBRANCH   6   7
ENDBRANCH   1   6
BRANCH   2  15
HETATM   15  C   UNL     1      40.658 -15.336   5.266  1.00  0.00     0.137 C 
BRANCH  15  16
HETATM   16  C   UNL     1      42.160 -15.158   5.496  1.00  0.00     0.059 C 
BRANCH  16  17
HETATM   17  C   UNL     1      42.856 -16.474   5.734  1.00  0.00    -0.057 A 
HETATM   18  C   UNL     1      44.183 -16.512   6.181  1.00  0.00     0.007 A 
HETATM   19  C   UNL     1      44.820 -17.736   6.391  1.00  0.00     0.001 A 
HETATM   20  C   UNL     1      44.140 -18.930   6.155  1.00  0.00     0.000 A 
HETATM   21  C   UNL     1      42.822 -18.901   5.706  1.00  0.00     0.001 A 
HETATM   22  C   UNL     1      42.183 -17.679   5.493  1.00  0.00     0.007 A 
ENDBRANCH  16  17
ENDBRANCH  15  16
ENDBRANCH   2  15
BRANCH   3  23
HETATM   23  S   UNL     1      39.860 -12.390   6.424  1.00  0.00    -0.081 SA
BRANCH  23  24
HETATM   24  C   UNL     1      40.323 -10.666   6.083  1.00  0.00     0.185 C 
BRANCH  24  25
HETATM   25  C   UNL     1      41.399 -10.192   7.048  1.00  0.00     0.226 C 
HETATM   26  N   UNL     1      41.692 -11.082   8.061  1.00  0.00    -0.365 N 
HETATM   27  C   UNL     1      42.764 -10.817   8.985  1.00  0.00     0.149 C 
HETATM   28  H   UNL     1      41.453 -12.060   7.893  1.00  0.00     0.161 HD
HETATM   29  O   UNL     1      41.949  -9.099   6.931  1.00  0.00    -0.273 OA
ENDBRANCH  24  25
ENDBRANCH  23  24
ENDBRANCH   3  23
TORSDOF 9
ENDMDL
MODEL 8
REMARK VINA RESULT:      -7.2      2.423      5.276
REMARK  9 active torsions:
REMARK  status: ('A' for Active; 'I' for Inactive)
REMARK    1  A    between atoms: C_5  and  O_6 
REMARK    2  A    between atoms: O_6  and  C_7 
REMARK    3  A    between atoms: C_7  and  C_8 
REMARK    4  A    between atoms: N_9  and  C_10 
REMARK    5  A    between atoms: C_10  and  C_11 
REMARK    6  A    between atoms: C_11  and  C_12 
REMARK    7  A    between atoms: C_18  and  S_19 
REMARK    8  A    between atoms: S_19  and  C_20 
REMARK    9  A    between atoms: C_20  and  C_21 
REMARK       I    between atoms: C_21  and  N_22 
ROOT
HETATM    1  C   UNL     1      41.694 -16.435   1.110  1.00  0.00     0.155 A 
HETATM    2  N   UNL     1      42.091 -15.220   1.635  1.00  0.00    -0.309 N 
HETATM    3  C   UNL     1      41.748 -14.295   0.683  1.00  0.00     0.192 A 
HETATM    4  N   UNL     1      41.222 -14.896  -0.356  1.00  0.00    -0.123 NA
HETATM    5  N   UNL     1      41.177 -16.233  -0.087  1.00  0.00    -0.132 NA
ENDROOT
BRANCH   1   6
HETATM    6  C   UNL     1      41.868 -17.774   1.741  1.00  0.00     0.256 C 
BRANCH   6   7
HETATM    7  O   UNL     1      43.203 -18.204   1.496  1.00  0.00    -0.344 OA
BRANCH   7   8
HETATM    8  C   UNL     1      43.675 -19.210   2.294  1.00  0.00     0.069 A 
HETATM    9  C   UNL     1      43.950 -18.831   3.609  1.00  0.00     0.037 A 
HETATM   10  C   UNL     1      44.421 -19.764   4.535  1.00  0.00     0.009 A 
HETATM   11  C   UNL     1      44.639 -21.090   4.152  1.00  0.00    -0.062 A 
HETATM   12  C   UNL     1      45.102 -22.114   5.145  1.00  0.00     0.048 C 
HETATM   13  C   UNL     1      44.367 -21.467   2.832  1.00  0.00     0.009 A 
HETATM   14  C   UNL     1      43.894 -20.532   1.905  1.00  0.00     0.037 A 
ENDBRANCH   7   8
ENDBRANCH   6   7
ENDBRANCH   1   6
BRANCH   2  15
HETATM   15  C   UNL     1      42.719 -14.978   2.922  1.00  0.00     0.137 C 
BRANCH  15  16
HETATM   16  C   UNL     1      41.739 -15.076   4.092  1.00  0.00     0.059 C 
BRANCH  16  17
HETATM   17  C   UNL     1      42.372 -15.698   5.311  1.00  0.00    -0.057 A 
HETATM   18  C   UNL     1      43.565 -15.186   5.839  1.00  0.00     0.007 A 
HETATM   19  C   UNL     1      44.146 -15.774   6.964  1.00  0.00     0.001 A 
HETATM   20  C   UNL     1      43.545 -16.878   7.567  1.00  0.00     0.000 A 
HETATM   21  C   UNL     1      42.362 -17.396   7.046  1.00  0.00     0.001 A 
HETATM   22  C   UNL     1      41.780 -16.812   5.921  1.00  0.00     0.007 A 
ENDBRANCH  16  17
ENDBRANCH  15  16
ENDBRANCH   2  15
BRANCH   3  23
HETATM   23  S   UNL     1      41.962 -12.586   0.835  1.00  0.00    -0.081 SA
BRANCH  23  24
HETATM   24  C   UNL     1      40.310 -12.077   1.397  1.00  0.00     0.185 C 
BRANCH  24  25
HETATM   25  C   UNL     1      40.259 -11.977   2.913  1.00  0.00     0.226 C 
HETATM   26  N   UNL     1      41.375 -11.401   3.487  1.00  0.00    -0.365 N 
HETATM   27  C   UNL     1      41.423 -11.141   4.902  1.00  0.00     0.149 C 
HETATM   28  H   UNL     1      41.941 -10.802   2.884  1.00  0.00     0.161 HD
HETATM   29  O   UNL     1      39.302 -12.387   3.566  1.00  0.00    -0.273 OA
ENDBRANCH  24  25
ENDBRANCH  23  24
ENDBRANCH   3  23
TORSDOF 9
ENDMDL
MODEL 9
REMARK VINA RESULT:      -7.2      2.057      2.576
REMARK  9 active torsions:
REMARK  status: ('A' for Active; 'I' for Inactive)
REMARK    1  A    between atoms: C_5  and  O_6 
REMARK    2  A    between atoms: O_6  and  C_7 
REMARK    3  A    between atoms: C_7  and  C_8 
REMARK    4  A    between atoms: N_9  and  C_10 
REMARK    5  A    between atoms: C_10  and  C_11 
REMARK    6  A    between atoms: C_11  and  C_12 
REMARK    7  A    between atoms: C_18  and  S_19 
REMARK    8  A    between atoms: S_19  and  C_20 
REMARK    9  A    between atoms: C_20  and  C_21 
REMARK       I    between atoms: C_21  and  N_22 
ROOT
HETATM    1  C   UNL     1      40.772 -13.524   2.788  1.00  0.00     0.155 A 
HETATM    2  N   UNL     1      39.875 -14.330   2.113  1.00  0.00    -0.309 N 
HETATM    3  C   UNL     1      38.913 -13.474   1.644  1.00  0.00     0.192 A 
HETATM    4  N   UNL     1      39.176 -12.249   2.034  1.00  0.00    -0.123 NA
HETATM    5  N   UNL     1      40.343 -12.276   2.740  1.00  0.00    -0.132 NA
ENDROOT
BRANCH   1   6
HETATM    6  C   UNL     1      41.993 -13.970   3.516  1.00  0.00     0.256 C 
BRANCH   6   7
HETATM    7  O   UNL     1      41.578 -14.609   4.719  1.00  0.00    -0.344 OA
BRANCH   7   8
HETATM    8  C   UNL     1      42.206 -15.784   5.033  1.00  0.00     0.069 A 
HETATM    9  C   UNL     1      41.381 -16.910   5.010  1.00  0.00     0.037 A 
HETATM   10  C   UNL     1      41.897 -18.177   5.294  1.00  0.00     0.009 A 
HETATM   11  C   UNL     1      43.247 -18.331   5.619  1.00  0.00    -0.062 A 
HETATM   12  C   UNL     1      43.827 -19.689   5.882  1.00  0.00     0.048 C 
HETATM   13  C   UNL     1      44.072 -17.200   5.645  1.00  0.00     0.009 A 
HETATM   14  C   UNL     1      43.553 -15.932   5.360  1.00  0.00     0.037 A 
ENDBRANCH   7   8
ENDBRANCH   6   7
ENDBRANCH   1   6
BRANCH   2  15
HETATM   15  C   UNL     1      39.948 -15.769   1.930  1.00  0.00     0.137 C 
BRANCH  15  16
HETATM   16  C   UNL     1      40.869 -16.178   0.779  1.00  0.00     0.059 C 
BRANCH  16  17
HETATM   17  C   UNL     1      41.996 -17.064   1.244  1.00  0.00    -0.057 A 
HETATM   18  C   UNL     1      41.767 -18.410   1.558  1.00  0.00     0.007 A 
HETATM   19  C   UNL     1      42.818 -19.220   1.995  1.00  0.00     0.001 A 
HETATM   20  C   UNL     1      44.101 -18.693   2.125  1.00  0.00     0.000 A 
HETATM   21  C   UNL     1      44.337 -17.354   1.820  1.00  0.00     0.001 A 
HETATM   22  C   UNL     1      43.289 -16.542   1.385  1.00  0.00     0.007 A 
ENDBRANCH  16  17
ENDBRANCH  15  16
ENDBRANCH   2  15
BRANCH   3  23
HETATM   23  S   UNL     1      37.561 -13.934   0.670  1.00  0.00    -0.081 SA
BRANCH  23  24
HETATM   24  C   UNL     1      37.967 -13.110  -0.899  1.00  0.00     0.185 C 
BRANCH  24  25
HETATM   25  C   UNL     1      39.341 -13.532  -1.394  1.00  0.00     0.226 C 
HETATM   26  N   UNL     1      40.367 -12.681  -1.034  1.00  0.00    -0.365 N 
HETATM   27  C   UNL     1      41.735 -13.008  -1.338  1.00  0.00     0.149 C 
HETATM   28  H   UNL     1      40.200 -12.082  -0.223  1.00  0.00     0.161 HD
HETATM   29  O   UNL     1      39.513 -14.546  -2.067  1.00  0.00    -0.273 OA
ENDBRANCH  24  25
ENDBRANCH  23  24
ENDBRANCH   3  23
TORSDOF 9
ENDMDL
MODEL 10
REMARK VINA RESULT:      -7.2      2.145      2.967
REMARK  9 active torsions:
REMARK  status: ('A' for Active; 'I' for Inactive)
REMARK    1  A    between atoms: C_5  and  O_6 
REMARK    2  A    between atoms: O_6  and  C_7 
REMARK    3  A    between atoms: C_7  and  C_8 
REMARK    4  A    between atoms: N_9  and  C_10 
REMARK    5  A    between atoms: C_10  and  C_11 
REMARK    6  A    between atoms: C_11  and  C_12 
REMARK    7  A    between atoms: C_18  and  S_19 
REMARK    8  A    between atoms: S_19  and  C_20 
REMARK    9  A    between atoms: C_20  and  C_21 
REMARK       I    between atoms: C_21  and  N_22 
ROOT
HETATM    1  C   UNL     1      39.108 -14.338   1.126  1.00  0.00     0.155 A 
HETATM    2  N   UNL     1      40.044 -14.421   0.113  1.00  0.00    -0.309 N 
HETATM    3  C   UNL     1      39.419 -13.899  -0.990  1.00  0.00     0.192 A 
HETATM    4  N   UNL     1      38.188 -13.562  -0.688  1.00  0.00    -0.123 NA
HETATM    5  N   UNL     1      37.995 -13.825   0.636  1.00  0.00    -0.132 NA
ENDROOT
BRANCH   1   6
HETATM    6  C   UNL     1      39.277 -14.804   2.531  1.00  0.00     0.256 C 
BRANCH   6   7
HETATM    7  O   UNL     1      40.081 -13.849   3.217  1.00  0.00    -0.344 OA
BRANCH   7   8
HETATM    8  C   UNL     1      41.094 -14.348   3.989  1.00  0.00     0.069 A 
HETATM    9  C   UNL     1      40.674 -15.055   5.118  1.00  0.00     0.037 A 
HETATM   10  C   UNL     1      41.605 -15.633   5.983  1.00  0.00     0.009 A 
HETATM   11  C   UNL     1      42.974 -15.497   5.738  1.00  0.00    -0.062 A 
HETATM   12  C   UNL     1      43.985 -16.150   6.634  1.00  0.00     0.048 C 
HETATM   13  C   UNL     1      43.394 -14.785   4.609  1.00  0.00     0.009 A 
HETATM   14  C   UNL     1      42.460 -14.208   3.742  1.00  0.00     0.037 A 
ENDBRANCH   7   8
ENDBRANCH   6   7
ENDBRANCH   1   6
BRANCH   2  15
HETATM   15  C   UNL     1      41.399 -14.934   0.205  1.00  0.00     0.137 C 
BRANCH  15  16
HETATM   16  C   UNL     1      41.477 -16.449   0.010  1.00  0.00     0.059 C 
BRANCH  16  17
HETATM   17  C   UNL     1      42.239 -17.125   1.122  1.00  0.00    -0.057 A 
HETATM   18  C   UNL     1      43.610 -17.382   0.999  1.00  0.00     0.007 A 
HETATM   19  C   UNL     1      44.304 -18.015   2.032  1.00  0.00     0.001 A 
HETATM   20  C   UNL     1      43.635 -18.398   3.193  1.00  0.00     0.000 A 
HETATM   21  C   UNL     1      42.270 -18.151   3.322  1.00  0.00     0.001 A 
HETATM   22  C   UNL     1      41.574 -17.521   2.291  1.00  0.00     0.007 A 
ENDBRANCH  16  17
ENDBRANCH  15  16
ENDBRANCH   2  15
BRANCH   3  23
HETATM   23  S   UNL     1      40.148 -13.700  -2.545  1.00  0.00    -0.081 SA
BRANCH  23  24
HETATM   24  C   UNL     1      39.298 -14.994  -3.496  1.00  0.00     0.185 C 
BRANCH  24  25
HETATM   25  C   UNL     1      37.877 -14.573  -3.837  1.00  0.00     0.226 C 
HETATM   26  N   UNL     1      37.699 -13.210  -3.967  1.00  0.00    -0.365 N 
HETATM   27  C   UNL     1      36.434 -12.670  -4.393  1.00  0.00     0.149 C 
HETATM   28  H   UNL     1      38.534 -12.658  -4.172  1.00  0.00     0.161 HD
HETATM   29  O   UNL     1      36.966 -15.386  -3.973  1.00  0.00    -0.273 OA
ENDBRANCH  24  25
ENDBRANCH  23  24
ENDBRANCH   3  23
TORSDOF 9
ENDMDL
