MODEL 1
REMARK VINA RESULT:      -8.6      0.000      0.000
REMARK  3 active torsions:
REMARK  status: ('A' for Active; 'I' for Inactive)
REMARK    1  A    between atoms: C_6  and  N_7 
REMARK       I    between atoms: N_7  and  C_8 
REMARK    2  A    between atoms: C_8  and  C_9 
REMARK    3  A    between atoms: C_9  and  C_10 
ROOT
HETATM    1  C   UNL     1      41.423 -14.591   4.077  1.00  0.00     0.286 C 
HETATM    2  N   UNL     1      40.226 -15.441   3.627  1.00  0.00    -0.056 N 
HETATM    3  H   UNL     1      40.444 -16.426   3.890  1.00  0.00     0.278 HD
HETATM    4  H   UNL     1      39.389 -15.203   4.174  1.00  0.00     0.278 HD
HETATM    5  C   UNL     1      39.930 -15.460   2.157  1.00  0.00     0.209 C 
HETATM    6  C   UNL     1      41.233 -15.718   1.367  1.00  0.00     0.115 C 
HETATM    7  N   UNL     1      42.294 -14.789   1.741  1.00  0.00    -0.353 N 
HETATM    8  C   UNL     1      42.551 -14.431   3.036  1.00  0.00     0.249 C 
HETATM    9  O   UNL     1      43.638 -13.944   3.336  1.00  0.00    -0.271 OA
HETATM   10  C   UNL     1      39.231 -14.166   1.744  1.00  0.00     0.035 C 
HETATM   11  C   UNL     1      38.972 -14.154   0.238  1.00  0.00     0.002 C 
HETATM   12  C   UNL     1      40.255 -14.378  -0.561  1.00  0.00     0.002 C 
HETATM   13  C   UNL     1      40.972 -15.662  -0.141  1.00  0.00     0.027 C 
HETATM   14  H   UNL     1      43.118 -14.728   1.146  1.00  0.00     0.163 HD
ENDROOT
BRANCH   1  15
HETATM   15  C   UNL     1      42.024 -15.166   5.372  1.00  0.00     0.146 C 
BRANCH  15  16
HETATM   16  C   UNL     1      42.229 -16.644   5.129  1.00  0.00     0.224 C 
HETATM   17  N   UNL     1      43.425 -16.985   4.557  1.00  0.00    -0.327 N 
HETATM   18  H   UNL     1      44.175 -16.299   4.551  1.00  0.00     0.169 HD
HETATM   19  O   UNL     1      41.265 -17.382   5.349  1.00  0.00    -0.273 OA
BRANCH  17  20
HETATM   20  C   UNL     1      43.727 -18.204   3.907  1.00  0.00     0.035 A 
HETATM   21  C   UNL     1      44.299 -19.307   4.548  1.00  0.00     0.037 A 
HETATM   22  C   UNL     1      44.497 -20.526   3.872  1.00  0.00    -0.054 A 
HETATM   23  C   UNL     1      44.158 -20.624   2.511  1.00  0.00    -0.056 A 
HETATM   24  C   UNL     1      45.092 -21.688   4.621  1.00  0.00     0.049 C 
HETATM   25  C   UNL     1      44.346 -21.901   1.739  1.00  0.00     0.049 C 
HETATM   26  C   UNL     1      43.588 -19.515   1.871  1.00  0.00     0.009 A 
HETATM   27  C   UNL     1      43.370 -18.320   2.562  1.00  0.00     0.030 A 
ENDBRANCH  17  20
ENDBRANCH  15  16
ENDBRANCH   1  15
TORSDOF 3
ENDMDL
MODEL 2
REMARK VINA RESULT:      -8.2      1.890      3.118
REMARK  3 active torsions:
REMARK  status: ('A' for Active; 'I' for Inactive)
REMARK    1  A    between atoms: C_6  and  N_7 
REMARK       I    between atoms: N_7  and  C_8 
REMARK    2  A    between atoms: C_8  and  C_9 
REMARK    3  A    between atoms: C_9  and  C_10 
ROOT
HETATM    1  C   UNL     1      41.246 -15.495   1.010  1.00  0.00     0.286 C 
HETATM    2  N   UNL     1      42.047 -14.987  -0.196  1.00  0.00    -0.056 N 
HETATM    3  H   UNL     1      42.490 -14.089   0.097  1.00  0.00     0.278 HD
HETATM    4  H   UNL     1      42.835 -15.614  -0.396  1.00  0.00     0.278 HD
HETATM    5  C   UNL     1      41.267 -14.677  -1.440  1.00  0.00     0.209 C 
HETATM    6  C   UNL     1      40.034 -13.817  -1.079  1.00  0.00     0.115 C 
HETATM    7  N   UNL     1      39.235 -14.423  -0.020  1.00  0.00    -0.353 N 
HETATM    8  C   UNL     1      39.784 -15.007   1.089  1.00  0.00     0.249 C 
HETATM    9  O   UNL     1      39.101 -15.181   2.094  1.00  0.00    -0.271 OA
HETATM   10  C   UNL     1      40.900 -15.970  -2.166  1.00  0.00     0.035 C 
HETATM   11  C   UNL     1      40.060 -15.667  -3.406  1.00  0.00     0.002 C 
HETATM   12  C   UNL     1      38.820 -14.842  -3.065  1.00  0.00     0.002 C 
HETATM   13  C   UNL     1      39.177 -13.555  -2.321  1.00  0.00     0.027 C 
HETATM   14  H   UNL     1      38.300 -14.058   0.151  1.00  0.00     0.163 HD
ENDROOT
BRANCH   1  15
HETATM   15  C   UNL     1      41.963 -15.121   2.319  1.00  0.00     0.146 C 
BRANCH  15  16
HETATM   16  C   UNL     1      42.168 -16.410   3.079  1.00  0.00     0.224 C 
HETATM   17  N   UNL     1      43.370 -17.032   2.869  1.00  0.00    -0.327 N 
HETATM   18  H   UNL     1      44.120 -16.505   2.431  1.00  0.00     0.169 HD
HETATM   19  O   UNL     1      41.201 -16.842   3.712  1.00  0.00    -0.273 OA
BRANCH  17  20
HETATM   20  C   UNL     1      43.676 -18.383   3.152  1.00  0.00     0.035 A 
HETATM   21  C   UNL     1      43.630 -19.407   2.202  1.00  0.00     0.037 A 
HETATM   22  C   UNL     1      44.029 -20.719   2.517  1.00  0.00    -0.054 A 
HETATM   23  C   UNL     1      44.438 -21.020   3.829  1.00  0.00    -0.056 A 
HETATM   24  C   UNL     1      43.983 -21.775   1.445  1.00  0.00     0.049 C 
HETATM   25  C   UNL     1      44.878 -22.403   4.222  1.00  0.00     0.049 C 
HETATM   26  C   UNL     1      44.481 -19.991   4.780  1.00  0.00     0.009 A 
HETATM   27  C   UNL     1      44.109 -18.686   4.445  1.00  0.00     0.030 A 
ENDBRANCH  17  20
ENDBRANCH  15  16
ENDBRANCH   1  15
TORSDOF 3
ENDMDL
MODEL 3
REMARK VINA RESULT:      -8.1      1.880      3.828
REMARK  3 active torsions:
REMARK  status: ('A' for Active; 'I' for Inactive)
REMARK    1  A    between atoms: C_6  and  N_7 
REMARK       I    between atoms: N_7  and  C_8 
REMARK    2  A    between atoms: C_8  and  C_9 
REMARK    3  A    between atoms: C_9  and  C_10 
ROOT
HETATM    1  C   UNL     1      41.918 -15.382   1.723  1.00  0.00     0.286 C 
HETATM    2  N   UNL     1      43.026 -15.416   2.784  1.00  0.00    -0.056 N 
HETATM    3  H   UNL     1      43.381 -16.397   2.814  1.00  0.00     0.278 HD
HETATM    4  H   UNL     1      43.832 -14.855   2.482  1.00  0.00     0.278 HD
HETATM    5  C   UNL     1      42.623 -15.079   4.189  1.00  0.00     0.209 C 
HETATM    6  C   UNL     1      41.348 -15.866   4.568  1.00  0.00     0.115 C 
HETATM    7  N   UNL     1      40.281 -15.683   3.590  1.00  0.00    -0.353 N 
HETATM    8  C   UNL     1      40.497 -15.690   2.239  1.00  0.00     0.249 C 
HETATM    9  O   UNL     1      39.560 -15.885   1.469  1.00  0.00    -0.271 OA
HETATM   10  C   UNL     1      42.457 -13.568   4.340  1.00  0.00     0.035 C 
HETATM   11  C   UNL     1      41.996 -13.218   5.755  1.00  0.00     0.002 C 
HETATM   12  C   UNL     1      40.718 -13.965   6.136  1.00  0.00     0.002 C 
HETATM   13  C   UNL     1      40.870 -15.478   5.970  1.00  0.00     0.027 C 
HETATM   14  H   UNL     1      39.339 -15.978   3.840  1.00  0.00     0.163 HD
ENDROOT
BRANCH   1  15
HETATM   15  C   UNL     1      42.250 -16.355   0.579  1.00  0.00     0.146 C 
BRANCH  15  16
HETATM   16  C   UNL     1      43.253 -17.340   1.132  1.00  0.00     0.224 C 
HETATM   17  N   UNL     1      42.719 -18.461   1.711  1.00  0.00    -0.327 N 
HETATM   18  H   UNL     1      41.743 -18.683   1.532  1.00  0.00     0.169 HD
HETATM   19  O   UNL     1      44.436 -16.993   1.124  1.00  0.00    -0.273 OA
BRANCH  17  20
HETATM   20  C   UNL     1      43.378 -19.341   2.600  1.00  0.00     0.035 A 
HETATM   21  C   UNL     1      43.582 -19.069   3.956  1.00  0.00     0.037 A 
HETATM   22  C   UNL     1      44.166 -20.019   4.814  1.00  0.00    -0.054 A 
HETATM   23  C   UNL     1      44.599 -21.250   4.289  1.00  0.00    -0.056 A 
HETATM   24  C   UNL     1      44.337 -19.681   6.271  1.00  0.00     0.049 C 
HETATM   25  C   UNL     1      45.228 -22.303   5.160  1.00  0.00     0.049 C 
HETATM   26  C   UNL     1      44.395 -21.518   2.929  1.00  0.00     0.009 A 
HETATM   27  C   UNL     1      43.787 -20.577   2.094  1.00  0.00     0.030 A 
ENDBRANCH  17  20
ENDBRANCH  15  16
ENDBRANCH   1  15
TORSDOF 3
ENDMDL
MODEL 4
REMARK VINA RESULT:      -7.9      2.036      3.008
REMARK  3 active torsions:
REMARK  status: ('A' for Active; 'I' for Inactive)
REMARK    1  A    between atoms: C_6  and  N_7 
REMARK       I    between atoms: N_7  and  C_8 
REMARK    2  A    between atoms: C_8  and  C_9 
REMARK    3  A    between atoms: C_9  and  C_10 
ROOT
HETATM    1  C   UNL     1      40.962 -15.218   0.945  1.00  0.00     0.286 C 
HETATM    2  N   UNL     1      41.742 -14.533  -0.185  1.00  0.00    -0.056 N 
HETATM    3  H   UNL     1      42.031 -13.598   0.175  1.00  0.00     0.278 HD
HETATM    4  H   UNL     1      42.624 -15.028  -0.365  1.00  0.00     0.278 HD
HETATM    5  C   UNL     1      40.992 -14.273  -1.458  1.00  0.00     0.209 C 
HETATM    6  C   UNL     1      39.628 -13.624  -1.135  1.00  0.00     0.115 C 
HETATM    7  N   UNL     1      38.872 -14.396  -0.155  1.00  0.00    -0.353 N 
HETATM    8  C   UNL     1      39.442 -14.953   0.957  1.00  0.00     0.249 C 
HETATM    9  O   UNL     1      38.739 -15.279   1.910  1.00  0.00    -0.271 OA
HETATM   10  C   UNL     1      40.861 -15.565  -2.264  1.00  0.00     0.035 C 
HETATM   11  C   UNL     1      40.053 -15.320  -3.538  1.00  0.00     0.002 C 
HETATM   12  C   UNL     1      38.688 -14.705  -3.236  1.00  0.00     0.002 C 
HETATM   13  C   UNL     1      38.809 -13.422  -2.413  1.00  0.00     0.027 C 
HETATM   14  H   UNL     1      37.885 -14.181  -0.025  1.00  0.00     0.163 HD
ENDROOT
BRANCH   1  15
HETATM   15  C   UNL     1      41.544 -14.815   2.311  1.00  0.00     0.146 C 
BRANCH  15  16
HETATM   16  C   UNL     1      41.968 -16.095   2.991  1.00  0.00     0.224 C 
HETATM   17  N   UNL     1      43.103 -16.679   2.492  1.00  0.00    -0.327 N 
HETATM   18  H   UNL     1      43.707 -16.128   1.889  1.00  0.00     0.169 HD
HETATM   19  O   UNL     1      41.198 -16.557   3.837  1.00  0.00    -0.273 OA
BRANCH  17  20
HETATM   20  C   UNL     1      43.511 -18.019   2.684  1.00  0.00     0.035 A 
HETATM   21  C   UNL     1      43.968 -18.526   3.903  1.00  0.00     0.037 A 
HETATM   22  C   UNL     1      44.279 -19.890   4.060  1.00  0.00    -0.054 A 
HETATM   23  C   UNL     1      44.174 -20.753   2.954  1.00  0.00    -0.056 A 
HETATM   24  C   UNL     1      44.740 -20.385   5.404  1.00  0.00     0.049 C 
HETATM   25  C   UNL     1      44.491 -22.219   3.063  1.00  0.00     0.049 C 
HETATM   26  C   UNL     1      43.719 -20.240   1.732  1.00  0.00     0.009 A 
HETATM   27  C   UNL     1      43.386 -18.889   1.599  1.00  0.00     0.030 A 
ENDBRANCH  17  20
ENDBRANCH  15  16
ENDBRANCH   1  15
TORSDOF 3
ENDMDL
MODEL 5
REMARK VINA RESULT:      -7.8      1.535      2.091
REMARK  3 active torsions:
REMARK  status: ('A' for Active; 'I' for Inactive)
REMARK    1  A    between atoms: C_6  and  N_7 
REMARK       I    between atoms: N_7  and  C_8 
REMARK    2  A    between atoms: C_8  and  C_9 
REMARK    3  A    between atoms: C_9  and  C_10 
ROOT
HETATM    1  C   UNL     1      40.398 -14.781   4.131  1.00  0.00     0.286 C 
HETATM    2  N   UNL     1      40.647 -15.034   2.638  1.00  0.00    -0.056 N 
HETATM    3  H   UNL     1      41.637 -14.763   2.450  1.00  0.00     0.278 HD
HETATM    4  H   UNL     1      40.608 -16.039   2.431  1.00  0.00     0.278 HD
HETATM    5  C   UNL     1      39.812 -14.245   1.674  1.00  0.00     0.209 C 
HETATM    6  C   UNL     1      39.815 -12.754   2.082  1.00  0.00     0.115 C 
HETATM    7  N   UNL     1      39.435 -12.568   3.478  1.00  0.00    -0.353 N 
HETATM    8  C   UNL     1      39.890 -13.369   4.489  1.00  0.00     0.249 C 
HETATM    9  O   UNL     1      39.838 -12.979   5.652  1.00  0.00    -0.271 OA
HETATM   10  C   UNL     1      38.406 -14.837   1.590  1.00  0.00     0.035 C 
HETATM   11  C   UNL     1      37.532 -14.008   0.649  1.00  0.00     0.002 C 
HETATM   12  C   UNL     1      37.499 -12.535   1.055  1.00  0.00     0.002 C 
HETATM   13  C   UNL     1      38.903 -11.940   1.159  1.00  0.00     0.027 C 
HETATM   14  H   UNL     1      39.200 -11.629   3.795  1.00  0.00     0.163 HD
ENDROOT
BRANCH   1  15
HETATM   15  C   UNL     1      41.678 -15.065   4.937  1.00  0.00     0.146 C 
BRANCH  15  16
HETATM   16  C   UNL     1      41.950 -16.545   4.801  1.00  0.00     0.224 C 
HETATM   17  N   UNL     1      43.193 -16.873   4.327  1.00  0.00    -0.327 N 
HETATM   18  H   UNL     1      43.916 -16.159   4.324  1.00  0.00     0.169 HD
HETATM   19  O   UNL     1      41.001 -17.306   5.006  1.00  0.00    -0.273 OA
BRANCH  17  20
HETATM   20  C   UNL     1      43.579 -18.116   3.775  1.00  0.00     0.035 A 
HETATM   21  C   UNL     1      44.175 -19.144   4.511  1.00  0.00     0.037 A 
HETATM   22  C   UNL     1      44.459 -20.393   3.929  1.00  0.00    -0.054 A 
HETATM   23  C   UNL     1      44.182 -20.599   2.565  1.00  0.00    -0.056 A 
HETATM   24  C   UNL     1      45.076 -21.472   4.778  1.00  0.00     0.049 C 
HETATM   25  C   UNL     1      44.462 -21.914   1.891  1.00  0.00     0.049 C 
HETATM   26  C   UNL     1      43.587 -19.565   1.830  1.00  0.00     0.009 A 
HETATM   27  C   UNL     1      43.284 -18.339   2.428  1.00  0.00     0.030 A 
ENDBRANCH  17  20
ENDBRANCH  15  16
ENDBRANCH   1  15
TORSDOF 3
ENDMDL
MODEL 6
REMARK VINA RESULT:      -7.8      2.331      3.518
REMARK  3 active torsions:
REMARK  status: ('A' for Active; 'I' for Inactive)
REMARK    1  A    between atoms: C_6  and  N_7 
REMARK       I    between atoms: N_7  and  C_8 
REMARK    2  A    between atoms: C_8  and  C_9 
REMARK    3  A    between atoms: C_9  and  C_10 
ROOT
HETATM    1  C   UNL     1      40.839 -14.878   0.258  1.00  0.00     0.286 C 
HETATM    2  N   UNL     1      39.524 -15.149   1.002  1.00  0.00    -0.056 N 
HETATM    3  H   UNL     1      39.057 -15.938   0.505  1.00  0.00     0.278 HD
HETATM    4  H   UNL     1      39.711 -15.507   1.946  1.00  0.00     0.278 HD
HETATM    5  C   UNL     1      38.525 -14.030   1.031  1.00  0.00     0.209 C 
HETATM    6  C   UNL     1      38.350 -13.451  -0.392  1.00  0.00     0.115 C 
HETATM    7  N   UNL     1      39.627 -13.084  -0.994  1.00  0.00    -0.353 N 
HETATM    8  C   UNL     1      40.749 -13.861  -0.899  1.00  0.00     0.249 C 
HETATM    9  O   UNL     1      41.675 -13.703  -1.691  1.00  0.00    -0.271 OA
HETATM   10  C   UNL     1      38.945 -12.977   2.055  1.00  0.00     0.035 C 
HETATM   11  C   UNL     1      37.961 -11.807   2.054  1.00  0.00     0.002 C 
HETATM   12  C   UNL     1      37.798 -11.203   0.661  1.00  0.00     0.002 C 
HETATM   13  C   UNL     1      37.395 -12.254  -0.375  1.00  0.00     0.027 C 
HETATM   14  H   UNL     1      39.619 -12.505  -1.832  1.00  0.00     0.163 HD
ENDROOT
BRANCH   1  15
HETATM   15  C   UNL     1      41.421 -16.194  -0.286  1.00  0.00     0.146 C 
BRANCH  15  16
HETATM   16  C   UNL     1      41.595 -17.109   0.904  1.00  0.00     0.224 C 
HETATM   17  N   UNL     1      42.882 -17.261   1.346  1.00  0.00    -0.327 N 
HETATM   18  H   UNL     1      43.586 -16.600   1.030  1.00  0.00     0.169 HD
HETATM   19  O   UNL     1      40.595 -17.724   1.284  1.00  0.00    -0.273 OA
BRANCH  17  20
HETATM   20  C   UNL     1      43.368 -18.299   2.175  1.00  0.00     0.035 A 
HETATM   21  C   UNL     1      43.597 -19.605   1.734  1.00  0.00     0.037 A 
HETATM   22  C   UNL     1      44.164 -20.576   2.580  1.00  0.00    -0.054 A 
HETATM   23  C   UNL     1      44.462 -20.241   3.913  1.00  0.00    -0.056 A 
HETATM   24  C   UNL     1      44.413 -21.960   2.042  1.00  0.00     0.049 C 
HETATM   25  C   UNL     1      45.071 -21.237   4.861  1.00  0.00     0.049 C 
HETATM   26  C   UNL     1      44.228 -18.931   4.353  1.00  0.00     0.009 A 
HETATM   27  C   UNL     1      43.692 -17.969   3.493  1.00  0.00     0.030 A 
ENDBRANCH  17  20
ENDBRANCH  15  16
ENDBRANCH   1  15
TORSDOF 3
ENDMDL
MODEL 7
REMARK VINA RESULT:      -7.7      3.415      4.940
REMARK  3 active torsions:
REMARK  status: ('A' for Active; 'I' for Inactive)
REMARK    1  A    between atoms: C_6  and  N_7 
REMARK       I    between atoms: N_7  and  C_8 
REMARK    2  A    between atoms: C_8  and  C_9 
REMARK    3  A    between atoms: C_9  and  C_10 
ROOT
HETATM    1  C   UNL     1      41.717 -14.261  -1.563  1.00  0.00     0.286 C 
HETATM    2  N   UNL     1      41.488 -13.082  -0.607  1.00  0.00    -0.056 N 
HETATM    3  H   UNL     1      40.498 -13.148  -0.283  1.00  0.00     0.278 HD
HETATM    4  H   UNL     1      42.049 -13.194   0.246  1.00  0.00     0.278 HD
HETATM    5  C   UNL     1      41.643 -11.707  -1.186  1.00  0.00     0.209 C 
HETATM    6  C   UNL     1      40.866 -11.613  -2.519  1.00  0.00     0.115 C 
HETATM    7  N   UNL     1      41.230 -12.684  -3.441  1.00  0.00    -0.353 N 
HETATM    8  C   UNL     1      41.402 -13.982  -3.047  1.00  0.00     0.249 C 
HETATM    9  O   UNL     1      41.357 -14.887  -3.876  1.00  0.00    -0.271 OA
HETATM   10  C   UNL     1      43.124 -11.363  -1.334  1.00  0.00     0.035 C 
HETATM   11  C   UNL     1      43.292  -9.984  -1.972  1.00  0.00     0.002 C 
HETATM   12  C   UNL     1      42.555  -9.882  -3.306  1.00  0.00     0.002 C 
HETATM   13  C   UNL     1      41.075 -10.243  -3.171  1.00  0.00     0.027 C 
HETATM   14  H   UNL     1      40.944 -12.603  -4.415  1.00  0.00     0.163 HD
ENDROOT
BRANCH   1  15
HETATM   15  C   UNL     1      40.900 -15.481  -1.104  1.00  0.00     0.146 C 
BRANCH  15  16
HETATM   16  C   UNL     1      41.388 -15.827   0.283  1.00  0.00     0.224 C 
HETATM   17  N   UNL     1      42.522 -16.595   0.333  1.00  0.00    -0.327 N 
HETATM   18  H   UNL     1      43.087 -16.683  -0.507  1.00  0.00     0.169 HD
HETATM   19  O   UNL     1      40.663 -15.499   1.226  1.00  0.00    -0.273 OA
BRANCH  17  20
HETATM   20  C   UNL     1      42.979 -17.345   1.441  1.00  0.00     0.035 A 
HETATM   21  C   UNL     1      43.288 -18.707   1.385  1.00  0.00     0.037 A 
HETATM   22  C   UNL     1      43.822 -19.384   2.497  1.00  0.00    -0.054 A 
HETATM   23  C   UNL     1      44.005 -18.690   3.706  1.00  0.00    -0.056 A 
HETATM   24  C   UNL     1      44.162 -20.845   2.369  1.00  0.00     0.049 C 
HETATM   25  C   UNL     1      44.573 -19.362   4.925  1.00  0.00     0.049 C 
HETATM   26  C   UNL     1      43.690 -17.325   3.760  1.00  0.00     0.009 A 
HETATM   27  C   UNL     1      43.188 -16.658   2.639  1.00  0.00     0.030 A 
ENDBRANCH  17  20
ENDBRANCH  15  16
ENDBRANCH   1  15
TORSDOF 3
ENDMDL
MODEL 8
REMARK VINA RESULT:      -7.4      5.881      8.068
REMARK  3 active torsions:
REMARK  status: ('A' for Active; 'I' for Inactive)
REMARK    1  A    between atoms: C_6  and  N_7 
REMARK       I    between atoms: N_7  and  C_8 
REMARK    2  A    between atoms: C_8  and  C_9 
REMARK    3  A    between atoms: C_9  and  C_10 
ROOT
HETATM    1  C   UNL     1      44.128 -12.028   9.598  1.00  0.00     0.286 C 
HETATM    2  N   UNL     1      43.559 -10.659   9.201  1.00  0.00    -0.056 N 
HETATM    3  H   UNL     1      44.367 -10.000   9.160  1.00  0.00     0.278 HD
HETATM    4  H   UNL     1      43.193 -10.685   8.242  1.00  0.00     0.278 HD
HETATM    5  C   UNL     1      42.571 -10.042  10.147  1.00  0.00     0.209 C 
HETATM    6  C   UNL     1      43.116 -10.117  11.591  1.00  0.00     0.115 C 
HETATM    7  N   UNL     1      43.513 -11.472  11.957  1.00  0.00    -0.353 N 
HETATM    8  C   UNL     1      44.200 -12.303  11.115  1.00  0.00     0.249 C 
HETATM    9  O   UNL     1      44.808 -13.270  11.566  1.00  0.00    -0.271 OA
HETATM   10  C   UNL     1      41.206 -10.710   9.990  1.00  0.00     0.035 C 
HETATM   11  C   UNL     1      40.206 -10.123  10.986  1.00  0.00     0.002 C 
HETATM   12  C   UNL     1      40.716 -10.215  12.424  1.00  0.00     0.002 C 
HETATM   13  C   UNL     1      42.091  -9.566  12.585  1.00  0.00     0.027 C 
HETATM   14  H   UNL     1      43.686 -11.678  12.939  1.00  0.00     0.163 HD
ENDROOT
BRANCH   1  15
HETATM   15  C   UNL     1      45.532 -12.213   8.996  1.00  0.00     0.146 C 
BRANCH  15  16
HETATM   16  C   UNL     1      45.352 -13.022   7.732  1.00  0.00     0.224 C 
HETATM   17  N   UNL     1      44.223 -13.797   7.685  1.00  0.00    -0.327 N 
HETATM   18  H   UNL     1      43.480 -13.614   8.353  1.00  0.00     0.169 HD
HETATM   19  O   UNL     1      46.286 -13.009   6.926  1.00  0.00    -0.273 OA
BRANCH  17  20
HETATM   20  C   UNL     1      43.992 -14.891   6.819  1.00  0.00     0.035 A 
HETATM   21  C   UNL     1      44.549 -16.160   7.003  1.00  0.00     0.037 A 
HETATM   22  C   UNL     1      44.215 -17.236   6.160  1.00  0.00    -0.054 A 
HETATM   23  C   UNL     1      43.340 -17.021   5.080  1.00  0.00    -0.056 A 
HETATM   24  C   UNL     1      44.825 -18.587   6.422  1.00  0.00     0.049 C 
HETATM   25  C   UNL     1      42.947 -18.134   4.148  1.00  0.00     0.049 C 
HETATM   26  C   UNL     1      42.786 -15.747   4.897  1.00  0.00     0.009 A 
HETATM   27  C   UNL     1      43.104 -14.694   5.760  1.00  0.00     0.030 A 
ENDBRANCH  17  20
ENDBRANCH  15  16
ENDBRANCH   1  15
TORSDOF 3
ENDMDL
MODEL 9
REMARK VINA RESULT:      -7.2      2.397      4.103
REMARK  3 active torsions:
REMARK  status: ('A' for Active; 'I' for Inactive)
REMARK    1  A    between atoms: C_6  and  N_7 
REMARK       I    between atoms: N_7  and  C_8 
REMARK    2  A    between atoms: C_8  and  C_9 
REMARK    3  A    between atoms: C_9  and  C_10 
ROOT
HETATM    1  C   UNL     1      39.885 -15.000   1.203  1.00  0.00     0.286 C 
HETATM    2  N   UNL     1      41.179 -14.597   0.483  1.00  0.00    -0.056 N 
HETATM    3  H   UNL     1      41.489 -13.696   0.908  1.00  0.00     0.278 HD
HETATM    4  H   UNL     1      41.933 -15.260   0.698  1.00  0.00     0.278 HD
HETATM    5  C   UNL     1      41.077 -14.344  -0.992  1.00  0.00     0.209 C 
HETATM    6  C   UNL     1      39.869 -13.425  -1.280  1.00  0.00     0.115 C 
HETATM    7  N   UNL     1      38.639 -13.935  -0.684  1.00  0.00    -0.353 N 
HETATM    8  C   UNL     1      38.582 -14.462   0.576  1.00  0.00     0.249 C 
HETATM    9  O   UNL     1      37.504 -14.548   1.159  1.00  0.00    -0.271 OA
HETATM   10  C   UNL     1      41.010 -15.670  -1.748  1.00  0.00     0.035 C 
HETATM   11  C   UNL     1      40.854 -15.423  -3.249  1.00  0.00     0.002 C 
HETATM   12  C   UNL     1      39.646 -14.539  -3.555  1.00  0.00     0.002 C 
HETATM   13  C   UNL     1      39.695 -13.217  -2.788  1.00  0.00     0.027 C 
HETATM   14  H   UNL     1      37.752 -13.531  -0.982  1.00  0.00     0.163 HD
ENDROOT
BRANCH   1  15
HETATM   15  C   UNL     1      39.941 -14.563   2.678  1.00  0.00     0.146 C 
BRANCH  15  16
HETATM   16  C   UNL     1      41.105 -15.299   3.299  1.00  0.00     0.224 C 
HETATM   17  N   UNL     1      40.779 -16.423   4.010  1.00  0.00    -0.327 N 
HETATM   18  H   UNL     1      39.854 -16.824   3.888  1.00  0.00     0.169 HD
HETATM   19  O   UNL     1      42.212 -14.759   3.215  1.00  0.00    -0.273 OA
BRANCH  17  20
HETATM   20  C   UNL     1      41.592 -17.076   4.965  1.00  0.00     0.035 A 
HETATM   21  C   UNL     1      42.465 -18.124   4.658  1.00  0.00     0.037 A 
HETATM   22  C   UNL     1      43.315 -18.679   5.633  1.00  0.00    -0.054 A 
HETATM   23  C   UNL     1      43.251 -18.205   6.955  1.00  0.00    -0.056 A 
HETATM   24  C   UNL     1      44.253 -19.788   5.238  1.00  0.00     0.049 C 
HETATM   25  C   UNL     1      44.137 -18.760   8.037  1.00  0.00     0.049 C 
HETATM   26  C   UNL     1      42.373 -17.157   7.260  1.00  0.00     0.009 A 
HETATM   27  C   UNL     1      41.555 -16.595   6.276  1.00  0.00     0.030 A 
ENDBRANCH  17  20
ENDBRANCH  15  16
ENDBRANCH   1  15
TORSDOF 3
ENDMDL
MODEL 10
REMARK VINA RESULT:      -7.1      1.884      2.695
REMARK  3 active torsions:
REMARK  status: ('A' for Active; 'I' for Inactive)
REMARK    1  A    between atoms: C_6  and  N_7 
REMARK       I    between atoms: N_7  and  C_8 
REMARK    2  A    between atoms: C_8  and  C_9 
REMARK    3  A    between atoms: C_9  and  C_10 
ROOT
HETATM    1  C   UNL     1      41.122 -14.518   1.900  1.00  0.00     0.286 C 
HETATM    2  N   UNL     1      41.926 -13.305   1.413  1.00  0.00    -0.056 N 
HETATM    3  H   UNL     1      41.801 -12.557   2.129  1.00  0.00     0.278 HD
HETATM    4  H   UNL     1      42.933 -13.511   1.423  1.00  0.00     0.278 HD
HETATM    5  C   UNL     1      41.507 -12.701   0.105  1.00  0.00     0.209 C 
HETATM    6  C   UNL     1      39.974 -12.503   0.092  1.00  0.00     0.115 C 
HETATM    7  N   UNL     1      39.260 -13.729   0.429  1.00  0.00    -0.353 N 
HETATM    8  C   UNL     1      39.652 -14.569   1.435  1.00  0.00     0.249 C 
HETATM    9  O   UNL     1      38.855 -15.375   1.908  1.00  0.00    -0.271 OA
HETATM   10  C   UNL     1      42.006 -13.560  -1.055  1.00  0.00     0.035 C 
HETATM   11  C   UNL     1      41.539 -12.980  -2.390  1.00  0.00     0.002 C 
HETATM   12  C   UNL     1      40.022 -12.805  -2.433  1.00  0.00     0.002 C 
HETATM   13  C   UNL     1      39.511 -11.962  -1.264  1.00  0.00     0.027 C 
HETATM   14  H   UNL     1      38.259 -13.773   0.247  1.00  0.00     0.163 HD
ENDROOT
BRANCH   1  15
HETATM   15  C   UNL     1      41.158 -14.596   3.436  1.00  0.00     0.146 C 
BRANCH  15  16
HETATM   16  C   UNL     1      41.671 -15.974   3.784  1.00  0.00     0.224 C 
HETATM   17  N   UNL     1      42.777 -16.383   3.087  1.00  0.00    -0.327 N 
HETATM   18  H   UNL     1      43.316 -15.688   2.579  1.00  0.00     0.169 HD
HETATM   19  O   UNL     1      40.983 -16.643   4.559  1.00  0.00    -0.273 OA
BRANCH  17  20
HETATM   20  C   UNL     1      43.236 -17.713   2.948  1.00  0.00     0.035 A 
HETATM   21  C   UNL     1      43.931 -18.405   3.944  1.00  0.00     0.037 A 
HETATM   22  C   UNL     1      44.288 -19.757   3.785  1.00  0.00    -0.054 A 
HETATM   23  C   UNL     1      43.983 -20.414   2.579  1.00  0.00    -0.056 A 
HETATM   24  C   UNL     1      45.011 -20.459   4.903  1.00  0.00     0.049 C 
HETATM   25  C   UNL     1      44.338 -21.858   2.354  1.00  0.00     0.049 C 
HETATM   26  C   UNL     1      43.289 -19.716   1.581  1.00  0.00     0.009 A 
HETATM   27  C   UNL     1      42.915 -18.382   1.765  1.00  0.00     0.030 A 
ENDBRANCH  17  20
ENDBRANCH  15  16
ENDBRANCH   1  15
TORSDOF 3
ENDMDL
