MODEL 1
REMARK VINA RESULT:      -8.2      0.000      0.000
REMARK  8 active torsions:
REMARK  status: ('A' for Active; 'I' for Inactive)
REMARK    1  A    between atoms: C_2  and  C_4 
REMARK    2  A    between atoms: C_2  and  C_29 
REMARK    3  A    between atoms: C_2  and  O_3 
REMARK    4  A    between atoms: N_11  and  C_13 
REMARK    5  A    between atoms: C_13  and  C_14 
REMARK    6  A    between atoms: C_16  and  S_17 
REMARK    7  A    between atoms: S_17  and  C_18 
REMARK    8  A    between atoms: C_29  and  N_30 
ROOT
HETATM    1  C   UNL     1      43.765 -18.533   6.492  1.00  0.00    -0.022 A 
HETATM    2  C   UNL     1      44.441 -18.622   5.258  1.00  0.00     0.022 A 
HETATM    3  C   UNL     1      44.832 -19.856   4.710  1.00  0.00     0.002 A 
HETATM    4  C   UNL     1      44.566 -21.020   5.427  1.00  0.00     0.076 A 
HETATM    5  O   UNL     1      44.975 -22.240   4.968  1.00  0.00    -0.349 OA
HETATM    6  C   UNL     1      44.218 -22.673   3.829  1.00  0.00     0.203 C 
HETATM    7  C   UNL     1      44.826 -22.179   2.507  1.00  0.00     0.262 C 
HETATM    8  N   UNL     1      44.696 -20.678   2.318  1.00  0.00    -0.059 N 
HETATM    9  H   UNL     1      45.170 -20.448   1.435  1.00  0.00     0.280 HD
HETATM   10  C   UNL     1      45.492 -19.919   3.364  1.00  0.00     0.276 C 
HETATM   11  C   UNL     1      43.922 -20.963   6.659  1.00  0.00     0.038 A 
HETATM   12  C   UNL     1      43.497 -19.733   7.174  1.00  0.00     0.013 A 
ENDROOT
BRANCH   8  13
HETATM   13  C   UNL     1      43.258 -20.224   2.124  1.00  0.00     0.299 C 
BRANCH  13  14
HETATM   14  C   UNL     1      43.068 -18.771   1.879  1.00  0.00     0.080 A 
HETATM   15  O   UNL     1      42.154 -18.133   2.656  1.00  0.00    -0.306 OA
HETATM   16  C   UNL     1      42.172 -16.806   2.333  1.00  0.00     0.120 A 
HETATM   17  C   UNL     1      43.026 -16.619   1.266  1.00  0.00     0.047 A 
HETATM   18  C   UNL     1      43.611 -17.880   0.979  1.00  0.00     0.038 A 
BRANCH  16  19
HETATM   19  S   UNL     1      41.237 -15.621   3.205  1.00  0.00    -0.025 SA
BRANCH  19  20
HETATM   20  C   UNL     1      41.611 -14.264   2.193  1.00  0.00     0.197 A 
HETATM   21  N   UNL     1      40.852 -13.880   1.125  1.00  0.00    -0.322 N 
HETATM   22  C   UNL     1      39.631 -14.466   0.634  1.00  0.00     0.159 C 
HETATM   23  C   UNL     1      41.495 -12.802   0.588  1.00  0.00     0.235 A 
HETATM   24  N   UNL     1      42.563 -12.523   1.302  1.00  0.00    -0.143 NA
HETATM   25  N   UNL     1      42.632 -13.443   2.318  1.00  0.00    -0.123 NA
ENDBRANCH  19  20
ENDBRANCH  16  19
ENDBRANCH  13  14
ENDBRANCH   8  13
BRANCH   1  26
HETATM   26  C   UNL     1      43.275 -17.173   7.000  1.00  0.00     0.105 C 
HETATM   27  C   UNL     1      43.456 -17.123   8.527  1.00  0.00     0.053 C 
BRANCH  26  28
HETATM   28  C   UNL     1      43.990 -15.932   6.364  1.00  0.00     0.276 C 
BRANCH  28  29
HETATM   29  N   UNL     1      43.594 -14.586   6.979  1.00  0.00    -0.076 N 
HETATM   30  H   UNL     1      42.956 -14.770   7.763  1.00  0.00     0.279 HD
HETATM   31  C   UNL     1      44.753 -13.818   7.564  1.00  0.00     0.269 C 
HETATM   32  C   UNL     1      42.842 -13.743   5.984  1.00  0.00     0.269 C 
ENDBRANCH  28  29
ENDBRANCH  26  28
BRANCH  26  33
HETATM   33  O   UNL     1      41.873 -17.043   6.705  1.00  0.00    -0.384 OA
HETATM   34  H   UNL     1      41.351 -17.339   7.474  1.00  0.00     0.211 HD
ENDBRANCH  26  33
ENDBRANCH   1  26
TORSDOF 8
ENDMDL
MODEL 2
REMARK VINA RESULT:      -8.2      1.552      2.107
REMARK  8 active torsions:
REMARK  status: ('A' for Active; 'I' for Inactive)
REMARK    1  A    between atoms: C_2  and  C_4 
REMARK    2  A    between atoms: C_2  and  C_29 
REMARK    3  A    between atoms: C_2  and  O_3 
REMARK    4  A    between atoms: N_11  and  C_13 
REMARK    5  A    between atoms: C_13  and  C_14 
REMARK    6  A    between atoms: C_16  and  S_17 
REMARK    7  A    between atoms: S_17  and  C_18 
REMARK    8  A    between atoms: C_29  and  N_30 
ROOT
HETATM    1  C   UNL     1      43.916 -18.838   6.822  1.00  0.00    -0.022 A 
HETATM    2  C   UNL     1      44.576 -18.835   5.575  1.00  0.00     0.022 A 
HETATM    3  C   UNL     1      44.906 -20.026   4.905  1.00  0.00     0.002 A 
HETATM    4  C   UNL     1      44.593 -21.241   5.508  1.00  0.00     0.076 A 
HETATM    5  O   UNL     1      44.942 -22.427   4.927  1.00  0.00    -0.349 OA
HETATM    6  C   UNL     1      44.156 -22.712   3.761  1.00  0.00     0.203 C 
HETATM    7  C   UNL     1      44.775 -22.119   2.486  1.00  0.00     0.262 C 
HETATM    8  N   UNL     1      44.712 -20.602   2.446  1.00  0.00    -0.059 N 
HETATM    9  H   UNL     1      45.188 -20.308   1.583  1.00  0.00     0.280 HD
HETATM   10  C   UNL     1      45.551 -19.985   3.550  1.00  0.00     0.276 C 
HETATM   11  C   UNL     1      43.963 -21.277   6.748  1.00  0.00     0.038 A 
HETATM   12  C   UNL     1      43.599 -20.085   7.386  1.00  0.00     0.013 A 
ENDROOT
BRANCH   8  13
HETATM   13  C   UNL     1      43.294 -20.067   2.317  1.00  0.00     0.299 C 
BRANCH  13  14
HETATM   14  C   UNL     1      43.176 -18.651   1.886  1.00  0.00     0.080 A 
HETATM   15  O   UNL     1      41.920 -18.147   1.772  1.00  0.00    -0.306 OA
HETATM   16  C   UNL     1      42.017 -16.827   1.436  1.00  0.00     0.120 A 
HETATM   17  C   UNL     1      43.346 -16.518   1.228  1.00  0.00     0.047 A 
HETATM   18  C   UNL     1      44.093 -17.687   1.526  1.00  0.00     0.038 A 
BRANCH  16  19
HETATM   19  S   UNL     1      40.624 -15.785   1.332  1.00  0.00    -0.025 SA
BRANCH  19  20
HETATM   20  C   UNL     1      41.070 -14.973  -0.133  1.00  0.00     0.197 A 
HETATM   21  N   UNL     1      41.625 -13.725  -0.173  1.00  0.00    -0.322 N 
HETATM   22  C   UNL     1      41.961 -12.858   0.925  1.00  0.00     0.159 C 
HETATM   23  C   UNL     1      41.798 -13.445  -1.498  1.00  0.00     0.235 A 
HETATM   24  N   UNL     1      41.406 -14.469  -2.222  1.00  0.00    -0.143 NA
HETATM   25  N   UNL     1      40.952 -15.435  -1.360  1.00  0.00    -0.123 NA
ENDBRANCH  19  20
ENDBRANCH  16  19
ENDBRANCH  13  14
ENDBRANCH   8  13
BRANCH   1  26
HETATM   26  C   UNL     1      43.492 -17.513   7.466  1.00  0.00     0.105 C 
HETATM   27  C   UNL     1      44.375 -16.387   6.902  1.00  0.00     0.053 C 
BRANCH  26  28
HETATM   28  C   UNL     1      41.988 -17.128   7.260  1.00  0.00     0.276 C 
BRANCH  28  29
HETATM   29  N   UNL     1      41.646 -16.631   5.851  1.00  0.00    -0.076 N 
HETATM   30  H   UNL     1      42.519 -16.334   5.399  1.00  0.00     0.279 HD
HETATM   31  C   UNL     1      41.060 -17.693   4.955  1.00  0.00     0.269 C 
HETATM   32  C   UNL     1      40.745 -15.426   5.912  1.00  0.00     0.269 C 
ENDBRANCH  28  29
ENDBRANCH  26  28
BRANCH  26  33
HETATM   33  O   UNL     1      43.711 -17.594   8.886  1.00  0.00    -0.384 OA
HETATM   34  H   UNL     1      42.851 -17.657   9.342  1.00  0.00     0.211 HD
ENDBRANCH  26  33
ENDBRANCH   1  26
TORSDOF 8
ENDMDL
MODEL 3
REMARK VINA RESULT:      -8.1      3.228      7.217
REMARK  8 active torsions:
REMARK  status: ('A' for Active; 'I' for Inactive)
REMARK    1  A    between atoms: C_2  and  C_4 
REMARK    2  A    between atoms: C_2  and  C_29 
REMARK    3  A    between atoms: C_2  and  O_3 
REMARK    4  A    between atoms: N_11  and  C_13 
REMARK    5  A    between atoms: C_13  and  C_14 
REMARK    6  A    between atoms: C_16  and  S_17 
REMARK    7  A    between atoms: S_17  and  C_18 
REMARK    8  A    between atoms: C_29  and  N_30 
ROOT
HETATM    1  C   UNL     1      42.371 -17.526   2.856  1.00  0.00    -0.022 A 
HETATM    2  C   UNL     1      41.966 -16.817   4.007  1.00  0.00     0.022 A 
HETATM    3  C   UNL     1      42.295 -17.252   5.303  1.00  0.00     0.002 A 
HETATM    4  C   UNL     1      43.021 -18.431   5.448  1.00  0.00     0.076 A 
HETATM    5  O   UNL     1      43.319 -18.928   6.686  1.00  0.00    -0.349 OA
HETATM    6  C   UNL     1      44.309 -18.141   7.362  1.00  0.00     0.203 C 
HETATM    7  C   UNL     1      43.685 -16.998   8.176  1.00  0.00     0.262 C 
HETATM    8  N   UNL     1      43.078 -15.911   7.305  1.00  0.00    -0.059 N 
HETATM    9  H   UNL     1      42.652 -15.225   7.941  1.00  0.00     0.280 HD
HETATM   10  C   UNL     1      41.903 -16.440   6.503  1.00  0.00     0.276 C 
HETATM   11  C   UNL     1      43.414 -19.165   4.334  1.00  0.00     0.038 A 
HETATM   12  C   UNL     1      43.119 -18.700   3.047  1.00  0.00     0.013 A 
ENDROOT
BRANCH   8  13
HETATM   13  C   UNL     1      44.117 -15.129   6.517  1.00  0.00     0.299 C 
BRANCH  13  14
HETATM   14  C   UNL     1      44.816 -14.052   7.265  1.00  0.00     0.080 A 
HETATM   15  O   UNL     1      44.270 -13.677   8.451  1.00  0.00    -0.306 OA
HETATM   16  C   UNL     1      45.082 -12.734   9.016  1.00  0.00     0.120 A 
HETATM   17  C   UNL     1      46.094 -12.430   8.129  1.00  0.00     0.047 A 
HETATM   18  C   UNL     1      45.930 -13.283   7.006  1.00  0.00     0.038 A 
BRANCH  16  19
HETATM   19  S   UNL     1      44.801 -12.097  10.614  1.00  0.00    -0.025 SA
BRANCH  19  20
HETATM   20  C   UNL     1      43.427 -11.119  10.218  1.00  0.00     0.197 A 
HETATM   21  N   UNL     1      42.415 -10.839  11.093  1.00  0.00    -0.322 N 
HETATM   22  C   UNL     1      42.275 -11.253  12.464  1.00  0.00     0.159 C 
HETATM   23  C   UNL     1      41.528 -10.073  10.393  1.00  0.00     0.235 A 
HETATM   24  N   UNL     1      41.984  -9.868   9.177  1.00  0.00    -0.143 NA
HETATM   25  N   UNL     1      43.185 -10.524   9.070  1.00  0.00    -0.123 NA
ENDBRANCH  19  20
ENDBRANCH  16  19
ENDBRANCH  13  14
ENDBRANCH   8  13
BRANCH   1  26
HETATM   26  C   UNL     1      42.069 -16.960   1.464  1.00  0.00     0.105 C 
HETATM   27  C   UNL     1      40.990 -17.833   0.802  1.00  0.00     0.053 C 
BRANCH  26  28
HETATM   28  C   UNL     1      41.595 -15.467   1.445  1.00  0.00     0.276 C 
BRANCH  28  29
HETATM   29  N   UNL     1      40.163 -15.261   0.941  1.00  0.00    -0.076 N 
HETATM   30  H   UNL     1      39.815 -16.164   0.596  1.00  0.00     0.279 HD
HETATM   31  C   UNL     1      39.194 -14.831   2.014  1.00  0.00     0.269 C 
HETATM   32  C   UNL     1      40.136 -14.302  -0.220  1.00  0.00     0.269 C 
ENDBRANCH  28  29
ENDBRANCH  26  28
BRANCH  26  33
HETATM   33  O   UNL     1      43.263 -17.028   0.664  1.00  0.00    -0.384 OA
HETATM   34  H   UNL     1      43.718 -17.874   0.834  1.00  0.00     0.211 HD
ENDBRANCH  26  33
ENDBRANCH   1  26
TORSDOF 8
ENDMDL
MODEL 4
REMARK VINA RESULT:      -7.8      2.755      6.124
REMARK  8 active torsions:
REMARK  status: ('A' for Active; 'I' for Inactive)
REMARK    1  A    between atoms: C_2  and  C_4 
REMARK    2  A    between atoms: C_2  and  C_29 
REMARK    3  A    between atoms: C_2  and  O_3 
REMARK    4  A    between atoms: N_11  and  C_13 
REMARK    5  A    between atoms: C_13  and  C_14 
REMARK    6  A    between atoms: C_16  and  S_17 
REMARK    7  A    between atoms: S_17  and  C_18 
REMARK    8  A    between atoms: C_29  and  N_30 
ROOT
HETATM    1  C   UNL     1      42.512 -17.773   2.783  1.00  0.00    -0.022 A 
HETATM    2  C   UNL     1      41.955 -17.171   3.930  1.00  0.00     0.022 A 
HETATM    3  C   UNL     1      42.297 -17.587   5.229  1.00  0.00     0.002 A 
HETATM    4  C   UNL     1      43.193 -18.642   5.379  1.00  0.00     0.076 A 
HETATM    5  O   UNL     1      43.516 -19.122   6.617  1.00  0.00    -0.349 OA
HETATM    6  C   UNL     1      44.342 -18.211   7.354  1.00  0.00     0.203 C 
HETATM    7  C   UNL     1      43.514 -17.204   8.165  1.00  0.00     0.262 C 
HETATM    8  N   UNL     1      42.779 -16.200   7.294  1.00  0.00    -0.059 N 
HETATM    9  H   UNL     1      42.225 -15.608   7.926  1.00  0.00     0.280 HD
HETATM   10  C   UNL     1      41.734 -16.882   6.429  1.00  0.00     0.276 C 
HETATM   11  C   UNL     1      43.741 -19.271   4.266  1.00  0.00     0.038 A 
HETATM   12  C   UNL     1      43.428 -18.820   2.978  1.00  0.00     0.013 A 
ENDROOT
BRANCH   8  13
HETATM   13  C   UNL     1      43.712 -15.242   6.571  1.00  0.00     0.299 C 
BRANCH  13  14
HETATM   14  C   UNL     1      43.051 -14.204   5.739  1.00  0.00     0.080 A 
HETATM   15  O   UNL     1      41.997 -13.553   6.295  1.00  0.00    -0.306 OA
HETATM   16  C   UNL     1      41.571 -12.600   5.414  1.00  0.00     0.120 A 
HETATM   17  C   UNL     1      42.292 -12.721   4.244  1.00  0.00     0.047 A 
HETATM   18  C   UNL     1      43.251 -13.746   4.454  1.00  0.00     0.038 A 
BRANCH  16  19
HETATM   19  S   UNL     1      40.320 -11.453   5.812  1.00  0.00    -0.025 SA
BRANCH  19  20
HETATM   20  C   UNL     1      41.040 -10.844   7.266  1.00  0.00     0.197 A 
HETATM   21  N   UNL     1      40.446 -10.906   8.494  1.00  0.00    -0.322 N 
HETATM   22  C   UNL     1      39.170 -11.473   8.845  1.00  0.00     0.159 C 
HETATM   23  C   UNL     1      41.317 -10.301   9.353  1.00  0.00     0.235 A 
HETATM   24  N   UNL     1      42.392  -9.922   8.698  1.00  0.00    -0.143 NA
HETATM   25  N   UNL     1      42.219 -10.270   7.382  1.00  0.00    -0.123 NA
ENDBRANCH  19  20
ENDBRANCH  16  19
ENDBRANCH  13  14
ENDBRANCH   8  13
BRANCH   1  26
HETATM   26  C   UNL     1      42.180 -17.220   1.392  1.00  0.00     0.105 C 
HETATM   27  C   UNL     1      41.037 -18.055   0.791  1.00  0.00     0.053 C 
BRANCH  26  28
HETATM   28  C   UNL     1      41.774 -15.707   1.361  1.00  0.00     0.276 C 
BRANCH  28  29
HETATM   29  N   UNL     1      40.336 -15.444   0.901  1.00  0.00    -0.076 N 
HETATM   30  H   UNL     1      39.944 -16.332   0.562  1.00  0.00     0.279 HD
HETATM   31  C   UNL     1      39.417 -14.984   2.005  1.00  0.00     0.269 C 
HETATM   32  C   UNL     1      40.311 -14.479  -0.254  1.00  0.00     0.269 C 
ENDBRANCH  28  29
ENDBRANCH  26  28
BRANCH  26  33
HETATM   33  O   UNL     1      43.337 -17.358   0.547  1.00  0.00    -0.384 OA
HETATM   34  H   UNL     1      43.960 -17.989   0.953  1.00  0.00     0.211 HD
ENDBRANCH  26  33
ENDBRANCH   1  26
TORSDOF 8
ENDMDL
MODEL 5
REMARK VINA RESULT:      -7.6      3.156      4.636
REMARK  8 active torsions:
REMARK  status: ('A' for Active; 'I' for Inactive)
REMARK    1  A    between atoms: C_2  and  C_4 
REMARK    2  A    between atoms: C_2  and  C_29 
REMARK    3  A    between atoms: C_2  and  O_3 
REMARK    4  A    between atoms: N_11  and  C_13 
REMARK    5  A    between atoms: C_13  and  C_14 
REMARK    6  A    between atoms: C_16  and  S_17 
REMARK    7  A    between atoms: S_17  and  C_18 
REMARK    8  A    between atoms: C_29  and  N_30 
ROOT
HETATM    1  C   UNL     1      41.937 -15.237   5.198  1.00  0.00    -0.022 A 
HETATM    2  C   UNL     1      42.551 -15.328   3.932  1.00  0.00     0.022 A 
HETATM    3  C   UNL     1      43.271 -16.468   3.534  1.00  0.00     0.002 A 
HETATM    4  C   UNL     1      43.400 -17.524   4.432  1.00  0.00     0.076 A 
HETATM    5  O   UNL     1      44.136 -18.631   4.117  1.00  0.00    -0.349 OA
HETATM    6  C   UNL     1      43.494 -19.446   3.127  1.00  0.00     0.203 C 
HETATM    7  C   UNL     1      43.864 -19.022   1.698  1.00  0.00     0.262 C 
HETATM    8  N   UNL     1      43.280 -17.676   1.307  1.00  0.00    -0.059 N 
HETATM    9  H   UNL     1      43.622 -17.468   0.361  1.00  0.00     0.280 HD
HETATM   10  C   UNL     1      43.857 -16.557   2.155  1.00  0.00     0.276 C 
HETATM   11  C   UNL     1      42.826 -17.454   5.697  1.00  0.00     0.038 A 
HETATM   12  C   UNL     1      42.074 -16.333   6.067  1.00  0.00     0.013 A 
ENDROOT
BRANCH   8  13
HETATM   13  C   UNL     1      41.764 -17.698   1.185  1.00  0.00     0.299 C 
BRANCH  13  14
HETATM   14  C   UNL     1      41.138 -16.436   0.711  1.00  0.00     0.080 A 
HETATM   15  O   UNL     1      41.581 -15.941  -0.474  1.00  0.00    -0.306 OA
HETATM   16  C   UNL     1      40.847 -14.828  -0.773  1.00  0.00     0.120 A 
HETATM   17  C   UNL     1      40.006 -14.553   0.286  1.00  0.00     0.047 A 
HETATM   18  C   UNL     1      40.185 -15.592   1.236  1.00  0.00     0.038 A 
BRANCH  16  19
HETATM   19  S   UNL     1      41.015 -13.977  -2.285  1.00  0.00    -0.025 SA
BRANCH  19  20
HETATM   20  C   UNL     1      39.733 -14.783  -3.129  1.00  0.00     0.197 A 
HETATM   21  N   UNL     1      38.429 -14.375  -3.100  1.00  0.00    -0.322 N 
HETATM   22  C   UNL     1      37.858 -13.243  -2.419  1.00  0.00     0.159 C 
HETATM   23  C   UNL     1      37.747 -15.281  -3.860  1.00  0.00     0.235 A 
HETATM   24  N   UNL     1      38.584 -16.167  -4.351  1.00  0.00    -0.143 NA
HETATM   25  N   UNL     1      39.838 -15.849  -3.893  1.00  0.00    -0.123 NA
ENDBRANCH  19  20
ENDBRANCH  16  19
ENDBRANCH  13  14
ENDBRANCH   8  13
BRANCH   1  26
HETATM   26  C   UNL     1      41.082 -14.013   5.548  1.00  0.00     0.105 C 
HETATM   27  C   UNL     1      42.017 -12.862   5.960  1.00  0.00     0.053 C 
BRANCH  26  28
HETATM   28  C   UNL     1      40.141 -13.514   4.400  1.00  0.00     0.276 C 
BRANCH  28  29
HETATM   29  N   UNL     1      40.231 -12.012   4.110  1.00  0.00    -0.076 N 
HETATM   30  H   UNL     1      40.925 -11.607   4.751  1.00  0.00     0.279 HD
HETATM   31  C   UNL     1      40.717 -11.688   2.720  1.00  0.00     0.269 C 
HETATM   32  C   UNL     1      38.918 -11.332   4.391  1.00  0.00     0.269 C 
ENDBRANCH  28  29
ENDBRANCH  26  28
BRANCH  26  33
HETATM   33  O   UNL     1      40.239 -14.337   6.668  1.00  0.00    -0.384 OA
HETATM   34  H   UNL     1      40.634 -13.978   7.484  1.00  0.00     0.211 HD
ENDBRANCH  26  33
ENDBRANCH   1  26
TORSDOF 8
ENDMDL
MODEL 6
REMARK VINA RESULT:      -7.5      2.934      5.973
REMARK  8 active torsions:
REMARK  status: ('A' for Active; 'I' for Inactive)
REMARK    1  A    between atoms: C_2  and  C_4 
REMARK    2  A    between atoms: C_2  and  C_29 
REMARK    3  A    between atoms: C_2  and  O_3 
REMARK    4  A    between atoms: N_11  and  C_13 
REMARK    5  A    between atoms: C_13  and  C_14 
REMARK    6  A    between atoms: C_16  and  S_17 
REMARK    7  A    between atoms: S_17  and  C_18 
REMARK    8  A    between atoms: C_29  and  N_30 
ROOT
HETATM    1  C   UNL     1      41.956 -16.807   1.534  1.00  0.00    -0.022 A 
HETATM    2  C   UNL     1      41.505 -17.138   2.829  1.00  0.00     0.022 A 
HETATM    3  C   UNL     1      42.237 -17.985   3.679  1.00  0.00     0.002 A 
HETATM    4  C   UNL     1      43.429 -18.533   3.212  1.00  0.00     0.076 A 
HETATM    5  O   UNL     1      44.150 -19.407   3.975  1.00  0.00    -0.349 OA
HETATM    6  C   UNL     1      44.788 -18.760   5.085  1.00  0.00     0.203 C 
HETATM    7  C   UNL     1      43.885 -18.711   6.325  1.00  0.00     0.262 C 
HETATM    8  N   UNL     1      42.699 -17.776   6.161  1.00  0.00    -0.059 N 
HETATM    9  H   UNL     1      42.140 -17.851   7.020  1.00  0.00     0.280 HD
HETATM   10  C   UNL     1      41.759 -18.265   5.074  1.00  0.00     0.276 C 
HETATM   11  C   UNL     1      43.888 -18.245   1.931  1.00  0.00     0.038 A 
HETATM   12  C   UNL     1      43.174 -17.365   1.109  1.00  0.00     0.013 A 
ENDROOT
BRANCH   8  13
HETATM   13  C   UNL     1      43.101 -16.312   6.077  1.00  0.00     0.299 C 
BRANCH  13  14
HETATM   14  C   UNL     1      41.981 -15.341   5.977  1.00  0.00     0.080 A 
HETATM   15  O   UNL     1      42.316 -14.028   5.882  1.00  0.00    -0.306 OA
HETATM   16  C   UNL     1      41.167 -13.305   5.731  1.00  0.00     0.120 A 
HETATM   17  C   UNL     1      40.087 -14.156   5.842  1.00  0.00     0.047 A 
HETATM   18  C   UNL     1      40.609 -15.468   5.990  1.00  0.00     0.038 A 
BRANCH  16  19
HETATM   19  S   UNL     1      41.177 -11.587   5.435  1.00  0.00    -0.025 SA
BRANCH  19  20
HETATM   20  C   UNL     1      40.385 -11.110   6.900  1.00  0.00     0.197 A 
HETATM   21  N   UNL     1      41.042 -10.827   8.064  1.00  0.00    -0.322 N 
HETATM   22  C   UNL     1      42.459 -10.841   8.320  1.00  0.00     0.159 C 
HETATM   23  C   UNL     1      40.068 -10.524   8.970  1.00  0.00     0.235 A 
HETATM   24  N   UNL     1      38.890 -10.586   8.390  1.00  0.00    -0.143 NA
HETATM   25  N   UNL     1      39.091 -10.950   7.083  1.00  0.00    -0.123 NA
ENDBRANCH  19  20
ENDBRANCH  16  19
ENDBRANCH  13  14
ENDBRANCH   8  13
BRANCH   1  26
HETATM   26  C   UNL     1      41.171 -15.803   0.683  1.00  0.00     0.105 C 
HETATM   27  C   UNL     1      39.778 -15.612   1.307  1.00  0.00     0.053 C 
BRANCH  26  28
HETATM   28  C   UNL     1      41.849 -14.401   0.520  1.00  0.00     0.276 C 
BRANCH  28  29
HETATM   29  N   UNL     1      41.823 -13.531   1.781  1.00  0.00    -0.076 N 
HETATM   30  H   UNL     1      41.038 -13.844   2.365  1.00  0.00     0.279 HD
HETATM   31  C   UNL     1      43.055 -13.665   2.641  1.00  0.00     0.269 C 
HETATM   32  C   UNL     1      41.569 -12.089   1.432  1.00  0.00     0.269 C 
ENDBRANCH  28  29
ENDBRANCH  26  28
BRANCH  26  33
HETATM   33  O   UNL     1      41.005 -16.342  -0.641  1.00  0.00    -0.384 OA
HETATM   34  H   UNL     1      40.245 -16.953  -0.648  1.00  0.00     0.211 HD
ENDBRANCH  26  33
ENDBRANCH   1  26
TORSDOF 8
ENDMDL
MODEL 7
REMARK VINA RESULT:      -7.2      3.417      7.129
REMARK  8 active torsions:
REMARK  status: ('A' for Active; 'I' for Inactive)
REMARK    1  A    between atoms: C_2  and  C_4 
REMARK    2  A    between atoms: C_2  and  C_29 
REMARK    3  A    between atoms: C_2  and  O_3 
REMARK    4  A    between atoms: N_11  and  C_13 
REMARK    5  A    between atoms: C_13  and  C_14 
REMARK    6  A    between atoms: C_16  and  S_17 
REMARK    7  A    between atoms: S_17  and  C_18 
REMARK    8  A    between atoms: C_29  and  N_30 
ROOT
HETATM    1  C   UNL     1      41.656 -16.277   0.957  1.00  0.00    -0.022 A 
HETATM    2  C   UNL     1      41.127 -16.528   2.240  1.00  0.00     0.022 A 
HETATM    3  C   UNL     1      41.754 -17.402   3.146  1.00  0.00     0.002 A 
HETATM    4  C   UNL     1      42.916 -18.056   2.748  1.00  0.00     0.076 A 
HETATM    5  O   UNL     1      43.534 -18.959   3.568  1.00  0.00    -0.349 OA
HETATM    6  C   UNL     1      44.176 -18.327   4.684  1.00  0.00     0.203 C 
HETATM    7  C   UNL     1      43.229 -18.166   5.882  1.00  0.00     0.262 C 
HETATM    8  N   UNL     1      42.129 -17.148   5.639  1.00  0.00    -0.059 N 
HETATM    9  H   UNL     1      41.532 -17.150   6.475  1.00  0.00     0.280 HD
HETATM   10  C   UNL     1      41.198 -17.597   4.527  1.00  0.00     0.276 C 
HETATM   11  C   UNL     1      43.449 -17.848   1.480  1.00  0.00     0.038 A 
HETATM   12  C   UNL     1      42.843 -16.942   0.603  1.00  0.00     0.013 A 
ENDROOT
BRANCH   8  13
HETATM   13  C   UNL     1      42.650 -15.723   5.529  1.00  0.00     0.299 C 
BRANCH  13  14
HETATM   14  C   UNL     1      41.629 -14.652   5.663  1.00  0.00     0.080 A 
HETATM   15  O   UNL     1      42.088 -13.394   5.893  1.00  0.00    -0.306 OA
HETATM   16  C   UNL     1      41.017 -12.547   5.917  1.00  0.00     0.120 A 
HETATM   17  C   UNL     1      39.860 -13.290   5.811  1.00  0.00     0.047 A 
HETATM   18  C   UNL     1      40.251 -14.643   5.638  1.00  0.00     0.038 A 
BRANCH  16  19
HETATM   19  S   UNL     1      41.197 -10.818   6.048  1.00  0.00    -0.025 SA
BRANCH  19  20
HETATM   20  C   UNL     1      40.279 -10.615   7.504  1.00  0.00     0.197 A 
HETATM   21  N   UNL     1      40.835 -10.537   8.749  1.00  0.00    -0.322 N 
HETATM   22  C   UNL     1      42.227 -10.585   9.115  1.00  0.00     0.159 C 
HETATM   23  C   UNL     1      39.785 -10.408   9.611  1.00  0.00     0.235 A 
HETATM   24  N   UNL     1      38.659 -10.376   8.934  1.00  0.00    -0.143 NA
HETATM   25  N   UNL     1      38.972 -10.501   7.604  1.00  0.00    -0.123 NA
ENDBRANCH  19  20
ENDBRANCH  16  19
ENDBRANCH  13  14
ENDBRANCH   8  13
BRANCH   1  26
HETATM   26  C   UNL     1      40.989 -15.243   0.043  1.00  0.00     0.105 C 
HETATM   27  C   UNL     1      41.582 -13.857   0.353  1.00  0.00     0.053 C 
BRANCH  26  28
HETATM   28  C   UNL     1      41.135 -15.524  -1.491  1.00  0.00     0.276 C 
BRANCH  28  29
HETATM   29  N   UNL     1      39.886 -15.204  -2.318  1.00  0.00    -0.076 N 
HETATM   30  H   UNL     1      39.065 -15.322  -1.711  1.00  0.00     0.279 HD
HETATM   31  C   UNL     1      39.829 -13.780  -2.812  1.00  0.00     0.269 C 
HETATM   32  C   UNL     1      39.736 -16.173  -3.461  1.00  0.00     0.269 C 
ENDBRANCH  28  29
ENDBRANCH  26  28
BRANCH  26  33
HETATM   33  O   UNL     1      39.580 -15.208   0.329  1.00  0.00    -0.384 OA
HETATM   34  H   UNL     1      39.196 -14.389  -0.036  1.00  0.00     0.211 HD
ENDBRANCH  26  33
ENDBRANCH   1  26
TORSDOF 8
ENDMDL
MODEL 8
REMARK VINA RESULT:      -7.2      3.241      6.144
REMARK  8 active torsions:
REMARK  status: ('A' for Active; 'I' for Inactive)
REMARK    1  A    between atoms: C_2  and  C_4 
REMARK    2  A    between atoms: C_2  and  C_29 
REMARK    3  A    between atoms: C_2  and  O_3 
REMARK    4  A    between atoms: N_11  and  C_13 
REMARK    5  A    between atoms: C_13  and  C_14 
REMARK    6  A    between atoms: C_16  and  S_17 
REMARK    7  A    between atoms: S_17  and  C_18 
REMARK    8  A    between atoms: C_29  and  N_30 
ROOT
HETATM    1  C   UNL     1      41.602 -17.361   2.683  1.00  0.00    -0.022 A 
HETATM    2  C   UNL     1      41.305 -16.772   3.929  1.00  0.00     0.022 A 
HETATM    3  C   UNL     1      41.967 -17.154   5.110  1.00  0.00     0.002 A 
HETATM    4  C   UNL     1      42.923 -18.163   5.043  1.00  0.00     0.076 A 
HETATM    5  O   UNL     1      43.555 -18.611   6.169  1.00  0.00    -0.349 OA
HETATM    6  C   UNL     1      44.487 -17.652   6.686  1.00  0.00     0.203 C 
HETATM    7  C   UNL     1      43.827 -16.675   7.670  1.00  0.00     0.262 C 
HETATM    8  N   UNL     1      42.857 -15.719   6.999  1.00  0.00    -0.059 N 
HETATM    9  H   UNL     1      42.441 -15.146   7.744  1.00  0.00     0.280 HD
HETATM   10  C   UNL     1      41.672 -16.461   6.408  1.00  0.00     0.276 C 
HETATM   11  C   UNL     1      43.221 -18.780   3.832  1.00  0.00     0.038 A 
HETATM   12  C   UNL     1      42.589 -18.361   2.656  1.00  0.00     0.013 A 
ENDROOT
BRANCH   8  13
HETATM   13  C   UNL     1      43.543 -14.727   6.073  1.00  0.00     0.299 C 
BRANCH  13  14
HETATM   14  C   UNL     1      42.685 -13.632   5.553  1.00  0.00     0.080 A 
HETATM   15  O   UNL     1      42.297 -12.683   6.444  1.00  0.00    -0.306 OA
HETATM   16  C   UNL     1      41.579 -11.734   5.772  1.00  0.00     0.120 A 
HETATM   17  C   UNL     1      41.418 -12.141   4.464  1.00  0.00     0.047 A 
HETATM   18  C   UNL     1      42.137 -13.357   4.319  1.00  0.00     0.038 A 
BRANCH  16  19
HETATM   19  S   UNL     1      41.019 -10.271   6.538  1.00  0.00    -0.025 SA
BRANCH  19  20
HETATM   20  C   UNL     1      39.731  -9.928   5.431  1.00  0.00     0.197 A 
HETATM   21  N   UNL     1      39.848  -9.078   4.367  1.00  0.00    -0.322 N 
HETATM   22  C   UNL     1      41.002  -8.332   3.938  1.00  0.00     0.159 C 
HETATM   23  C   UNL     1      38.619  -9.064   3.773  1.00  0.00     0.235 A 
HETATM   24  N   UNL     1      37.810  -9.880   4.413  1.00  0.00    -0.143 NA
HETATM   25  N   UNL     1      38.514 -10.428   5.455  1.00  0.00    -0.123 NA
ENDBRANCH  19  20
ENDBRANCH  16  19
ENDBRANCH  13  14
ENDBRANCH   8  13
BRANCH   1  26
HETATM   26  C   UNL     1      40.922 -16.843   1.411  1.00  0.00     0.105 C 
HETATM   27  C   UNL     1      39.772 -15.905   1.814  1.00  0.00     0.053 C 
BRANCH  26  28
HETATM   28  C   UNL     1      41.867 -16.086   0.417  1.00  0.00     0.276 C 
BRANCH  28  29
HETATM   29  N   UNL     1      41.168 -15.031  -0.448  1.00  0.00    -0.076 N 
HETATM   30  H   UNL     1      40.231 -14.871  -0.057  1.00  0.00     0.279 HD
HETATM   31  C   UNL     1      41.851 -13.687  -0.442  1.00  0.00     0.269 C 
HETATM   32  C   UNL     1      40.982 -15.531  -1.856  1.00  0.00     0.269 C 
ENDBRANCH  28  29
ENDBRANCH  26  28
BRANCH  26  33
HETATM   33  O   UNL     1      40.367 -17.958   0.691  1.00  0.00    -0.384 OA
HETATM   34  H   UNL     1      40.420 -18.759   1.245  1.00  0.00     0.211 HD
ENDBRANCH  26  33
ENDBRANCH   1  26
TORSDOF 8
ENDMDL
MODEL 9
REMARK VINA RESULT:      -7.2      2.943      5.970
REMARK  8 active torsions:
REMARK  status: ('A' for Active; 'I' for Inactive)
REMARK    1  A    between atoms: C_2  and  C_4 
REMARK    2  A    between atoms: C_2  and  C_29 
REMARK    3  A    between atoms: C_2  and  O_3 
REMARK    4  A    between atoms: N_11  and  C_13 
REMARK    5  A    between atoms: C_13  and  C_14 
REMARK    6  A    between atoms: C_16  and  S_17 
REMARK    7  A    between atoms: S_17  and  C_18 
REMARK    8  A    between atoms: C_29  and  N_30 
ROOT
HETATM    1  C   UNL     1      43.820 -16.688   6.570  1.00  0.00    -0.022 A 
HETATM    2  C   UNL     1      42.440 -16.470   6.375  1.00  0.00     0.022 A 
HETATM    3  C   UNL     1      41.912 -15.185   6.158  1.00  0.00     0.002 A 
HETATM    4  C   UNL     1      42.780 -14.097   6.164  1.00  0.00     0.076 A 
HETATM    5  O   UNL     1      42.313 -12.821   6.015  1.00  0.00    -0.349 OA
HETATM    6  C   UNL     1      41.866 -12.560   4.678  1.00  0.00     0.203 C 
HETATM    7  C   UNL     1      40.388 -12.927   4.478  1.00  0.00     0.262 C 
HETATM    8  N   UNL     1      40.136 -14.424   4.521  1.00  0.00    -0.059 N 
HETATM    9  H   UNL     1      39.121 -14.557   4.424  1.00  0.00     0.280 HD
HETATM   10  C   UNL     1      40.447 -14.997   5.891  1.00  0.00     0.276 C 
HETATM   11  C   UNL     1      44.143 -14.276   6.377  1.00  0.00     0.038 A 
HETATM   12  C   UNL     1      44.664 -15.564   6.547  1.00  0.00     0.013 A 
ENDROOT
BRANCH   8  13
HETATM   13  C   UNL     1      40.746 -15.164   3.341  1.00  0.00     0.299 C 
BRANCH  13  14
HETATM   14  C   UNL     1      40.251 -14.759   2.000  1.00  0.00     0.080 A 
HETATM   15  O   UNL     1      41.186 -14.368   1.095  1.00  0.00    -0.306 OA
HETATM   16  C   UNL     1      40.552 -14.102  -0.086  1.00  0.00     0.120 A 
HETATM   17  C   UNL     1      39.191 -14.221   0.104  1.00  0.00     0.047 A 
HETATM   18  C   UNL     1      38.996 -14.652   1.442  1.00  0.00     0.038 A 
BRANCH  16  19
HETATM   19  S   UNL     1      41.422 -13.703  -1.543  1.00  0.00    -0.025 SA
BRANCH  19  20
HETATM   20  C   UNL     1      40.500 -14.697  -2.623  1.00  0.00     0.197 A 
HETATM   21  N   UNL     1      39.435 -14.246  -3.350  1.00  0.00    -0.322 N 
HETATM   22  C   UNL     1      38.878 -12.920  -3.397  1.00  0.00     0.159 C 
HETATM   23  C   UNL     1      38.979 -15.331  -4.042  1.00  0.00     0.235 A 
HETATM   24  N   UNL     1      39.738 -16.373  -3.780  1.00  0.00    -0.143 NA
HETATM   25  N   UNL     1      40.700 -15.970  -2.889  1.00  0.00    -0.123 NA
ENDBRANCH  19  20
ENDBRANCH  16  19
ENDBRANCH  13  14
ENDBRANCH   8  13
BRANCH   1  26
HETATM   26  C   UNL     1      44.357 -18.117   6.706  1.00  0.00     0.105 C 
HETATM   27  C   UNL     1      44.112 -18.600   8.145  1.00  0.00     0.053 C 
BRANCH  26  28
HETATM   28  C   UNL     1      43.735 -19.155   5.711  1.00  0.00     0.276 C 
BRANCH  28  29
HETATM   29  N   UNL     1      44.408 -19.199   4.335  1.00  0.00    -0.076 N 
HETATM   30  H   UNL     1      45.264 -18.634   4.382  1.00  0.00     0.279 HD
HETATM   31  C   UNL     1      44.849 -20.579   3.916  1.00  0.00     0.269 C 
HETATM   32  C   UNL     1      43.523 -18.579   3.286  1.00  0.00     0.269 C 
ENDBRANCH  28  29
ENDBRANCH  26  28
BRANCH  26  33
HETATM   33  O   UNL     1      45.776 -18.107   6.465  1.00  0.00    -0.384 OA
HETATM   34  H   UNL     1      46.166 -17.308   6.866  1.00  0.00     0.211 HD
ENDBRANCH  26  33
ENDBRANCH   1  26
TORSDOF 8
ENDMDL
MODEL 10
REMARK VINA RESULT:      -7.2      2.949      4.534
REMARK  8 active torsions:
REMARK  status: ('A' for Active; 'I' for Inactive)
REMARK    1  A    between atoms: C_2  and  C_4 
REMARK    2  A    between atoms: C_2  and  C_29 
REMARK    3  A    between atoms: C_2  and  O_3 
REMARK    4  A    between atoms: N_11  and  C_13 
REMARK    5  A    between atoms: C_13  and  C_14 
REMARK    6  A    between atoms: C_16  and  S_17 
REMARK    7  A    between atoms: S_17  and  C_18 
REMARK    8  A    between atoms: C_29  and  N_30 
ROOT
HETATM    1  C   UNL     1      41.630 -14.883   5.277  1.00  0.00    -0.022 A 
HETATM    2  C   UNL     1      42.314 -14.936   4.045  1.00  0.00     0.022 A 
HETATM    3  C   UNL     1      43.050 -16.067   3.651  1.00  0.00     0.002 A 
HETATM    4  C   UNL     1      43.124 -17.153   4.519  1.00  0.00     0.076 A 
HETATM    5  O   UNL     1      43.872 -18.254   4.209  1.00  0.00    -0.349 OA
HETATM    6  C   UNL     1      43.283 -19.032   3.158  1.00  0.00     0.203 C 
HETATM    7  C   UNL     1      43.735 -18.563   1.767  1.00  0.00     0.262 C 
HETATM    8  N   UNL     1      43.180 -17.201   1.389  1.00  0.00    -0.059 N 
HETATM    9  H   UNL     1      43.576 -16.964   0.471  1.00  0.00     0.280 HD
HETATM   10  C   UNL     1      43.713 -16.115   2.305  1.00  0.00     0.276 C 
HETATM   11  C   UNL     1      42.480 -17.121   5.751  1.00  0.00     0.038 A 
HETATM   12  C   UNL     1      41.713 -16.009   6.115  1.00  0.00     0.013 A 
ENDROOT
BRANCH   8  13
HETATM   13  C   UNL     1      41.673 -17.209   1.181  1.00  0.00     0.299 C 
BRANCH  13  14
HETATM   14  C   UNL     1      41.094 -15.959   0.626  1.00  0.00     0.080 A 
HETATM   15  O   UNL     1      41.663 -15.470  -0.506  1.00  0.00    -0.306 OA
HETATM   16  C   UNL     1      40.957 -14.367  -0.897  1.00  0.00     0.120 A 
HETATM   17  C   UNL     1      39.999 -14.092   0.056  1.00  0.00     0.047 A 
HETATM   18  C   UNL     1      40.078 -15.120   1.032  1.00  0.00     0.038 A 
BRANCH  16  19
HETATM   19  S   UNL     1      41.287 -13.529  -2.389  1.00  0.00    -0.025 SA
BRANCH  19  20
HETATM   20  C   UNL     1      42.203 -12.226  -1.706  1.00  0.00     0.197 A 
HETATM   21  N   UNL     1      42.627 -11.139  -2.417  1.00  0.00    -0.322 N 
HETATM   22  C   UNL     1      42.408 -10.836  -3.808  1.00  0.00     0.159 C 
HETATM   23  C   UNL     1      43.327 -10.372  -1.531  1.00  0.00     0.235 A 
HETATM   24  N   UNL     1      43.305 -10.937  -0.344  1.00  0.00    -0.143 NA
HETATM   25  N   UNL     1      42.591 -12.104  -0.455  1.00  0.00    -0.123 NA
ENDBRANCH  19  20
ENDBRANCH  16  19
ENDBRANCH  13  14
ENDBRANCH   8  13
BRANCH   1  26
HETATM   26  C   UNL     1      40.763 -13.666   5.619  1.00  0.00     0.105 C 
HETATM   27  C   UNL     1      41.686 -12.492   5.987  1.00  0.00     0.053 C 
BRANCH  26  28
HETATM   28  C   UNL     1      39.789 -13.207   4.481  1.00  0.00     0.276 C 
BRANCH  28  29
HETATM   29  N   UNL     1      39.924 -11.734   4.084  1.00  0.00    -0.076 N 
HETATM   30  H   UNL     1      40.575 -11.287   4.741  1.00  0.00     0.279 HD
HETATM   31  C   UNL     1      40.514 -11.523   2.713  1.00  0.00     0.269 C 
HETATM   32  C   UNL     1      38.604 -11.021   4.214  1.00  0.00     0.269 C 
ENDBRANCH  28  29
ENDBRANCH  26  28
BRANCH  26  33
HETATM   33  O   UNL     1      39.949 -13.980   6.763  1.00  0.00    -0.384 OA
HETATM   34  H   UNL     1      39.147 -14.452   6.470  1.00  0.00     0.211 HD
ENDBRANCH  26  33
ENDBRANCH   1  26
TORSDOF 8
ENDMDL
