MODEL 1
REMARK VINA RESULT:      -7.8      0.000      0.000
REMARK  1 active torsions:
REMARK  status: ('A' for Active; 'I' for Inactive)
REMARK    1  A    between atoms: C_6  and  N_7 
ROOT
HETATM    1  N   UNL     1      42.749 -17.170   4.954  1.00  0.00    -0.320 N 
HETATM    2  C   UNL     1      41.404 -16.891   5.325  1.00  0.00     0.141 C 
HETATM    3  N   UNL     1      40.509 -17.830   5.443  1.00  0.00    -0.380 N 
HETATM    4  H   UNL     1      39.564 -17.592   5.706  1.00  0.00     0.158 HD
HETATM    5  H   UNL     1      40.784 -18.789   5.275  1.00  0.00     0.158 HD
HETATM    6  S   UNL     1      41.089 -15.224   5.567  1.00  0.00    -0.086 SA
HETATM    7  C   UNL     1      42.667 -14.760   4.732  1.00  0.00     0.093 C 
HETATM    8  C   UNL     1      43.615 -15.965   4.957  1.00  0.00     0.121 C 
HETATM    9  C   UNL     1      43.322 -13.501   5.259  1.00  0.00     0.158 C 
HETATM   10  S   UNL     1      44.429 -14.022   6.544  1.00  0.00     0.147 S 
HETATM   11  O   UNL     1      43.862 -13.660   7.825  1.00  0.00    -0.228 OA
HETATM   12  O   UNL     1      45.773 -13.649   6.156  1.00  0.00    -0.228 OA
HETATM   13  C   UNL     1      44.262 -15.771   6.328  1.00  0.00     0.167 C 
ENDROOT
BRANCH   1  14
HETATM   14  C   UNL     1      43.175 -18.254   4.156  1.00  0.00     0.048 A 
HETATM   15  C   UNL     1      42.806 -18.339   2.789  1.00  0.00    -0.034 A 
HETATM   16  C   UNL     1      43.184 -19.460   2.028  1.00  0.00     0.015 A 
HETATM   17  C   UNL     1      41.995 -17.279   2.091  1.00  0.00     0.050 C 
HETATM   18  C   UNL     1      43.940 -20.492   2.583  1.00  0.00    -0.061 A 
HETATM   19  C   UNL     1      44.369 -21.663   1.748  1.00  0.00     0.048 C 
HETATM   20  C   UNL     1      44.335 -20.389   3.916  1.00  0.00     0.015 A 
HETATM   21  C   UNL     1      43.943 -19.300   4.716  1.00  0.00    -0.034 A 
HETATM   22  C   UNL     1      44.386 -19.315   6.154  1.00  0.00     0.050 C 
ENDBRANCH   1  14
TORSDOF 1
ENDMDL
MODEL 2
REMARK VINA RESULT:      -7.8      0.208      1.960
REMARK  1 active torsions:
REMARK  status: ('A' for Active; 'I' for Inactive)
REMARK    1  A    between atoms: C_6  and  N_7 
ROOT
HETATM    1  N   UNL     1      42.630 -17.186   4.859  1.00  0.00    -0.320 N 
HETATM    2  C   UNL     1      41.280 -16.880   5.184  1.00  0.00     0.141 C 
HETATM    3  N   UNL     1      40.377 -17.807   5.336  1.00  0.00    -0.380 N 
HETATM    4  H   UNL     1      39.428 -17.550   5.564  1.00  0.00     0.158 HD
HETATM    5  H   UNL     1      40.650 -18.775   5.228  1.00  0.00     0.158 HD
HETATM    6  S   UNL     1      40.969 -15.201   5.323  1.00  0.00    -0.086 SA
HETATM    7  C   UNL     1      42.568 -14.793   4.498  1.00  0.00     0.093 C 
HETATM    8  C   UNL     1      43.503 -15.987   4.812  1.00  0.00     0.121 C 
HETATM    9  C   UNL     1      43.218 -13.509   4.967  1.00  0.00     0.158 C 
HETATM   10  S   UNL     1      44.294 -13.960   6.304  1.00  0.00     0.147 S 
HETATM   11  O   UNL     1      43.701 -13.524   7.549  1.00  0.00    -0.228 OA
HETATM   12  O   UNL     1      45.648 -13.616   5.924  1.00  0.00    -0.228 OA
HETATM   13  C   UNL     1      44.122 -15.718   6.184  1.00  0.00     0.167 C 
ENDROOT
BRANCH   1  14
HETATM   14  C   UNL     1      43.068 -18.316   4.133  1.00  0.00     0.048 A 
HETATM   15  C   UNL     1      43.885 -19.300   4.745  1.00  0.00    -0.034 A 
HETATM   16  C   UNL     1      44.366 -20.384   3.987  1.00  0.00     0.015 A 
HETATM   17  C   UNL     1      44.294 -19.243   6.193  1.00  0.00     0.050 C 
HETATM   18  C   UNL     1      44.038 -20.528   2.640  1.00  0.00    -0.061 A 
HETATM   19  C   UNL     1      44.527 -21.709   1.854  1.00  0.00     0.048 C 
HETATM   20  C   UNL     1      43.203 -19.580   2.049  1.00  0.00     0.015 A 
HETATM   21  C   UNL     1      42.735 -18.465   2.767  1.00  0.00    -0.034 A 
HETATM   22  C   UNL     1      41.880 -17.480   2.018  1.00  0.00     0.050 C 
ENDBRANCH   1  14
TORSDOF 1
ENDMDL
MODEL 3
REMARK VINA RESULT:      -7.5      2.834      3.685
REMARK  1 active torsions:
REMARK  status: ('A' for Active; 'I' for Inactive)
REMARK    1  A    between atoms: C_6  and  N_7 
ROOT
HETATM    1  N   UNL     1      41.700 -16.383   2.711  1.00  0.00    -0.320 N 
HETATM    2  C   UNL     1      40.905 -16.443   1.532  1.00  0.00     0.141 C 
HETATM    3  N   UNL     1      40.376 -17.556   1.110  1.00  0.00    -0.380 N 
HETATM    4  H   UNL     1      39.819 -17.559   0.268  1.00  0.00     0.158 HD
HETATM    5  H   UNL     1      40.527 -18.401   1.645  1.00  0.00     0.158 HD
HETATM    6  S   UNL     1      40.747 -14.937   0.731  1.00  0.00    -0.086 SA
HETATM    7  C   UNL     1      42.135 -14.220   1.713  1.00  0.00     0.093 C 
HETATM    8  C   UNL     1      42.135 -15.005   3.049  1.00  0.00     0.121 C 
HETATM    9  C   UNL     1      42.014 -12.739   2.002  1.00  0.00     0.158 C 
HETATM   10  S   UNL     1      41.161 -12.606   3.551  1.00  0.00     0.147 S 
HETATM   11  O   UNL     1      39.809 -12.156   3.304  1.00  0.00    -0.228 OA
HETATM   12  O   UNL     1      42.041 -11.945   4.491  1.00  0.00    -0.228 OA
HETATM   13  C   UNL     1      41.115 -14.327   3.963  1.00  0.00     0.167 C 
ENDROOT
BRANCH   1  14
HETATM   14  C   UNL     1      42.477 -17.439   3.236  1.00  0.00     0.048 A 
HETATM   15  C   UNL     1      42.189 -17.988   4.511  1.00  0.00    -0.034 A 
HETATM   16  C   UNL     1      43.015 -18.994   5.046  1.00  0.00     0.015 A 
HETATM   17  C   UNL     1      41.029 -17.533   5.358  1.00  0.00     0.050 C 
HETATM   18  C   UNL     1      44.110 -19.485   4.336  1.00  0.00    -0.061 A 
HETATM   19  C   UNL     1      44.959 -20.585   4.903  1.00  0.00     0.048 C 
HETATM   20  C   UNL     1      44.370 -18.972   3.066  1.00  0.00     0.015 A 
HETATM   21  C   UNL     1      43.587 -17.940   2.517  1.00  0.00    -0.034 A 
HETATM   22  C   UNL     1      43.985 -17.428   1.160  1.00  0.00     0.050 C 
ENDBRANCH   1  14
TORSDOF 1
ENDMDL
MODEL 4
REMARK VINA RESULT:      -7.5      2.863      3.515
REMARK  1 active torsions:
REMARK  status: ('A' for Active; 'I' for Inactive)
REMARK    1  A    between atoms: C_6  and  N_7 
ROOT
HETATM    1  N   UNL     1      41.704 -16.307   2.764  1.00  0.00    -0.320 N 
HETATM    2  C   UNL     1      40.912 -16.411   1.586  1.00  0.00     0.141 C 
HETATM    3  N   UNL     1      40.405 -17.544   1.191  1.00  0.00    -0.380 N 
HETATM    4  H   UNL     1      39.850 -17.578   0.348  1.00  0.00     0.158 HD
HETATM    5  H   UNL     1      40.572 -18.373   1.746  1.00  0.00     0.158 HD
HETATM    6  S   UNL     1      40.726 -14.928   0.750  1.00  0.00    -0.086 SA
HETATM    7  C   UNL     1      42.098 -14.161   1.716  1.00  0.00     0.093 C 
HETATM    8  C   UNL     1      42.112 -14.913   3.069  1.00  0.00     0.121 C 
HETATM    9  C   UNL     1      41.947 -12.676   1.969  1.00  0.00     0.158 C 
HETATM   10  S   UNL     1      41.090 -12.523   3.514  1.00  0.00     0.147 S 
HETATM   11  O   UNL     1      39.729 -12.105   3.255  1.00  0.00    -0.228 OA
HETATM   12  O   UNL     1      41.955 -11.822   4.439  1.00  0.00    -0.228 OA
HETATM   13  C   UNL     1      41.077 -14.234   3.966  1.00  0.00     0.167 C 
ENDROOT
BRANCH   1  14
HETATM   14  C   UNL     1      42.500 -17.335   3.315  1.00  0.00     0.048 A 
HETATM   15  C   UNL     1      43.608 -17.857   2.599  1.00  0.00    -0.034 A 
HETATM   16  C   UNL     1      44.349 -18.927   3.135  1.00  0.00     0.015 A 
HETATM   17  C   UNL     1      44.038 -17.332   1.255  1.00  0.00     0.050 C 
HETATM   18  C   UNL     1      44.032 -19.479   4.375  1.00  0.00    -0.061 A 
HETATM   19  C   UNL     1      44.855 -20.593   4.952  1.00  0.00     0.048 C 
HETATM   20  C   UNL     1      42.967 -18.939   5.096  1.00  0.00     0.015 A 
HETATM   21  C   UNL     1      42.182 -17.895   4.573  1.00  0.00    -0.034 A 
HETATM   22  C   UNL     1      41.027 -17.422   5.414  1.00  0.00     0.050 C 
ENDBRANCH   1  14
TORSDOF 1
ENDMDL
MODEL 5
REMARK VINA RESULT:      -6.9      2.974      4.108
REMARK  1 active torsions:
REMARK  status: ('A' for Active; 'I' for Inactive)
REMARK    1  A    between atoms: C_6  and  N_7 
ROOT
HETATM    1  N   UNL     1      42.693 -15.948   4.534  1.00  0.00    -0.320 N 
HETATM    2  C   UNL     1      43.184 -14.800   5.215  1.00  0.00     0.141 C 
HETATM    3  N   UNL     1      44.413 -14.721   5.641  1.00  0.00    -0.380 N 
HETATM    4  H   UNL     1      44.724 -13.889   6.122  1.00  0.00     0.158 HD
HETATM    5  H   UNL     1      45.038 -15.498   5.472  1.00  0.00     0.158 HD
HETATM    6  S   UNL     1      42.008 -13.574   5.433  1.00  0.00    -0.086 SA
HETATM    7  C   UNL     1      40.647 -14.744   5.007  1.00  0.00     0.093 C 
HETATM    8  C   UNL     1      41.292 -15.793   4.068  1.00  0.00     0.121 C 
HETATM    9  C   UNL     1      39.458 -14.113   4.312  1.00  0.00     0.158 C 
HETATM   10  S   UNL     1      39.785 -14.229   2.572  1.00  0.00     0.147 S 
HETATM   11  O   UNL     1      40.133 -12.917   2.073  1.00  0.00    -0.228 OA
HETATM   12  O   UNL     1      38.743 -15.037   1.974  1.00  0.00    -0.228 OA
HETATM   13  C   UNL     1      41.257 -15.209   2.656  1.00  0.00     0.167 C 
ENDROOT
BRANCH   1  14
HETATM   14  C   UNL     1      43.161 -17.270   4.704  1.00  0.00     0.048 A 
HETATM   15  C   UNL     1      43.019 -17.936   5.948  1.00  0.00    -0.034 A 
HETATM   16  C   UNL     1      43.552 -19.227   6.119  1.00  0.00     0.015 A 
HETATM   17  C   UNL     1      42.330 -17.318   7.136  1.00  0.00     0.050 C 
HETATM   18  C   UNL     1      44.203 -19.885   5.076  1.00  0.00    -0.061 A 
HETATM   19  C   UNL     1      44.731 -21.278   5.260  1.00  0.00     0.048 C 
HETATM   20  C   UNL     1      44.308 -19.246   3.842  1.00  0.00     0.015 A 
HETATM   21  C   UNL     1      43.820 -17.940   3.648  1.00  0.00    -0.034 A 
HETATM   22  C   UNL     1      44.029 -17.327   2.290  1.00  0.00     0.050 C 
ENDBRANCH   1  14
TORSDOF 1
ENDMDL
MODEL 6
REMARK VINA RESULT:      -6.9      3.158      4.938
REMARK  1 active torsions:
REMARK  status: ('A' for Active; 'I' for Inactive)
REMARK    1  A    between atoms: C_6  and  N_7 
ROOT
HETATM    1  N   UNL     1      42.197 -16.469   4.708  1.00  0.00    -0.320 N 
HETATM    2  C   UNL     1      41.513 -16.401   5.953  1.00  0.00     0.141 C 
HETATM    3  N   UNL     1      40.351 -15.824   6.075  1.00  0.00    -0.380 N 
HETATM    4  H   UNL     1      39.898 -15.795   6.977  1.00  0.00     0.158 HD
HETATM    5  H   UNL     1      39.920 -15.421   5.254  1.00  0.00     0.158 HD
HETATM    6  S   UNL     1      42.372 -17.118   7.250  1.00  0.00    -0.086 SA
HETATM    7  C   UNL     1      43.927 -17.154   6.257  1.00  0.00     0.093 C 
HETATM    8  C   UNL     1      43.464 -17.238   4.782  1.00  0.00     0.121 C 
HETATM    9  C   UNL     1      44.851 -18.315   6.560  1.00  0.00     0.158 C 
HETATM   10  S   UNL     1      44.389 -19.617   5.448  1.00  0.00     0.147 S 
HETATM   11  O   UNL     1      43.684 -20.639   6.190  1.00  0.00    -0.228 OA
HETATM   12  O   UNL     1      45.530 -19.914   4.608  1.00  0.00    -0.228 OA
HETATM   13  C   UNL     1      43.214 -18.715   4.477  1.00  0.00     0.167 C 
ENDROOT
BRANCH   1  14
HETATM   14  C   UNL     1      42.083 -15.536   3.654  1.00  0.00     0.048 A 
HETATM   15  C   UNL     1      41.348 -15.850   2.483  1.00  0.00    -0.034 A 
HETATM   16  C   UNL     1      41.302 -14.934   1.415  1.00  0.00     0.015 A 
HETATM   17  C   UNL     1      40.608 -17.149   2.302  1.00  0.00     0.050 C 
HETATM   18  C   UNL     1      41.951 -13.702   1.490  1.00  0.00    -0.061 A 
HETATM   19  C   UNL     1      41.861 -12.719   0.359  1.00  0.00     0.048 C 
HETATM   20  C   UNL     1      42.642 -13.378   2.656  1.00  0.00     0.015 A 
HETATM   21  C   UNL     1      42.739 -14.285   3.727  1.00  0.00    -0.034 A 
HETATM   22  C   UNL     1      43.549 -13.851   4.919  1.00  0.00     0.050 C 
ENDBRANCH   1  14
TORSDOF 1
ENDMDL
MODEL 7
REMARK VINA RESULT:      -6.9      3.425      4.322
REMARK  1 active torsions:
REMARK  status: ('A' for Active; 'I' for Inactive)
REMARK    1  A    between atoms: C_6  and  N_7 
ROOT
HETATM    1  N   UNL     1      42.668 -15.455   3.390  1.00  0.00    -0.320 N 
HETATM    2  C   UNL     1      43.268 -14.197   3.672  1.00  0.00     0.141 C 
HETATM    3  N   UNL     1      44.556 -14.059   3.809  1.00  0.00    -0.380 N 
HETATM    4  H   UNL     1      44.944 -13.149   4.012  1.00  0.00     0.158 HD
HETATM    5  H   UNL     1      45.147 -14.872   3.700  1.00  0.00     0.158 HD
HETATM    6  S   UNL     1      42.139 -12.918   3.837  1.00  0.00    -0.086 SA
HETATM    7  C   UNL     1      40.741 -14.113   3.979  1.00  0.00     0.093 C 
HETATM    8  C   UNL     1      41.199 -15.369   3.197  1.00  0.00     0.121 C 
HETATM    9  C   UNL     1      39.424 -13.624   3.416  1.00  0.00     0.158 C 
HETATM   10  S   UNL     1      39.388 -14.145   1.721  1.00  0.00     0.147 S 
HETATM   11  O   UNL     1      39.602 -12.993   0.872  1.00  0.00    -0.228 OA
HETATM   12  O   UNL     1      38.260 -15.037   1.550  1.00  0.00    -0.228 OA
HETATM   13  C   UNL     1      40.863 -15.123   1.726  1.00  0.00     0.167 C 
ENDROOT
BRANCH   1  14
HETATM   14  C   UNL     1      43.184 -16.716   3.760  1.00  0.00     0.048 A 
HETATM   15  C   UNL     1      43.723 -17.595   2.787  1.00  0.00    -0.034 A 
HETATM   16  C   UNL     1      44.171 -18.874   3.165  1.00  0.00     0.015 A 
HETATM   17  C   UNL     1      43.829 -17.237   1.327  1.00  0.00     0.050 C 
HETATM   18  C   UNL     1      44.119 -19.296   4.493  1.00  0.00    -0.061 A 
HETATM   19  C   UNL     1      44.637 -20.648   4.889  1.00  0.00     0.048 C 
HETATM   20  C   UNL     1      43.625 -18.417   5.456  1.00  0.00     0.015 A 
HETATM   21  C   UNL     1      43.134 -17.145   5.107  1.00  0.00    -0.034 A 
HETATM   22  C   UNL     1      42.580 -16.297   6.219  1.00  0.00     0.050 C 
ENDBRANCH   1  14
TORSDOF 1
ENDMDL
MODEL 8
REMARK VINA RESULT:      -6.9      3.165      5.110
REMARK  1 active torsions:
REMARK  status: ('A' for Active; 'I' for Inactive)
REMARK    1  A    between atoms: C_6  and  N_7 
ROOT
HETATM    1  N   UNL     1      42.239 -16.482   4.684  1.00  0.00    -0.320 N 
HETATM    2  C   UNL     1      41.536 -16.393   5.917  1.00  0.00     0.141 C 
HETATM    3  N   UNL     1      40.381 -15.800   6.016  1.00  0.00    -0.380 N 
HETATM    4  H   UNL     1      39.914 -15.755   6.910  1.00  0.00     0.158 HD
HETATM    5  H   UNL     1      39.967 -15.399   5.184  1.00  0.00     0.158 HD
HETATM    6  S   UNL     1      42.366 -17.108   7.235  1.00  0.00    -0.086 SA
HETATM    7  C   UNL     1      43.935 -17.174   6.266  1.00  0.00     0.093 C 
HETATM    8  C   UNL     1      43.494 -17.267   4.785  1.00  0.00     0.121 C 
HETATM    9  C   UNL     1      44.839 -18.343   6.595  1.00  0.00     0.158 C 
HETATM   10  S   UNL     1      44.377 -19.650   5.489  1.00  0.00     0.147 S 
HETATM   11  O   UNL     1      43.648 -20.655   6.231  1.00  0.00    -0.228 OA
HETATM   12  O   UNL     1      45.527 -19.971   4.669  1.00  0.00    -0.228 OA
HETATM   13  C   UNL     1      43.230 -18.744   4.491  1.00  0.00     0.167 C 
ENDROOT
BRANCH   1  14
HETATM   14  C   UNL     1      42.153 -15.558   3.619  1.00  0.00     0.048 A 
HETATM   15  C   UNL     1      42.800 -14.299   3.696  1.00  0.00    -0.034 A 
HETATM   16  C   UNL     1      42.648 -13.365   2.654  1.00  0.00     0.015 A 
HETATM   17  C   UNL     1      43.649 -13.883   4.869  1.00  0.00     0.050 C 
HETATM   18  C   UNL     1      41.886 -13.659   1.524  1.00  0.00    -0.061 A 
HETATM   19  C   UNL     1      41.765 -12.669   0.403  1.00  0.00     0.048 C 
HETATM   20  C   UNL     1      41.282 -14.913   1.431  1.00  0.00     0.015 A 
HETATM   21  C   UNL     1      41.383 -15.855   2.471  1.00  0.00    -0.034 A 
HETATM   22  C   UNL     1      40.652 -17.157   2.286  1.00  0.00     0.050 C 
ENDBRANCH   1  14
TORSDOF 1
ENDMDL
MODEL 9
REMARK VINA RESULT:      -6.8      1.948      2.149
REMARK  1 active torsions:
REMARK  status: ('A' for Active; 'I' for Inactive)
REMARK    1  A    between atoms: C_6  and  N_7 
ROOT
HETATM    1  N   UNL     1      42.613 -17.070   4.249  1.00  0.00    -0.320 N 
HETATM    2  C   UNL     1      41.808 -17.025   5.421  1.00  0.00     0.141 C 
HETATM    3  N   UNL     1      41.909 -17.915   6.366  1.00  0.00    -0.380 N 
HETATM    4  H   UNL     1      41.318 -17.850   7.182  1.00  0.00     0.158 HD
HETATM    5  H   UNL     1      42.590 -18.656   6.266  1.00  0.00     0.158 HD
HETATM    6  S   UNL     1      40.698 -15.720   5.442  1.00  0.00    -0.086 SA
HETATM    7  C   UNL     1      40.953 -15.417   3.639  1.00  0.00     0.093 C 
HETATM    8  C   UNL     1      42.389 -15.916   3.343  1.00  0.00     0.121 C 
HETATM    9  C   UNL     1      40.826 -13.971   3.211  1.00  0.00     0.158 C 
HETATM   10  S   UNL     1      42.456 -13.279   3.318  1.00  0.00     0.147 S 
HETATM   11  O   UNL     1      42.520 -12.408   4.470  1.00  0.00    -0.228 OA
HETATM   12  O   UNL     1      42.846 -12.847   1.993  1.00  0.00    -0.228 OA
HETATM   13  C   UNL     1      43.338 -14.769   3.689  1.00  0.00     0.167 C 
ENDROOT
BRANCH   1  14
HETATM   14  C   UNL     1      43.153 -18.237   3.665  1.00  0.00     0.048 A 
HETATM   15  C   UNL     1      42.606 -18.771   2.470  1.00  0.00    -0.034 A 
HETATM   16  C   UNL     1      43.113 -19.972   1.940  1.00  0.00     0.015 A 
HETATM   17  C   UNL     1      41.471 -18.119   1.724  1.00  0.00     0.050 C 
HETATM   18  C   UNL     1      44.167 -20.647   2.556  1.00  0.00    -0.061 A 
HETATM   19  C   UNL     1      44.723 -21.906   1.958  1.00  0.00     0.048 C 
HETATM   20  C   UNL     1      44.729 -20.102   3.709  1.00  0.00     0.015 A 
HETATM   21  C   UNL     1      44.222 -18.923   4.286  1.00  0.00    -0.034 A 
HETATM   22  C   UNL     1      44.873 -18.450   5.557  1.00  0.00     0.050 C 
ENDBRANCH   1  14
TORSDOF 1
ENDMDL
MODEL 10
REMARK VINA RESULT:      -6.8      2.926      3.779
REMARK  1 active torsions:
REMARK  status: ('A' for Active; 'I' for Inactive)
REMARK    1  A    between atoms: C_6  and  N_7 
ROOT
HETATM    1  N   UNL     1      42.791 -15.934   4.742  1.00  0.00    -0.320 N 
HETATM    2  C   UNL     1      43.263 -14.782   5.431  1.00  0.00     0.141 C 
HETATM    3  N   UNL     1      44.487 -14.689   5.866  1.00  0.00    -0.380 N 
HETATM    4  H   UNL     1      44.784 -13.856   6.353  1.00  0.00     0.158 HD
HETATM    5  H   UNL     1      45.124 -15.457   5.698  1.00  0.00     0.158 HD
HETATM    6  S   UNL     1      42.069 -13.572   5.647  1.00  0.00    -0.086 SA
HETATM    7  C   UNL     1      40.726 -14.758   5.206  1.00  0.00     0.093 C 
HETATM    8  C   UNL     1      41.392 -15.794   4.267  1.00  0.00     0.121 C 
HETATM    9  C   UNL     1      39.534 -14.140   4.506  1.00  0.00     0.158 C 
HETATM   10  S   UNL     1      39.874 -14.243   2.768  1.00  0.00     0.147 S 
HETATM   11  O   UNL     1      40.208 -12.924   2.277  1.00  0.00    -0.228 OA
HETATM   12  O   UNL     1      38.847 -15.062   2.159  1.00  0.00    -0.228 OA
HETATM   13  C   UNL     1      41.358 -15.204   2.858  1.00  0.00     0.167 C 
ENDROOT
BRANCH   1  14
HETATM   14  C   UNL     1      43.275 -17.250   4.909  1.00  0.00     0.048 A 
HETATM   15  C   UNL     1      43.854 -17.954   3.822  1.00  0.00    -0.034 A 
HETATM   16  C   UNL     1      44.268 -19.288   3.991  1.00  0.00     0.015 A 
HETATM   17  C   UNL     1      44.039 -17.347   2.456  1.00  0.00     0.050 C 
HETATM   18  C   UNL     1      44.144 -19.936   5.219  1.00  0.00    -0.061 A 
HETATM   19  C   UNL     1      44.627 -21.346   5.395  1.00  0.00     0.048 C 
HETATM   20  C   UNL     1      43.610 -19.230   6.297  1.00  0.00     0.015 A 
HETATM   21  C   UNL     1      43.151 -17.908   6.154  1.00  0.00    -0.034 A 
HETATM   22  C   UNL     1      42.550 -17.258   7.370  1.00  0.00     0.050 C 
ENDBRANCH   1  14
TORSDOF 1
ENDMDL
