MODEL 1
REMARK VINA RESULT:      -8.0      0.000      0.000
REMARK  5 active torsions:
REMARK  status: ('A' for Active; 'I' for Inactive)
REMARK       I    between atoms: C_2  and  N_3 
REMARK    1  A    between atoms: N_3  and  C_4 
REMARK    2  A    between atoms: C_7  and  C_8 
REMARK    3  A    between atoms: C_8  and  N_9 
REMARK    4  A    between atoms: C_12  and  C_13 
REMARK    5  A    between atoms: C_14  and  O_15 
ROOT
HETATM    1  N   UNL     1      40.655 -14.081   2.475  1.00  0.00    -0.060 N 
HETATM    2  H   UNL     1      40.358 -14.572   1.626  1.00  0.00     0.280 HD
HETATM    3  C   UNL     1      41.979 -13.365   2.185  1.00  0.00     0.272 C 
HETATM    4  C   UNL     1      41.970 -12.397   0.973  1.00  0.00     0.190 C 
HETATM    5  O   UNL     1      41.073 -11.290   1.227  1.00  0.00    -0.339 OA
HETATM    6  C   UNL     1      39.770 -11.519   0.891  1.00  0.00     0.077 A 
HETATM    7  C   UNL     1      38.985 -12.422   1.605  1.00  0.00     0.001 A 
HETATM    8  C   UNL     1      39.541 -13.117   2.804  1.00  0.00     0.276 C 
HETATM    9  C   UNL     1      39.220 -10.749  -0.132  1.00  0.00     0.037 A 
HETATM   10  C   UNL     1      37.891 -10.933  -0.506  1.00  0.00     0.003 A 
HETATM   11  C   UNL     1      37.108 -11.869   0.163  1.00  0.00     0.001 A 
HETATM   12  C   UNL     1      37.647 -12.605   1.220  1.00  0.00     0.012 A 
ENDROOT
BRANCH   1  13
HETATM   13  C   UNL     1      40.781 -15.112   3.576  1.00  0.00     0.273 C 
BRANCH  13  14
HETATM   14  C   UNL     1      41.435 -16.402   3.164  1.00  0.00    -0.032 A 
HETATM   15  C   UNL     1      42.103 -17.184   4.117  1.00  0.00     0.011 A 
HETATM   16  C   UNL     1      42.709 -18.391   3.755  1.00  0.00     0.030 A 
HETATM   17  C   UNL     1      42.655 -18.850   2.440  1.00  0.00     0.034 A 
HETATM   18  C   UNL     1      41.990 -18.070   1.485  1.00  0.00     0.030 A 
HETATM   19  C   UNL     1      41.389 -16.855   1.840  1.00  0.00     0.011 A 
BRANCH  17  20
HETATM   20  N   UNL     1      43.216 -20.071   2.010  1.00  0.00    -0.328 N 
HETATM   21  C   UNL     1      44.286 -20.745   2.577  1.00  0.00     0.218 C 
HETATM   22  C   UNL     1      44.575 -22.063   1.902  1.00  0.00     0.117 C 
HETATM   23  O   UNL     1      44.951 -20.378   3.539  1.00  0.00    -0.274 OA
HETATM   24  H   UNL     1      42.781 -20.509   1.207  1.00  0.00     0.169 HD
ENDBRANCH  17  20
ENDBRANCH  13  14
ENDBRANCH   1  13
BRANCH   4  25
HETATM   25  C   UNL     1      41.928 -12.986  -0.444  1.00  0.00     0.006 A 
HETATM   26  C   UNL     1      42.690 -12.372  -1.469  1.00  0.00     0.077 A 
HETATM   27  C   UNL     1      42.646 -12.870  -2.776  1.00  0.00     0.037 A 
HETATM   28  C   UNL     1      41.882 -13.995  -3.077  1.00  0.00     0.003 A 
HETATM   29  C   UNL     1      41.175 -14.642  -2.072  1.00  0.00     0.001 A 
HETATM   30  C   UNL     1      41.207 -14.150  -0.765  1.00  0.00     0.012 A 
BRANCH  26  31
HETATM   31  O   UNL     1      43.466 -11.310  -1.079  1.00  0.00    -0.355 OA
HETATM   32  C   UNL     1      43.175 -10.034  -1.641  1.00  0.00     0.210 C 
ENDBRANCH  26  31
ENDBRANCH   4  25
TORSDOF 5
ENDMDL
MODEL 2
REMARK VINA RESULT:      -7.9      1.767      3.094
REMARK  5 active torsions:
REMARK  status: ('A' for Active; 'I' for Inactive)
REMARK       I    between atoms: C_2  and  N_3 
REMARK    1  A    between atoms: N_3  and  C_4 
REMARK    2  A    between atoms: C_7  and  C_8 
REMARK    3  A    between atoms: C_8  and  N_9 
REMARK    4  A    between atoms: C_12  and  C_13 
REMARK    5  A    between atoms: C_14  and  O_15 
ROOT
HETATM    1  N   UNL     1      41.620 -13.982   1.287  1.00  0.00    -0.060 N 
HETATM    2  H   UNL     1      42.365 -13.751   0.622  1.00  0.00     0.280 HD
HETATM    3  C   UNL     1      40.817 -12.710   1.579  1.00  0.00     0.272 C 
HETATM    4  C   UNL     1      40.232 -11.984   0.339  1.00  0.00     0.190 C 
HETATM    5  O   UNL     1      39.248 -12.825  -0.311  1.00  0.00    -0.339 OA
HETATM    6  C   UNL     1      39.759 -13.701  -1.225  1.00  0.00     0.077 A 
HETATM    7  C   UNL     1      40.541 -14.785  -0.831  1.00  0.00     0.001 A 
HETATM    8  C   UNL     1      40.787 -15.048   0.618  1.00  0.00     0.276 C 
HETATM    9  C   UNL     1      39.393 -13.533  -2.559  1.00  0.00     0.037 A 
HETATM   10  C   UNL     1      39.875 -14.407  -3.530  1.00  0.00     0.003 A 
HETATM   11  C   UNL     1      40.700 -15.464  -3.160  1.00  0.00     0.001 A 
HETATM   12  C   UNL     1      41.026 -15.661  -1.816  1.00  0.00     0.012 A 
ENDROOT
BRANCH   1  13
HETATM   13  C   UNL     1      42.278 -14.551   2.527  1.00  0.00     0.273 C 
BRANCH  13  14
HETATM   14  C   UNL     1      42.650 -16.005   2.436  1.00  0.00    -0.032 A 
HETATM   15  C   UNL     1      42.082 -16.929   3.324  1.00  0.00     0.011 A 
HETATM   16  C   UNL     1      42.409 -18.287   3.250  1.00  0.00     0.030 A 
HETATM   17  C   UNL     1      43.299 -18.755   2.285  1.00  0.00     0.034 A 
HETATM   18  C   UNL     1      43.869 -17.833   1.398  1.00  0.00     0.030 A 
HETATM   19  C   UNL     1      43.553 -16.470   1.473  1.00  0.00     0.011 A 
BRANCH  17  20
HETATM   20  N   UNL     1      43.649 -20.112   2.132  1.00  0.00    -0.328 N 
HETATM   21  C   UNL     1      44.474 -20.861   2.956  1.00  0.00     0.218 C 
HETATM   22  C   UNL     1      44.574 -22.306   2.532  1.00  0.00     0.117 C 
HETATM   23  O   UNL     1      45.067 -20.460   3.951  1.00  0.00    -0.274 OA
HETATM   24  H   UNL     1      43.245 -20.596   1.340  1.00  0.00     0.169 HD
ENDBRANCH  17  20
ENDBRANCH  13  14
ENDBRANCH   1  13
BRANCH   4  25
HETATM   25  C   UNL     1      41.185 -11.221  -0.590  1.00  0.00     0.006 A 
HETATM   26  C   UNL     1      40.690 -10.122  -1.336  1.00  0.00     0.077 A 
HETATM   27  C   UNL     1      41.530  -9.428  -2.213  1.00  0.00     0.037 A 
HETATM   28  C   UNL     1      42.870  -9.785  -2.337  1.00  0.00     0.003 A 
HETATM   29  C   UNL     1      43.385 -10.822  -1.570  1.00  0.00     0.001 A 
HETATM   30  C   UNL     1      42.554 -11.526  -0.696  1.00  0.00     0.012 A 
BRANCH  26  31
HETATM   31  O   UNL     1      39.377  -9.794  -1.111  1.00  0.00    -0.355 OA
HETATM   32  C   UNL     1      38.476  -9.867  -2.211  1.00  0.00     0.210 C 
ENDBRANCH  26  31
ENDBRANCH   4  25
TORSDOF 5
ENDMDL
MODEL 3
REMARK VINA RESULT:      -7.9      1.994      2.635
REMARK  5 active torsions:
REMARK  status: ('A' for Active; 'I' for Inactive)
REMARK       I    between atoms: C_2  and  N_3 
REMARK    1  A    between atoms: N_3  and  C_4 
REMARK    2  A    between atoms: C_7  and  C_8 
REMARK    3  A    between atoms: C_8  and  N_9 
REMARK    4  A    between atoms: C_12  and  C_13 
REMARK    5  A    between atoms: C_14  and  O_15 
ROOT
HETATM    1  N   UNL     1      40.780 -15.906   0.773  1.00  0.00    -0.060 N 
HETATM    2  H   UNL     1      40.451 -15.788  -0.191  1.00  0.00     0.280 HD
HETATM    3  C   UNL     1      42.077 -15.108   0.945  1.00  0.00     0.272 C 
HETATM    4  C   UNL     1      41.996 -13.603   0.579  1.00  0.00     0.190 C 
HETATM    5  O   UNL     1      41.094 -12.919   1.482  1.00  0.00    -0.339 OA
HETATM    6  C   UNL     1      39.780 -12.949   1.111  1.00  0.00     0.077 A 
HETATM    7  C   UNL     1      39.045 -14.132   1.146  1.00  0.00     0.001 A 
HETATM    8  C   UNL     1      39.668 -15.391   1.653  1.00  0.00     0.276 C 
HETATM    9  C   UNL     1      39.171 -11.738   0.788  1.00  0.00     0.037 A 
HETATM   10  C   UNL     1      37.829 -11.711   0.417  1.00  0.00     0.003 A 
HETATM   11  C   UNL     1      37.093 -12.892   0.395  1.00  0.00     0.001 A 
HETATM   12  C   UNL     1      37.693 -14.097   0.766  1.00  0.00     0.012 A 
ENDROOT
BRANCH   1  13
HETATM   13  C   UNL     1      40.974 -17.388   1.009  1.00  0.00     0.273 C 
BRANCH  13  14
HETATM   14  C   UNL     1      41.576 -17.744   2.342  1.00  0.00    -0.032 A 
HETATM   15  C   UNL     1      42.780 -18.459   2.397  1.00  0.00     0.011 A 
HETATM   16  C   UNL     1      43.359 -18.791   3.627  1.00  0.00     0.030 A 
HETATM   17  C   UNL     1      42.757 -18.411   4.825  1.00  0.00     0.034 A 
HETATM   18  C   UNL     1      41.552 -17.698   4.771  1.00  0.00     0.030 A 
HETATM   19  C   UNL     1      40.962 -17.371   3.543  1.00  0.00     0.011 A 
BRANCH  17  20
HETATM   20  N   UNL     1      43.299 -18.683   6.098  1.00  0.00    -0.328 N 
HETATM   21  C   UNL     1      44.004 -17.810   6.910  1.00  0.00     0.218 C 
HETATM   22  C   UNL     1      44.376 -18.415   8.241  1.00  0.00     0.117 C 
HETATM   23  O   UNL     1      44.304 -16.651   6.646  1.00  0.00    -0.274 OA
HETATM   24  H   UNL     1      43.145 -19.615   6.463  1.00  0.00     0.169 HD
ENDBRANCH  17  20
ENDBRANCH  13  14
ENDBRANCH   1  13
BRANCH   4  25
HETATM   25  C   UNL     1      41.897 -13.205  -0.900  1.00  0.00     0.006 A 
HETATM   26  C   UNL     1      42.482 -11.988  -1.328  1.00  0.00     0.077 A 
HETATM   27  C   UNL     1      42.381 -11.587  -2.665  1.00  0.00     0.037 A 
HETATM   28  C   UNL     1      41.734 -12.395  -3.597  1.00  0.00     0.003 A 
HETATM   29  C   UNL     1      41.205 -13.618  -3.205  1.00  0.00     0.001 A 
HETATM   30  C   UNL     1      41.296 -14.026  -1.872  1.00  0.00     0.012 A 
BRANCH  26  31
HETATM   31  O   UNL     1      43.156 -11.280  -0.365  1.00  0.00    -0.355 OA
HETATM   32  C   UNL     1      43.130  -9.859  -0.446  1.00  0.00     0.210 C 
ENDBRANCH  26  31
ENDBRANCH   4  25
TORSDOF 5
ENDMDL
MODEL 4
REMARK VINA RESULT:      -7.6      2.657      8.087
REMARK  5 active torsions:
REMARK  status: ('A' for Active; 'I' for Inactive)
REMARK       I    between atoms: C_2  and  N_3 
REMARK    1  A    between atoms: N_3  and  C_4 
REMARK    2  A    between atoms: C_7  and  C_8 
REMARK    3  A    between atoms: C_8  and  N_9 
REMARK    4  A    between atoms: C_12  and  C_13 
REMARK    5  A    between atoms: C_14  and  O_15 
ROOT
HETATM    1  N   UNL     1      40.784 -16.062   3.613  1.00  0.00    -0.060 N 
HETATM    2  H   UNL     1      41.676 -16.226   3.135  1.00  0.00     0.280 HD
HETATM    3  C   UNL     1      40.414 -17.325   4.397  1.00  0.00     0.272 C 
HETATM    4  C   UNL     1      41.483 -17.834   5.399  1.00  0.00     0.190 C 
HETATM    5  O   UNL     1      41.675 -16.863   6.457  1.00  0.00    -0.339 OA
HETATM    6  C   UNL     1      42.587 -15.886   6.177  1.00  0.00     0.077 A 
HETATM    7  C   UNL     1      42.330 -14.908   5.218  1.00  0.00     0.001 A 
HETATM    8  C   UNL     1      41.013 -14.873   4.514  1.00  0.00     0.276 C 
HETATM    9  C   UNL     1      43.745 -15.839   6.951  1.00  0.00     0.037 A 
HETATM   10  C   UNL     1      44.700 -14.854   6.717  1.00  0.00     0.003 A 
HETATM   11  C   UNL     1      44.483 -13.901   5.727  1.00  0.00     0.001 A 
HETATM   12  C   UNL     1      43.299 -13.920   4.985  1.00  0.00     0.012 A 
ENDROOT
BRANCH   1  13
HETATM   13  C   UNL     1      39.758 -15.713   2.557  1.00  0.00     0.273 C 
BRANCH  13  14
HETATM   14  C   UNL     1      40.235 -14.751   1.503  1.00  0.00    -0.032 A 
HETATM   15  C   UNL     1      39.696 -13.459   1.439  1.00  0.00     0.011 A 
HETATM   16  C   UNL     1      40.133 -12.548   0.471  1.00  0.00     0.030 A 
HETATM   17  C   UNL     1      41.122 -12.901  -0.445  1.00  0.00     0.034 A 
HETATM   18  C   UNL     1      41.661 -14.193  -0.384  1.00  0.00     0.030 A 
HETATM   19  C   UNL     1      41.220 -15.112   0.576  1.00  0.00     0.011 A 
BRANCH  17  20
HETATM   20  N   UNL     1      41.633 -12.025  -1.425  1.00  0.00    -0.328 N 
HETATM   21  C   UNL     1      42.667 -11.114  -1.275  1.00  0.00     0.218 C 
HETATM   22  C   UNL     1      43.001 -10.388  -2.555  1.00  0.00     0.117 C 
HETATM   23  O   UNL     1      43.299 -10.892  -0.249  1.00  0.00    -0.274 OA
HETATM   24  H   UNL     1      41.207 -12.076  -2.342  1.00  0.00     0.169 HD
ENDBRANCH  17  20
ENDBRANCH  13  14
ENDBRANCH   1  13
BRANCH   4  25
HETATM   25  C   UNL     1      42.756 -18.494   4.852  1.00  0.00     0.006 A 
HETATM   26  C   UNL     1      43.578 -19.242   5.731  1.00  0.00     0.077 A 
HETATM   27  C   UNL     1      44.759 -19.830   5.265  1.00  0.00     0.037 A 
HETATM   28  C   UNL     1      45.123 -19.716   3.925  1.00  0.00     0.003 A 
HETATM   29  C   UNL     1      44.298 -19.036   3.039  1.00  0.00     0.001 A 
HETATM   30  C   UNL     1      43.120 -18.440   3.494  1.00  0.00     0.012 A 
BRANCH  26  31
HETATM   31  O   UNL     1      43.120 -19.361   7.019  1.00  0.00    -0.355 OA
HETATM   32  C   UNL     1      44.039 -19.109   8.076  1.00  0.00     0.210 C 
ENDBRANCH  26  31
ENDBRANCH   4  25
TORSDOF 5
ENDMDL
MODEL 5
REMARK VINA RESULT:      -7.6      3.000      7.699
REMARK  5 active torsions:
REMARK  status: ('A' for Active; 'I' for Inactive)
REMARK       I    between atoms: C_2  and  N_3 
REMARK    1  A    between atoms: N_3  and  C_4 
REMARK    2  A    between atoms: C_7  and  C_8 
REMARK    3  A    between atoms: C_8  and  N_9 
REMARK    4  A    between atoms: C_12  and  C_13 
REMARK    5  A    between atoms: C_14  and  O_15 
ROOT
HETATM    1  N   UNL     1      40.969 -13.896   3.734  1.00  0.00    -0.060 N 
HETATM    2  H   UNL     1      41.846 -14.009   3.216  1.00  0.00     0.280 HD
HETATM    3  C   UNL     1      40.261 -15.254   3.793  1.00  0.00     0.272 C 
HETATM    4  C   UNL     1      41.094 -16.422   4.383  1.00  0.00     0.190 C 
HETATM    5  O   UNL     1      41.387 -16.170   5.778  1.00  0.00    -0.339 OA
HETATM    6  C   UNL     1      42.510 -15.426   6.002  1.00  0.00     0.077 A 
HETATM    7  C   UNL     1      42.564 -14.075   5.664  1.00  0.00     0.001 A 
HETATM    8  C   UNL     1      41.360 -13.392   5.102  1.00  0.00     0.276 C 
HETATM    9  C   UNL     1      43.570 -16.037   6.667  1.00  0.00     0.037 A 
HETATM   10  C   UNL     1      44.734 -15.320   6.933  1.00  0.00     0.003 A 
HETATM   11  C   UNL     1      44.824 -13.984   6.554  1.00  0.00     0.001 A 
HETATM   12  C   UNL     1      43.741 -13.359   5.930  1.00  0.00     0.012 A 
ENDROOT
BRANCH   1  13
HETATM   13  C   UNL     1      40.149 -12.845   3.017  1.00  0.00     0.273 C 
BRANCH  13  14
HETATM   14  C   UNL     1      39.557 -13.287   1.707  1.00  0.00    -0.032 A 
HETATM   15  C   UNL     1      38.166 -13.291   1.534  1.00  0.00     0.011 A 
HETATM   16  C   UNL     1      37.597 -13.691   0.320  1.00  0.00     0.030 A 
HETATM   17  C   UNL     1      38.400 -14.086  -0.748  1.00  0.00     0.034 A 
HETATM   18  C   UNL     1      39.790 -14.085  -0.577  1.00  0.00     0.030 A 
HETATM   19  C   UNL     1      40.366 -13.695   0.640  1.00  0.00     0.011 A 
BRANCH  17  20
HETATM   20  N   UNL     1      37.898 -14.470  -2.009  1.00  0.00    -0.328 N 
HETATM   21  C   UNL     1      37.604 -13.642  -3.080  1.00  0.00     0.218 C 
HETATM   22  C   UNL     1      37.150 -14.400  -4.303  1.00  0.00     0.117 C 
HETATM   23  O   UNL     1      37.705 -12.420  -3.105  1.00  0.00    -0.274 OA
HETATM   24  H   UNL     1      37.746 -15.461  -2.151  1.00  0.00     0.169 HD
ENDBRANCH  17  20
ENDBRANCH  13  14
ENDBRANCH   1  13
BRANCH   4  25
HETATM   25  C   UNL     1      42.242 -17.008   3.549  1.00  0.00     0.006 A 
HETATM   26  C   UNL     1      42.845 -18.222   3.962  1.00  0.00     0.077 A 
HETATM   27  C   UNL     1      43.912 -18.763   3.237  1.00  0.00     0.037 A 
HETATM   28  C   UNL     1      44.371 -18.133   2.083  1.00  0.00     0.003 A 
HETATM   29  C   UNL     1      43.753 -16.974   1.633  1.00  0.00     0.001 A 
HETATM   30  C   UNL     1      42.690 -16.422   2.351  1.00  0.00     0.012 A 
BRANCH  26  31
HETATM   31  O   UNL     1      42.295 -18.813   5.072  1.00  0.00    -0.355 OA
HETATM   32  C   UNL     1      43.180 -19.406   6.015  1.00  0.00     0.210 C 
ENDBRANCH  26  31
ENDBRANCH   4  25
TORSDOF 5
ENDMDL
MODEL 6
REMARK VINA RESULT:      -7.5      2.544      3.818
REMARK  5 active torsions:
REMARK  status: ('A' for Active; 'I' for Inactive)
REMARK       I    between atoms: C_2  and  N_3 
REMARK    1  A    between atoms: N_3  and  C_4 
REMARK    2  A    between atoms: C_7  and  C_8 
REMARK    3  A    between atoms: C_8  and  N_9 
REMARK    4  A    between atoms: C_12  and  C_13 
REMARK    5  A    between atoms: C_14  and  O_15 
ROOT
HETATM    1  N   UNL     1      42.839 -14.129   5.476  1.00  0.00    -0.060 N 
HETATM    2  H   UNL     1      42.062 -14.760   5.254  1.00  0.00     0.280 HD
HETATM    3  C   UNL     1      43.610 -13.834   4.186  1.00  0.00     0.272 C 
HETATM    4  C   UNL     1      42.769 -13.268   3.013  1.00  0.00     0.190 C 
HETATM    5  O   UNL     1      42.245 -11.963   3.361  1.00  0.00    -0.339 OA
HETATM    6  C   UNL     1      41.057 -11.984   4.034  1.00  0.00     0.077 A 
HETATM    7  C   UNL     1      40.975 -12.454   5.343  1.00  0.00     0.001 A 
HETATM    8  C   UNL     1      42.207 -12.891   6.065  1.00  0.00     0.276 C 
HETATM    9  C   UNL     1      39.945 -11.430   3.403  1.00  0.00     0.037 A 
HETATM   10  C   UNL     1      38.713 -11.414   4.051  1.00  0.00     0.003 A 
HETATM   11  C   UNL     1      38.602 -11.927   5.339  1.00  0.00     0.001 A 
HETATM   12  C   UNL     1      39.728 -12.438   5.989  1.00  0.00     0.012 A 
ENDROOT
BRANCH   1  13
HETATM   13  C   UNL     1      43.695 -14.812   6.522  1.00  0.00     0.273 C 
BRANCH  13  14
HETATM   14  C   UNL     1      43.837 -16.300   6.352  1.00  0.00    -0.032 A 
HETATM   15  C   UNL     1      42.788 -17.044   5.794  1.00  0.00     0.011 A 
HETATM   16  C   UNL     1      42.905 -18.427   5.619  1.00  0.00     0.030 A 
HETATM   17  C   UNL     1      44.071 -19.096   5.988  1.00  0.00     0.034 A 
HETATM   18  C   UNL     1      45.119 -18.355   6.548  1.00  0.00     0.030 A 
HETATM   19  C   UNL     1      45.004 -16.971   6.734  1.00  0.00     0.011 A 
BRANCH  17  20
HETATM   20  N   UNL     1      44.270 -20.481   5.812  1.00  0.00    -0.328 N 
HETATM   21  C   UNL     1      44.797 -21.115   4.698  1.00  0.00     0.218 C 
HETATM   22  C   UNL     1      44.935 -22.607   4.881  1.00  0.00     0.117 C 
HETATM   23  O   UNL     1      45.155 -20.578   3.656  1.00  0.00    -0.274 OA
HETATM   24  H   UNL     1      44.012 -21.076   6.589  1.00  0.00     0.169 HD
ENDBRANCH  17  20
ENDBRANCH  13  14
ENDBRANCH   1  13
BRANCH   4  25
HETATM   25  C   UNL     1      41.804 -14.205   2.273  1.00  0.00     0.006 A 
HETATM   26  C   UNL     1      41.419 -13.891   0.946  1.00  0.00     0.077 A 
HETATM   27  C   UNL     1      40.519 -14.712   0.259  1.00  0.00     0.037 A 
HETATM   28  C   UNL     1      40.017 -15.865   0.858  1.00  0.00     0.003 A 
HETATM   29  C   UNL     1      40.429 -16.217   2.137  1.00  0.00     0.001 A 
HETATM   30  C   UNL     1      41.324 -15.402   2.834  1.00  0.00     0.012 A 
BRANCH  26  31
HETATM   31  O   UNL     1      42.005 -12.775   0.404  1.00  0.00    -0.355 OA
HETATM   32  C   UNL     1      42.149 -12.722  -1.012  1.00  0.00     0.210 C 
ENDBRANCH  26  31
ENDBRANCH   4  25
TORSDOF 5
ENDMDL
MODEL 7
REMARK VINA RESULT:      -7.4      3.202      7.726
REMARK  5 active torsions:
REMARK  status: ('A' for Active; 'I' for Inactive)
REMARK       I    between atoms: C_2  and  N_3 
REMARK    1  A    between atoms: N_3  and  C_4 
REMARK    2  A    between atoms: C_7  and  C_8 
REMARK    3  A    between atoms: C_8  and  N_9 
REMARK    4  A    between atoms: C_12  and  C_13 
REMARK    5  A    between atoms: C_14  and  O_15 
ROOT
HETATM    1  N   UNL     1      41.079 -13.847   2.950  1.00  0.00    -0.060 N 
HETATM    2  H   UNL     1      40.634 -14.595   3.492  1.00  0.00     0.280 HD
HETATM    3  C   UNL     1      42.266 -13.304   3.752  1.00  0.00     0.272 C 
HETATM    4  C   UNL     1      43.318 -14.355   4.193  1.00  0.00     0.190 C 
HETATM    5  O   UNL     1      43.969 -14.924   3.032  1.00  0.00    -0.339 OA
HETATM    6  C   UNL     1      43.322 -15.992   2.479  1.00  0.00     0.077 A 
HETATM    7  C   UNL     1      42.104 -15.839   1.819  1.00  0.00     0.001 A 
HETATM    8  C   UNL     1      41.507 -14.481   1.649  1.00  0.00     0.276 C 
HETATM    9  C   UNL     1      43.966 -17.227   2.511  1.00  0.00     0.037 A 
HETATM   10  C   UNL     1      43.357 -18.346   1.949  1.00  0.00     0.003 A 
HETATM   11  C   UNL     1      42.116 -18.221   1.333  1.00  0.00     0.001 A 
HETATM   12  C   UNL     1      41.494 -16.973   1.259  1.00  0.00     0.012 A 
ENDROOT
BRANCH   1  13
HETATM   13  C   UNL     1      40.027 -12.792   2.682  1.00  0.00     0.273 C 
BRANCH  13  14
HETATM   14  C   UNL     1      39.339 -12.906   1.349  1.00  0.00    -0.032 A 
HETATM   15  C   UNL     1      38.299 -13.829   1.175  1.00  0.00     0.011 A 
HETATM   16  C   UNL     1      37.641 -13.943  -0.054  1.00  0.00     0.030 A 
HETATM   17  C   UNL     1      37.999 -13.136  -1.132  1.00  0.00     0.034 A 
HETATM   18  C   UNL     1      39.041 -12.215  -0.962  1.00  0.00     0.030 A 
HETATM   19  C   UNL     1      39.709 -12.102   0.265  1.00  0.00     0.011 A 
BRANCH  17  20
HETATM   20  N   UNL     1      37.361 -13.175  -2.389  1.00  0.00    -0.328 N 
HETATM   21  C   UNL     1      37.455 -14.174  -3.344  1.00  0.00     0.218 C 
HETATM   22  C   UNL     1      36.578 -13.923  -4.547  1.00  0.00     0.117 C 
HETATM   23  O   UNL     1      38.138 -15.190  -3.271  1.00  0.00    -0.274 OA
HETATM   24  H   UNL     1      36.758 -12.393  -2.613  1.00  0.00     0.169 HD
ENDBRANCH  17  20
ENDBRANCH  13  14
ENDBRANCH   1  13
BRANCH   4  25
HETATM   25  C   UNL     1      42.956 -15.340   5.313  1.00  0.00     0.006 A 
HETATM   26  C   UNL     1      43.802 -15.439   6.445  1.00  0.00     0.077 A 
HETATM   27  C   UNL     1      43.512 -16.350   7.466  1.00  0.00     0.037 A 
HETATM   28  C   UNL     1      42.370 -17.145   7.399  1.00  0.00     0.003 A 
HETATM   29  C   UNL     1      41.501 -17.019   6.323  1.00  0.00     0.001 A 
HETATM   30  C   UNL     1      41.783 -16.117   5.296  1.00  0.00     0.012 A 
BRANCH  26  31
HETATM   31  O   UNL     1      44.871 -14.578   6.467  1.00  0.00    -0.355 OA
HETATM   32  C   UNL     1      44.945 -13.640   7.535  1.00  0.00     0.210 C 
ENDBRANCH  26  31
ENDBRANCH   4  25
TORSDOF 5
ENDMDL
MODEL 8
REMARK VINA RESULT:      -7.3      1.922      3.348
REMARK  5 active torsions:
REMARK  status: ('A' for Active; 'I' for Inactive)
REMARK       I    between atoms: C_2  and  N_3 
REMARK    1  A    between atoms: N_3  and  C_4 
REMARK    2  A    between atoms: C_7  and  C_8 
REMARK    3  A    between atoms: C_8  and  N_9 
REMARK    4  A    between atoms: C_12  and  C_13 
REMARK    5  A    between atoms: C_14  and  O_15 
ROOT
HETATM    1  N   UNL     1      40.674 -13.295   1.357  1.00  0.00    -0.060 N 
HETATM    2  H   UNL     1      41.595 -13.181   0.923  1.00  0.00     0.280 HD
HETATM    3  C   UNL     1      39.897 -11.983   1.203  1.00  0.00     0.272 C 
HETATM    4  C   UNL     1      39.752 -11.453  -0.248  1.00  0.00     0.190 C 
HETATM    5  O   UNL     1      38.959 -12.373  -1.036  1.00  0.00    -0.339 OA
HETATM    6  C   UNL     1      39.666 -13.388  -1.614  1.00  0.00     0.077 A 
HETATM    7  C   UNL     1      40.229 -14.407  -0.848  1.00  0.00     0.001 A 
HETATM    8  C   UNL     1      40.015 -14.442   0.630  1.00  0.00     0.276 C 
HETATM    9  C   UNL     1      39.725 -13.426  -3.006  1.00  0.00     0.037 A 
HETATM   10  C   UNL     1      40.421 -14.448  -3.646  1.00  0.00     0.003 A 
HETATM   11  C   UNL     1      41.034 -15.445  -2.893  1.00  0.00     0.001 A 
HETATM   12  C   UNL     1      40.933 -15.432  -1.500  1.00  0.00     0.012 A 
ENDROOT
BRANCH   1  13
HETATM   13  C   UNL     1      40.897 -13.670   2.807  1.00  0.00     0.273 C 
BRANCH  13  14
HETATM   14  C   UNL     1      41.670 -14.943   3.021  1.00  0.00    -0.032 A 
HETATM   15  C   UNL     1      42.924 -15.109   2.417  1.00  0.00     0.011 A 
HETATM   16  C   UNL     1      43.662 -16.282   2.611  1.00  0.00     0.030 A 
HETATM   17  C   UNL     1      43.171 -17.308   3.416  1.00  0.00     0.034 A 
HETATM   18  C   UNL     1      41.917 -17.145   4.018  1.00  0.00     0.030 A 
HETATM   19  C   UNL     1      41.169 -15.977   3.820  1.00  0.00     0.011 A 
BRANCH  17  20
HETATM   20  N   UNL     1      43.873 -18.502   3.682  1.00  0.00    -0.328 N 
HETATM   21  C   UNL     1      43.860 -19.665   2.927  1.00  0.00     0.218 C 
HETATM   22  C   UNL     1      44.786 -20.727   3.467  1.00  0.00     0.117 C 
HETATM   23  O   UNL     1      43.208 -19.864   1.908  1.00  0.00    -0.274 OA
HETATM   24  H   UNL     1      44.460 -18.507   4.506  1.00  0.00     0.169 HD
ENDBRANCH  17  20
ENDBRANCH  13  14
ENDBRANCH   1  13
BRANCH   4  25
HETATM   25  C   UNL     1      40.983 -10.857  -0.945  1.00  0.00     0.006 A 
HETATM   26  C   UNL     1      40.800  -9.857  -1.931  1.00  0.00     0.077 A 
HETATM   27  C   UNL     1      41.902  -9.318  -2.603  1.00  0.00     0.037 A 
HETATM   28  C   UNL     1      43.194  -9.732  -2.286  1.00  0.00     0.003 A 
HETATM   29  C   UNL     1      43.393 -10.669  -1.280  1.00  0.00     0.001 A 
HETATM   30  C   UNL     1      42.300 -11.218  -0.607  1.00  0.00     0.012 A 
BRANCH  26  31
HETATM   31  O   UNL     1      39.504  -9.458  -2.142  1.00  0.00    -0.355 OA
HETATM   32  C   UNL     1      39.289  -8.290  -2.926  1.00  0.00     0.210 C 
ENDBRANCH  26  31
ENDBRANCH   4  25
TORSDOF 5
ENDMDL
MODEL 9
REMARK VINA RESULT:      -7.3      3.948      8.552
REMARK  5 active torsions:
REMARK  status: ('A' for Active; 'I' for Inactive)
REMARK       I    between atoms: C_2  and  N_3 
REMARK    1  A    between atoms: N_3  and  C_4 
REMARK    2  A    between atoms: C_7  and  C_8 
REMARK    3  A    between atoms: C_8  and  N_9 
REMARK    4  A    between atoms: C_12  and  C_13 
REMARK    5  A    between atoms: C_14  and  O_15 
ROOT
HETATM    1  N   UNL     1      40.791 -14.066   3.335  1.00  0.00    -0.060 N 
HETATM    2  H   UNL     1      40.462 -14.860   3.893  1.00  0.00     0.280 HD
HETATM    3  C   UNL     1      42.001 -13.444   4.040  1.00  0.00     0.272 C 
HETATM    4  C   UNL     1      43.172 -14.413   4.349  1.00  0.00     0.190 C 
HETATM    5  O   UNL     1      43.754 -14.900   3.116  1.00  0.00    -0.339 OA
HETATM    6  C   UNL     1      43.146 -16.005   2.593  1.00  0.00     0.077 A 
HETATM    7  C   UNL     1      41.863 -15.940   2.054  1.00  0.00     0.001 A 
HETATM    8  C   UNL     1      41.144 -14.633   1.981  1.00  0.00     0.276 C 
HETATM    9  C   UNL     1      43.889 -17.183   2.528  1.00  0.00     0.037 A 
HETATM   10  C   UNL     1      43.321 -18.335   1.991  1.00  0.00     0.003 A 
HETATM   11  C   UNL     1      42.021 -18.300   1.496  1.00  0.00     0.001 A 
HETATM   12  C   UNL     1      41.296 -17.107   1.518  1.00  0.00     0.012 A 
ENDROOT
BRANCH   1  13
HETATM   13  C   UNL     1      39.637 -13.097   3.198  1.00  0.00     0.273 C 
BRANCH  13  14
HETATM   14  C   UNL     1      39.588 -12.018   4.245  1.00  0.00    -0.032 A 
HETATM   15  C   UNL     1      39.419 -12.359   5.594  1.00  0.00     0.011 A 
HETATM   16  C   UNL     1      39.380 -11.371   6.583  1.00  0.00     0.030 A 
HETATM   17  C   UNL     1      39.517 -10.024   6.251  1.00  0.00     0.034 A 
HETATM   18  C   UNL     1      39.683  -9.680   4.903  1.00  0.00     0.030 A 
HETATM   19  C   UNL     1      39.714 -10.665   3.907  1.00  0.00     0.011 A 
BRANCH  17  20
HETATM   20  N   UNL     1      39.519  -8.978   7.197  1.00  0.00    -0.328 N 
HETATM   21  C   UNL     1      40.620  -8.435   7.840  1.00  0.00     0.218 C 
HETATM   22  C   UNL     1      40.263  -7.277   8.740  1.00  0.00     0.117 C 
HETATM   23  O   UNL     1      41.785  -8.793   7.717  1.00  0.00    -0.274 OA
HETATM   24  H   UNL     1      38.619  -8.572   7.422  1.00  0.00     0.169 HD
ENDBRANCH  17  20
ENDBRANCH  13  14
ENDBRANCH   1  13
BRANCH   4  25
HETATM   25  C   UNL     1      42.999 -15.451   5.467  1.00  0.00     0.006 A 
HETATM   26  C   UNL     1      43.942 -15.491   6.524  1.00  0.00     0.077 A 
HETATM   27  C   UNL     1      43.825 -16.445   7.539  1.00  0.00     0.037 A 
HETATM   28  C   UNL     1      42.761 -17.344   7.543  1.00  0.00     0.003 A 
HETATM   29  C   UNL     1      41.797 -17.280   6.546  1.00  0.00     0.001 A 
HETATM   30  C   UNL     1      41.906 -16.335   5.524  1.00  0.00     0.012 A 
BRANCH  26  31
HETATM   31  O   UNL     1      44.924 -14.532   6.482  1.00  0.00    -0.355 OA
HETATM   32  C   UNL     1      44.984 -13.598   7.554  1.00  0.00     0.210 C 
ENDBRANCH  26  31
ENDBRANCH   4  25
TORSDOF 5
ENDMDL
MODEL 10
REMARK VINA RESULT:      -7.2      2.189      3.884
REMARK  5 active torsions:
REMARK  status: ('A' for Active; 'I' for Inactive)
REMARK       I    between atoms: C_2  and  N_3 
REMARK    1  A    between atoms: N_3  and  C_4 
REMARK    2  A    between atoms: C_7  and  C_8 
REMARK    3  A    between atoms: C_8  and  N_9 
REMARK    4  A    between atoms: C_12  and  C_13 
REMARK    5  A    between atoms: C_14  and  O_15 
ROOT
HETATM    1  N   UNL     1      40.865 -13.285   1.199  1.00  0.00    -0.060 N 
HETATM    2  H   UNL     1      40.143 -12.602   0.947  1.00  0.00     0.280 HD
HETATM    3  C   UNL     1      40.659 -14.546   0.354  1.00  0.00     0.272 C 
HETATM    4  C   UNL     1      40.628 -14.329  -1.182  1.00  0.00     0.190 C 
HETATM    5  O   UNL     1      41.917 -13.859  -1.644  1.00  0.00    -0.339 OA
HETATM    6  C   UNL     1      42.088 -12.506  -1.585  1.00  0.00     0.077 A 
HETATM    7  C   UNL     1      42.194 -11.841  -0.365  1.00  0.00     0.001 A 
HETATM    8  C   UNL     1      42.185 -12.611   0.914  1.00  0.00     0.276 C 
HETATM    9  C   UNL     1      42.249 -11.821  -2.788  1.00  0.00     0.037 A 
HETATM   10  C   UNL     1      42.440 -10.441  -2.784  1.00  0.00     0.003 A 
HETATM   11  C   UNL     1      42.496  -9.754  -1.575  1.00  0.00     0.001 A 
HETATM   12  C   UNL     1      42.382 -10.450  -0.369  1.00  0.00     0.012 A 
ENDROOT
BRANCH   1  13
HETATM   13  C   UNL     1      40.739 -13.554   2.684  1.00  0.00     0.273 C 
BRANCH  13  14
HETATM   14  C   UNL     1      41.410 -14.813   3.159  1.00  0.00    -0.032 A 
HETATM   15  C   UNL     1      40.647 -15.962   3.407  1.00  0.00     0.011 A 
HETATM   16  C   UNL     1      41.254 -17.146   3.841  1.00  0.00     0.030 A 
HETATM   17  C   UNL     1      42.634 -17.212   4.028  1.00  0.00     0.034 A 
HETATM   18  C   UNL     1      43.398 -16.064   3.783  1.00  0.00     0.030 A 
HETATM   19  C   UNL     1      42.794 -14.874   3.357  1.00  0.00     0.011 A 
BRANCH  17  20
HETATM   20  N   UNL     1      43.317 -18.378   4.432  1.00  0.00    -0.328 N 
HETATM   21  C   UNL     1      44.009 -19.264   3.622  1.00  0.00     0.218 C 
HETATM   22  C   UNL     1      44.682 -20.368   4.400  1.00  0.00     0.117 C 
HETATM   23  O   UNL     1      44.122 -19.201   2.403  1.00  0.00    -0.274 OA
HETATM   24  H   UNL     1      43.311 -18.583   5.423  1.00  0.00     0.169 HD
ENDBRANCH  17  20
ENDBRANCH  13  14
ENDBRANCH   1  13
BRANCH   4  25
HETATM   25  C   UNL     1      39.401 -13.655  -1.811  1.00  0.00     0.006 A 
HETATM   26  C   UNL     1      38.889 -14.155  -3.033  1.00  0.00     0.077 A 
HETATM   27  C   UNL     1      37.790 -13.540  -3.643  1.00  0.00     0.037 A 
HETATM   28  C   UNL     1      37.165 -12.452  -3.038  1.00  0.00     0.003 A 
HETATM   29  C   UNL     1      37.619 -11.987  -1.811  1.00  0.00     0.001 A 
HETATM   30  C   UNL     1      38.719 -12.589  -1.196  1.00  0.00     0.012 A 
BRANCH  26  31
HETATM   31  O   UNL     1      39.519 -15.267  -3.532  1.00  0.00    -0.355 OA
HETATM   32  C   UNL     1      38.784 -16.105  -4.417  1.00  0.00     0.210 C 
ENDBRANCH  26  31
ENDBRANCH   4  25
TORSDOF 5
ENDMDL
