MODEL 1
REMARK VINA RESULT:      -8.5      0.000      0.000
REMARK  3 active torsions:
REMARK  status: ('A' for Active; 'I' for Inactive)
REMARK    1  A    between atoms: C_7  and  C_8 
REMARK    2  A    between atoms: C_17  and  C_18 
REMARK       I    between atoms: C_18  and  N_19 
REMARK    3  A    between atoms: N_19  and  C_20 
ROOT
HETATM    1  C   UNL     1      41.129 -15.008   4.690  1.00  0.00     0.206 C 
HETATM    2  N   UNL     1      40.326 -13.777   4.735  1.00  0.00    -0.084 N 
HETATM    3  C   UNL     1      39.743 -13.210   3.631  1.00  0.00     0.725 A 
HETATM    4  N   UNL     1      39.017 -12.185   3.995  1.00  0.00    -0.054 NA
HETATM    5  C   UNL     1      39.151 -12.188   5.358  1.00  0.00     0.275 A 
HETATM    6  N   UNL     1      39.893 -13.177   5.867  1.00  0.00    -0.149 NA
HETATM    7  N   UNL     1      39.965 -13.746   2.417  1.00  0.00    -0.192 N 
HETATM    8  C   UNL     1      40.864 -14.782   2.196  1.00  0.00     0.037 C 
HETATM    9  C   UNL     1      41.099 -15.143   0.749  1.00  0.00     0.070 C 
HETATM   10  C   UNL     1      41.458 -15.396   3.250  1.00  0.00     0.063 C 
HETATM   11  H   UNL     1      39.588 -13.270   1.602  1.00  0.00     0.184 HD
ENDROOT
BRANCH  10  12
HETATM   12  C   UNL     1      42.547 -16.376   3.004  1.00  0.00     0.256 C 
HETATM   13  N   UNL     1      42.186 -17.684   3.233  1.00  0.00    -0.323 N 
HETATM   14  H   UNL     1      41.223 -17.880   3.467  1.00  0.00     0.169 HD
HETATM   15  O   UNL     1      43.637 -15.962   2.623  1.00  0.00    -0.267 OA
BRANCH  13  16
HETATM   16  C   UNL     1      43.037 -18.813   3.165  1.00  0.00     0.035 A 
HETATM   17  C   UNL     1      43.928 -19.182   4.176  1.00  0.00     0.029 A 
HETATM   18  C   UNL     1      44.731 -20.320   4.039  1.00  0.00     0.002 A 
HETATM   19  C   UNL     1      44.650 -21.099   2.890  1.00  0.00     0.000 A 
HETATM   20  C   UNL     1      43.764 -20.743   1.876  1.00  0.00     0.002 A 
HETATM   21  C   UNL     1      42.960 -19.607   2.013  1.00  0.00     0.029 A 
ENDBRANCH  13  16
ENDBRANCH  10  12
BRANCH   1  22
HETATM   22  C   UNL     1      42.312 -14.919   5.617  1.00  0.00     0.015 A 
HETATM   23  C   UNL     1      42.744 -15.914   6.549  1.00  0.00     0.061 A 
HETATM   24  C   UNL     1      42.102 -17.212   6.883  1.00  0.00     0.073 C 
HETATM   25  N   UNL     1      43.888 -15.572   7.151  1.00  0.00    -0.178 NA
HETATM   26  N   UNL     1      44.173 -14.360   6.653  1.00  0.00    -0.284 N 
HETATM   27  C   UNL     1      45.397 -13.703   7.040  1.00  0.00     0.179 C 
HETATM   28  C   UNL     1      43.249 -13.910   5.760  1.00  0.00     0.123 A 
ENDBRANCH   1  22
TORSDOF 3
ENDMDL
MODEL 2
REMARK VINA RESULT:      -8.2      0.811      1.794
REMARK  3 active torsions:
REMARK  status: ('A' for Active; 'I' for Inactive)
REMARK    1  A    between atoms: C_7  and  C_8 
REMARK    2  A    between atoms: C_17  and  C_18 
REMARK       I    between atoms: C_18  and  N_19 
REMARK    3  A    between atoms: N_19  and  C_20 
ROOT
HETATM    1  C   UNL     1      41.118 -15.617   4.401  1.00  0.00     0.206 C 
HETATM    2  N   UNL     1      40.417 -14.336   4.569  1.00  0.00    -0.084 N 
HETATM    3  C   UNL     1      40.108 -13.498   3.529  1.00  0.00     0.725 A 
HETATM    4  N   UNL     1      39.403 -12.489   3.972  1.00  0.00    -0.054 NA
HETATM    5  C   UNL     1      39.264 -12.778   5.302  1.00  0.00     0.275 A 
HETATM    6  N   UNL     1      39.814 -13.928   5.708  1.00  0.00    -0.149 NA
HETATM    7  N   UNL     1      40.526 -13.804   2.287  1.00  0.00    -0.192 N 
HETATM    8  C   UNL     1      41.370 -14.871   2.010  1.00  0.00     0.037 C 
HETATM    9  C   UNL     1      41.860 -14.961   0.585  1.00  0.00     0.070 C 
HETATM   10  C   UNL     1      41.695 -15.747   2.994  1.00  0.00     0.063 C 
HETATM   11  H   UNL     1      40.355 -13.135   1.540  1.00  0.00     0.184 HD
ENDROOT
BRANCH  10  12
HETATM   12  C   UNL     1      42.735 -16.777   2.739  1.00  0.00     0.256 C 
HETATM   13  N   UNL     1      42.302 -18.069   2.925  1.00  0.00    -0.323 N 
HETATM   14  H   UNL     1      41.325 -18.219   3.137  1.00  0.00     0.169 HD
HETATM   15  O   UNL     1      43.853 -16.412   2.389  1.00  0.00    -0.267 OA
BRANCH  13  16
HETATM   16  C   UNL     1      43.092 -19.240   2.840  1.00  0.00     0.035 A 
HETATM   17  C   UNL     1      43.011 -20.161   1.792  1.00  0.00     0.029 A 
HETATM   18  C   UNL     1      43.834 -21.292   1.772  1.00  0.00     0.002 A 
HETATM   19  C   UNL     1      44.746 -21.513   2.800  1.00  0.00     0.000 A 
HETATM   20  C   UNL     1      44.837 -20.600   3.847  1.00  0.00     0.002 A 
HETATM   21  C   UNL     1      44.016 -19.468   3.867  1.00  0.00     0.029 A 
ENDBRANCH  13  16
ENDBRANCH  10  12
BRANCH   1  22
HETATM   22  C   UNL     1      42.097 -15.852   5.521  1.00  0.00     0.015 A 
HETATM   23  C   UNL     1      43.241 -15.055   5.837  1.00  0.00     0.061 A 
HETATM   24  C   UNL     1      43.780 -13.877   5.109  1.00  0.00     0.073 C 
HETATM   25  N   UNL     1      43.849 -15.473   6.952  1.00  0.00    -0.178 NA
HETATM   26  N   UNL     1      43.139 -16.546   7.332  1.00  0.00    -0.284 N 
HETATM   27  C   UNL     1      43.480 -17.225   8.558  1.00  0.00     0.179 C 
HETATM   28  C   UNL     1      42.105 -16.835   6.495  1.00  0.00     0.123 A 
ENDBRANCH   1  22
TORSDOF 3
ENDMDL
MODEL 3
REMARK VINA RESULT:      -7.9      1.763      3.919
REMARK  3 active torsions:
REMARK  status: ('A' for Active; 'I' for Inactive)
REMARK    1  A    between atoms: C_7  and  C_8 
REMARK    2  A    between atoms: C_17  and  C_18 
REMARK       I    between atoms: C_18  and  N_19 
REMARK    3  A    between atoms: N_19  and  C_20 
ROOT
HETATM    1  C   UNL     1      41.488 -13.721   3.793  1.00  0.00     0.206 C 
HETATM    2  N   UNL     1      40.299 -13.063   4.352  1.00  0.00    -0.084 N 
HETATM    3  C   UNL     1      39.733 -13.410   5.552  1.00  0.00     0.725 A 
HETATM    4  N   UNL     1      38.753 -12.590   5.830  1.00  0.00    -0.054 NA
HETATM    5  C   UNL     1      38.785 -11.714   4.778  1.00  0.00     0.275 A 
HETATM    6  N   UNL     1      39.750 -11.923   3.876  1.00  0.00    -0.149 NA
HETATM    7  N   UNL     1      40.226 -14.458   6.237  1.00  0.00    -0.192 N 
HETATM    8  C   UNL     1      41.212 -15.299   5.735  1.00  0.00     0.037 C 
HETATM    9  C   UNL     1      41.523 -16.512   6.578  1.00  0.00     0.070 C 
HETATM   10  C   UNL     1      41.824 -14.996   4.563  1.00  0.00     0.063 C 
HETATM   11  H   UNL     1      39.748 -14.750   7.086  1.00  0.00     0.184 HD
ENDROOT
BRANCH  10  12
HETATM   12  C   UNL     1      42.743 -15.986   3.944  1.00  0.00     0.256 C 
HETATM   13  N   UNL     1      42.230 -17.261   3.877  1.00  0.00    -0.323 N 
HETATM   14  H   UNL     1      41.274 -17.407   4.169  1.00  0.00     0.169 HD
HETATM   15  O   UNL     1      43.840 -15.605   3.551  1.00  0.00    -0.267 OA
BRANCH  13  16
HETATM   16  C   UNL     1      42.909 -18.415   3.420  1.00  0.00     0.035 A 
HETATM   17  C   UNL     1      42.747 -18.964   2.145  1.00  0.00     0.029 A 
HETATM   18  C   UNL     1      43.462 -20.103   1.763  1.00  0.00     0.002 A 
HETATM   19  C   UNL     1      44.348 -20.705   2.651  1.00  0.00     0.000 A 
HETATM   20  C   UNL     1      44.520 -20.166   3.923  1.00  0.00     0.002 A 
HETATM   21  C   UNL     1      43.807 -19.025   4.306  1.00  0.00     0.029 A 
ENDBRANCH  13  16
ENDBRANCH  10  12
BRANCH   1  22
HETATM   22  C   UNL     1      41.367 -13.885   2.301  1.00  0.00     0.015 A 
HETATM   23  C   UNL     1      40.394 -14.666   1.603  1.00  0.00     0.061 A 
HETATM   24  C   UNL     1      39.340 -15.551   2.165  1.00  0.00     0.073 C 
HETATM   25  N   UNL     1      40.495 -14.523   0.278  1.00  0.00    -0.178 NA
HETATM   26  N   UNL     1      41.539 -13.698   0.114  1.00  0.00    -0.284 N 
HETATM   27  C   UNL     1      41.902 -13.266  -1.214  1.00  0.00     0.179 C 
HETATM   28  C   UNL     1      42.116 -13.315   1.286  1.00  0.00     0.123 A 
ENDBRANCH   1  22
TORSDOF 3
ENDMDL
MODEL 4
REMARK VINA RESULT:      -7.5      1.620      2.092
REMARK  3 active torsions:
REMARK  status: ('A' for Active; 'I' for Inactive)
REMARK    1  A    between atoms: C_7  and  C_8 
REMARK    2  A    between atoms: C_17  and  C_18 
REMARK       I    between atoms: C_18  and  N_19 
REMARK    3  A    between atoms: N_19  and  C_20 
ROOT
HETATM    1  C   UNL     1      41.161 -14.322   3.370  1.00  0.00     0.206 C 
HETATM    2  N   UNL     1      41.199 -12.992   2.746  1.00  0.00    -0.084 N 
HETATM    3  C   UNL     1      41.168 -12.789   1.390  1.00  0.00     0.725 A 
HETATM    4  N   UNL     1      41.116 -11.506   1.138  1.00  0.00    -0.054 NA
HETATM    5  C   UNL     1      41.071 -10.955   2.390  1.00  0.00     0.275 A 
HETATM    6  N   UNL     1      41.059 -11.822   3.408  1.00  0.00    -0.149 NA
HETATM    7  N   UNL     1      41.182 -13.850   0.562  1.00  0.00    -0.192 N 
HETATM    8  C   UNL     1      41.352 -15.156   1.002  1.00  0.00     0.037 C 
HETATM    9  C   UNL     1      41.502 -16.195  -0.084  1.00  0.00     0.070 C 
HETATM   10  C   UNL     1      41.370 -15.423   2.332  1.00  0.00     0.063 C 
HETATM   11  H   UNL     1      41.235 -13.681  -0.440  1.00  0.00     0.184 HD
ENDROOT
BRANCH  10  12
HETATM   12  C   UNL     1      41.732 -16.787   2.797  1.00  0.00     0.256 C 
HETATM   13  N   UNL     1      43.087 -17.010   2.878  1.00  0.00    -0.323 N 
HETATM   14  H   UNL     1      43.710 -16.235   2.698  1.00  0.00     0.169 HD
HETATM   15  O   UNL     1      40.832 -17.575   3.068  1.00  0.00    -0.267 OA
BRANCH  13  16
HETATM   16  C   UNL     1      43.718 -18.233   3.205  1.00  0.00     0.035 A 
HETATM   17  C   UNL     1      43.930 -19.271   2.294  1.00  0.00     0.029 A 
HETATM   18  C   UNL     1      44.571 -20.449   2.690  1.00  0.00     0.002 A 
HETATM   19  C   UNL     1      45.006 -20.602   4.003  1.00  0.00     0.000 A 
HETATM   20  C   UNL     1      44.802 -19.574   4.920  1.00  0.00     0.002 A 
HETATM   21  C   UNL     1      44.164 -18.394   4.524  1.00  0.00     0.029 A 
ENDBRANCH  13  16
ENDBRANCH  10  12
BRANCH   1  22
HETATM   22  C   UNL     1      42.073 -14.387   4.566  1.00  0.00     0.015 A 
HETATM   23  C   UNL     1      41.847 -15.116   5.775  1.00  0.00     0.061 A 
HETATM   24  C   UNL     1      40.650 -15.904   6.172  1.00  0.00     0.073 C 
HETATM   25  N   UNL     1      42.894 -15.049   6.603  1.00  0.00    -0.178 NA
HETATM   26  N   UNL     1      43.768 -14.257   5.966  1.00  0.00    -0.284 N 
HETATM   27  C   UNL     1      45.064 -14.013   6.551  1.00  0.00     0.179 C 
HETATM   28  C   UNL     1      43.315 -13.808   4.763  1.00  0.00     0.123 A 
ENDBRANCH   1  22
TORSDOF 3
ENDMDL
MODEL 5
REMARK VINA RESULT:      -7.4      2.027      5.488
REMARK  3 active torsions:
REMARK  status: ('A' for Active; 'I' for Inactive)
REMARK    1  A    between atoms: C_7  and  C_8 
REMARK    2  A    between atoms: C_17  and  C_18 
REMARK       I    between atoms: C_18  and  N_19 
REMARK    3  A    between atoms: N_19  and  C_20 
ROOT
HETATM    1  C   UNL     1      43.257 -16.342   4.274  1.00  0.00     0.206 C 
HETATM    2  N   UNL     1      43.886 -17.151   5.328  1.00  0.00    -0.084 N 
HETATM    3  C   UNL     1      44.231 -18.469   5.168  1.00  0.00     0.725 A 
HETATM    4  N   UNL     1      44.856 -18.892   6.237  1.00  0.00    -0.054 NA
HETATM    5  C   UNL     1      44.913 -17.770   7.018  1.00  0.00     0.275 A 
HETATM    6  N   UNL     1      44.387 -16.662   6.484  1.00  0.00    -0.149 NA
HETATM    7  N   UNL     1      43.917 -19.101   4.022  1.00  0.00    -0.192 N 
HETATM    8  C   UNL     1      43.143 -18.524   3.024  1.00  0.00     0.037 C 
HETATM    9  C   UNL     1      42.761 -19.440   1.885  1.00  0.00     0.070 C 
HETATM   10  C   UNL     1      42.788 -17.218   3.115  1.00  0.00     0.063 C 
HETATM   11  H   UNL     1      44.111 -20.096   3.950  1.00  0.00     0.184 HD
ENDROOT
BRANCH  10  12
HETATM   12  C   UNL     1      41.816 -16.657   2.141  1.00  0.00     0.256 C 
HETATM   13  N   UNL     1      42.386 -15.847   1.185  1.00  0.00    -0.323 N 
HETATM   14  H   UNL     1      43.392 -15.761   1.170  1.00  0.00     0.169 HD
HETATM   15  O   UNL     1      40.631 -16.952   2.255  1.00  0.00    -0.267 OA
BRANCH  13  16
HETATM   16  C   UNL     1      41.698 -15.113   0.190  1.00  0.00     0.035 A 
HETATM   17  C   UNL     1      41.390 -13.754   0.294  1.00  0.00     0.029 A 
HETATM   18  C   UNL     1      40.715 -13.094  -0.738  1.00  0.00     0.002 A 
HETATM   19  C   UNL     1      40.341 -13.787  -1.885  1.00  0.00     0.000 A 
HETATM   20  C   UNL     1      40.644 -15.141  -2.002  1.00  0.00     0.002 A 
HETATM   21  C   UNL     1      41.321 -15.801  -0.971  1.00  0.00     0.029 A 
ENDBRANCH  13  16
ENDBRANCH  10  12
BRANCH   1  22
HETATM   22  C   UNL     1      42.212 -15.421   4.847  1.00  0.00     0.015 A 
HETATM   23  C   UNL     1      41.094 -15.796   5.655  1.00  0.00     0.061 A 
HETATM   24  C   UNL     1      40.652 -17.158   6.052  1.00  0.00     0.073 C 
HETATM   25  N   UNL     1      40.411 -14.731   6.087  1.00  0.00    -0.178 NA
HETATM   26  N   UNL     1      41.046 -13.686   5.537  1.00  0.00    -0.284 N 
HETATM   27  C   UNL     1      40.611 -12.346   5.847  1.00  0.00     0.179 C 
HETATM   28  C   UNL     1      42.106 -14.044   4.761  1.00  0.00     0.123 A 
ENDBRANCH   1  22
TORSDOF 3
ENDMDL
MODEL 6
REMARK VINA RESULT:      -7.3      2.296      4.377
REMARK  3 active torsions:
REMARK  status: ('A' for Active; 'I' for Inactive)
REMARK    1  A    between atoms: C_7  and  C_8 
REMARK    2  A    between atoms: C_17  and  C_18 
REMARK       I    between atoms: C_18  and  N_19 
REMARK    3  A    between atoms: N_19  and  C_20 
ROOT
HETATM    1  C   UNL     1      40.634 -15.297   2.173  1.00  0.00     0.206 C 
HETATM    2  N   UNL     1      40.268 -14.876   0.813  1.00  0.00    -0.084 N 
HETATM    3  C   UNL     1      40.883 -15.347  -0.318  1.00  0.00     0.725 A 
HETATM    4  N   UNL     1      40.282 -14.868  -1.377  1.00  0.00    -0.054 NA
HETATM    5  C   UNL     1      39.261 -14.132  -0.838  1.00  0.00     0.275 A 
HETATM    6  N   UNL     1      39.171 -14.152   0.496  1.00  0.00    -0.149 NA
HETATM    7  N   UNL     1      41.931 -16.183  -0.202  1.00  0.00    -0.192 N 
HETATM    8  C   UNL     1      42.516 -16.505   1.016  1.00  0.00     0.037 C 
HETATM    9  C   UNL     1      43.779 -17.328   0.934  1.00  0.00     0.070 C 
HETATM   10  C   UNL     1      41.942 -16.085   2.171  1.00  0.00     0.063 C 
HETATM   11  H   UNL     1      42.423 -16.463  -1.048  1.00  0.00     0.184 HD
ENDROOT
BRANCH  10  12
HETATM   12  C   UNL     1      42.665 -16.276   3.455  1.00  0.00     0.256 C 
HETATM   13  N   UNL     1      42.284 -17.402   4.149  1.00  0.00    -0.323 N 
HETATM   14  H   UNL     1      41.624 -18.031   3.714  1.00  0.00     0.169 HD
HETATM   15  O   UNL     1      43.515 -15.455   3.781  1.00  0.00    -0.267 OA
BRANCH  13  16
HETATM   16  C   UNL     1      42.736 -17.789   5.433  1.00  0.00     0.035 A 
HETATM   17  C   UNL     1      42.503 -17.053   6.597  1.00  0.00     0.029 A 
HETATM   18  C   UNL     1      42.975 -17.507   7.834  1.00  0.00     0.002 A 
HETATM   19  C   UNL     1      43.684 -18.700   7.918  1.00  0.00     0.000 A 
HETATM   20  C   UNL     1      43.921 -19.444   6.764  1.00  0.00     0.002 A 
HETATM   21  C   UNL     1      43.448 -18.992   5.528  1.00  0.00     0.029 A 
ENDBRANCH  13  16
ENDBRANCH  10  12
BRANCH   1  22
HETATM   22  C   UNL     1      40.584 -14.139   3.133  1.00  0.00     0.015 A 
HETATM   23  C   UNL     1      41.223 -12.870   2.976  1.00  0.00     0.061 A 
HETATM   24  C   UNL     1      42.138 -12.421   1.894  1.00  0.00     0.073 C 
HETATM   25  N   UNL     1      40.900 -12.022   3.958  1.00  0.00    -0.178 NA
HETATM   26  N   UNL     1      40.100 -12.737   4.762  1.00  0.00    -0.284 N 
HETATM   27  C   UNL     1      39.500 -12.107   5.912  1.00  0.00     0.179 C 
HETATM   28  C   UNL     1      39.906 -14.015   4.334  1.00  0.00     0.123 A 
ENDBRANCH   1  22
TORSDOF 3
ENDMDL
MODEL 7
REMARK VINA RESULT:      -7.2      2.049      4.604
REMARK  3 active torsions:
REMARK  status: ('A' for Active; 'I' for Inactive)
REMARK    1  A    between atoms: C_7  and  C_8 
REMARK    2  A    between atoms: C_17  and  C_18 
REMARK       I    between atoms: C_18  and  N_19 
REMARK    3  A    between atoms: N_19  and  C_20 
ROOT
HETATM    1  C   UNL     1      41.696 -12.190   4.119  1.00  0.00     0.206 C 
HETATM    2  N   UNL     1      40.897 -11.553   5.175  1.00  0.00    -0.084 N 
HETATM    3  C   UNL     1      41.179 -11.666   6.512  1.00  0.00     0.725 A 
HETATM    4  N   UNL     1      40.356 -10.917   7.200  1.00  0.00    -0.054 NA
HETATM    5  C   UNL     1      39.605 -10.318   6.224  1.00  0.00     0.275 A 
HETATM    6  N   UNL     1      39.934 -10.628   4.965  1.00  0.00    -0.149 NA
HETATM    7  N   UNL     1      42.190 -12.460   6.910  1.00  0.00    -0.192 N 
HETATM    8  C   UNL     1      42.898 -13.281   6.043  1.00  0.00     0.037 C 
HETATM    9  C   UNL     1      43.888 -14.217   6.695  1.00  0.00     0.070 C 
HETATM   10  C   UNL     1      42.679 -13.200   4.706  1.00  0.00     0.063 C 
HETATM   11  H   UNL     1      42.337 -12.592   7.908  1.00  0.00     0.184 HD
ENDROOT
BRANCH  10  12
HETATM   12  C   UNL     1      43.304 -14.201   3.803  1.00  0.00     0.256 C 
HETATM   13  N   UNL     1      42.668 -15.421   3.794  1.00  0.00    -0.323 N 
HETATM   14  H   UNL     1      41.812 -15.517   4.321  1.00  0.00     0.169 HD
HETATM   15  O   UNL     1      44.293 -13.874   3.157  1.00  0.00    -0.267 OA
BRANCH  13  16
HETATM   16  C   UNL     1      43.089 -16.580   3.100  1.00  0.00     0.035 A 
HETATM   17  C   UNL     1      43.152 -16.677   1.707  1.00  0.00     0.029 A 
HETATM   18  C   UNL     1      43.588 -17.856   1.093  1.00  0.00     0.002 A 
HETATM   19  C   UNL     1      43.966 -18.949   1.866  1.00  0.00     0.000 A 
HETATM   20  C   UNL     1      43.909 -18.864   3.255  1.00  0.00     0.002 A 
HETATM   21  C   UNL     1      43.475 -17.685   3.870  1.00  0.00     0.029 A 
ENDBRANCH  13  16
ENDBRANCH  10  12
BRANCH   1  22
HETATM   22  C   UNL     1      40.817 -12.717   3.015  1.00  0.00     0.015 A 
HETATM   23  C   UNL     1      41.002 -12.526   1.610  1.00  0.00     0.061 A 
HETATM   24  C   UNL     1      42.033 -11.713   0.913  1.00  0.00     0.073 C 
HETATM   25  N   UNL     1      40.104 -13.207   0.891  1.00  0.00    -0.178 NA
HETATM   26  N   UNL     1      39.324 -13.797   1.809  1.00  0.00    -0.284 N 
HETATM   27  C   UNL     1      38.268 -14.681   1.382  1.00  0.00     0.179 C 
HETATM   28  C   UNL     1      39.685 -13.510   3.090  1.00  0.00     0.123 A 
ENDBRANCH   1  22
TORSDOF 3
ENDMDL
MODEL 8
REMARK VINA RESULT:      -7.1      2.153      4.644
REMARK  3 active torsions:
REMARK  status: ('A' for Active; 'I' for Inactive)
REMARK    1  A    between atoms: C_7  and  C_8 
REMARK    2  A    between atoms: C_17  and  C_18 
REMARK       I    between atoms: C_18  and  N_19 
REMARK    3  A    between atoms: N_19  and  C_20 
ROOT
HETATM    1  C   UNL     1      41.417 -13.628   2.357  1.00  0.00     0.206 C 
HETATM    2  N   UNL     1      40.815 -12.330   2.693  1.00  0.00    -0.084 N 
HETATM    3  C   UNL     1      40.358 -12.006   3.945  1.00  0.00     0.725 A 
HETATM    4  N   UNL     1      39.968 -10.757   3.961  1.00  0.00    -0.054 NA
HETATM    5  C   UNL     1      40.250 -10.336   2.689  1.00  0.00     0.275 A 
HETATM    6  N   UNL     1      40.824 -11.242   1.890  1.00  0.00    -0.149 NA
HETATM    7  N   UNL     1      40.380 -12.935   4.918  1.00  0.00    -0.192 N 
HETATM    8  C   UNL     1      40.729 -14.261   4.695  1.00  0.00     0.037 C 
HETATM    9  C   UNL     1      40.540 -15.190   5.870  1.00  0.00     0.070 C 
HETATM   10  C   UNL     1      41.207 -14.638   3.483  1.00  0.00     0.063 C 
HETATM   11  H   UNL     1      39.969 -12.702   5.818  1.00  0.00     0.184 HD
ENDROOT
BRANCH  10  12
HETATM   12  C   UNL     1      41.406 -16.082   3.195  1.00  0.00     0.256 C 
HETATM   13  N   UNL     1      42.693 -16.523   3.407  1.00  0.00    -0.323 N 
HETATM   14  H   UNL     1      43.360 -15.875   3.801  1.00  0.00     0.169 HD
HETATM   15  O   UNL     1      40.448 -16.745   2.814  1.00  0.00    -0.267 OA
BRANCH  13  16
HETATM   16  C   UNL     1      43.191 -17.819   3.136  1.00  0.00     0.035 A 
HETATM   17  C   UNL     1      43.150 -18.424   1.877  1.00  0.00     0.029 A 
HETATM   18  C   UNL     1      43.672 -19.707   1.685  1.00  0.00     0.002 A 
HETATM   19  C   UNL     1      44.241 -20.398   2.749  1.00  0.00     0.000 A 
HETATM   20  C   UNL     1      44.290 -19.805   4.008  1.00  0.00     0.002 A 
HETATM   21  C   UNL     1      43.770 -18.521   4.201  1.00  0.00     0.029 A 
ENDBRANCH  13  16
ENDBRANCH  10  12
BRANCH   1  22
HETATM   22  C   UNL     1      40.986 -14.090   0.991  1.00  0.00     0.015 A 
HETATM   23  C   UNL     1      39.643 -14.282   0.537  1.00  0.00     0.061 A 
HETATM   24  C   UNL     1      38.378 -14.155   1.307  1.00  0.00     0.073 C 
HETATM   25  N   UNL     1      39.595 -14.602  -0.760  1.00  0.00    -0.178 NA
HETATM   26  N   UNL     1      40.881 -14.659  -1.134  1.00  0.00    -0.284 N 
HETATM   27  C   UNL     1      41.209 -14.921  -2.514  1.00  0.00     0.179 C 
HETATM   28  C   UNL     1      41.752 -14.395  -0.121  1.00  0.00     0.123 A 
ENDBRANCH   1  22
TORSDOF 3
ENDMDL
MODEL 9
REMARK VINA RESULT:      -6.9      2.362      3.855
REMARK  3 active torsions:
REMARK  status: ('A' for Active; 'I' for Inactive)
REMARK    1  A    between atoms: C_7  and  C_8 
REMARK    2  A    between atoms: C_17  and  C_18 
REMARK       I    between atoms: C_18  and  N_19 
REMARK    3  A    between atoms: N_19  and  C_20 
ROOT
HETATM    1  C   UNL     1      39.434 -14.424   1.594  1.00  0.00     0.206 C 
HETATM    2  N   UNL     1      38.568 -13.530   0.813  1.00  0.00    -0.084 N 
HETATM    3  C   UNL     1      38.506 -13.540  -0.557  1.00  0.00     0.725 A 
HETATM    4  N   UNL     1      37.582 -12.706  -0.961  1.00  0.00    -0.054 NA
HETATM    5  C   UNL     1      37.066 -12.233   0.216  1.00  0.00     0.275 A 
HETATM    6  N   UNL     1      37.593 -12.750   1.331  1.00  0.00    -0.149 NA
HETATM    7  N   UNL     1      39.327 -14.349  -1.251  1.00  0.00    -0.192 N 
HETATM    8  C   UNL     1      40.337 -15.096  -0.658  1.00  0.00     0.037 C 
HETATM    9  C   UNL     1      41.258 -15.818  -1.612  1.00  0.00     0.070 C 
HETATM   10  C   UNL     1      40.437 -15.142   0.694  1.00  0.00     0.063 C 
HETATM   11  H   UNL     1      39.322 -14.289  -2.266  1.00  0.00     0.184 HD
ENDROOT
BRANCH  10  12
HETATM   12  C   UNL     1      41.620 -15.792   1.316  1.00  0.00     0.256 C 
HETATM   13  N   UNL     1      41.376 -17.060   1.792  1.00  0.00    -0.323 N 
HETATM   14  H   UNL     1      40.468 -17.469   1.620  1.00  0.00     0.169 HD
HETATM   15  O   UNL     1      42.680 -15.178   1.349  1.00  0.00    -0.267 OA
BRANCH  13  16
HETATM   16  C   UNL     1      42.285 -17.878   2.504  1.00  0.00     0.035 A 
HETATM   17  C   UNL     1      42.437 -17.851   3.892  1.00  0.00     0.029 A 
HETATM   18  C   UNL     1      43.352 -18.698   4.527  1.00  0.00     0.002 A 
HETATM   19  C   UNL     1      44.123 -19.582   3.778  1.00  0.00     0.000 A 
HETATM   20  C   UNL     1      43.978 -19.620   2.394  1.00  0.00     0.002 A 
HETATM   21  C   UNL     1      43.063 -18.774   1.759  1.00  0.00     0.029 A 
ENDBRANCH  13  16
ENDBRANCH  10  12
BRANCH   1  22
HETATM   22  C   UNL     1      40.031 -13.707   2.776  1.00  0.00     0.015 A 
HETATM   23  C   UNL     1      40.869 -12.550   2.740  1.00  0.00     0.061 A 
HETATM   24  C   UNL     1      41.412 -11.835   1.555  1.00  0.00     0.073 C 
HETATM   25  N   UNL     1      41.151 -12.098   3.966  1.00  0.00    -0.178 NA
HETATM   26  N   UNL     1      40.542 -12.967   4.786  1.00  0.00    -0.284 N 
HETATM   27  C   UNL     1      40.581 -12.747   6.211  1.00  0.00     0.179 C 
HETATM   28  C   UNL     1      39.889 -13.965   4.129  1.00  0.00     0.123 A 
ENDBRANCH   1  22
TORSDOF 3
ENDMDL
MODEL 10
REMARK VINA RESULT:      -6.7      2.113      5.457
REMARK  3 active torsions:
REMARK  status: ('A' for Active; 'I' for Inactive)
REMARK    1  A    between atoms: C_7  and  C_8 
REMARK    2  A    between atoms: C_17  and  C_18 
REMARK       I    between atoms: C_18  and  N_19 
REMARK    3  A    between atoms: N_19  and  C_20 
ROOT
HETATM    1  C   UNL     1      43.294 -15.406   4.557  1.00  0.00     0.206 C 
HETATM    2  N   UNL     1      43.729 -16.520   5.410  1.00  0.00    -0.084 N 
HETATM    3  C   UNL     1      44.111 -17.744   4.924  1.00  0.00     0.725 A 
HETATM    4  N   UNL     1      44.536 -18.495   5.908  1.00  0.00    -0.054 NA
HETATM    5  C   UNL     1      44.438 -17.660   6.989  1.00  0.00     0.275 A 
HETATM    6  N   UNL     1      44.006 -16.421   6.730  1.00  0.00    -0.149 NA
HETATM    7  N   UNL     1      44.018 -17.990   3.605  1.00  0.00    -0.192 N 
HETATM    8  C   UNL     1      43.433 -17.107   2.706  1.00  0.00     0.037 C 
HETATM    9  C   UNL     1      43.274 -17.623   1.296  1.00  0.00     0.070 C 
HETATM   10  C   UNL     1      43.053 -15.873   3.123  1.00  0.00     0.063 C 
HETATM   11  H   UNL     1      44.233 -18.926   3.271  1.00  0.00     0.184 HD
ENDROOT
BRANCH  10  12
HETATM   12  C   UNL     1      42.269 -15.004   2.209  1.00  0.00     0.256 C 
HETATM   13  N   UNL     1      40.995 -15.461   1.957  1.00  0.00    -0.323 N 
HETATM   14  H   UNL     1      40.674 -16.279   2.456  1.00  0.00     0.169 HD
HETATM   15  O   UNL     1      42.791 -13.985   1.771  1.00  0.00    -0.267 OA
BRANCH  13  16
HETATM   16  C   UNL     1      40.060 -14.889   1.063  1.00  0.00     0.035 A 
HETATM   17  C   UNL     1      38.761 -14.519   1.422  1.00  0.00     0.029 A 
HETATM   18  C   UNL     1      37.896 -13.948   0.482  1.00  0.00     0.002 A 
HETATM   19  C   UNL     1      38.321 -13.743  -0.826  1.00  0.00     0.000 A 
HETATM   20  C   UNL     1      39.614 -14.106  -1.196  1.00  0.00     0.002 A 
HETATM   21  C   UNL     1      40.480 -14.674  -0.256  1.00  0.00     0.029 A 
ENDBRANCH  13  16
ENDBRANCH  10  12
BRANCH   1  22
HETATM   22  C   UNL     1      42.152 -14.652   5.186  1.00  0.00     0.015 A 
HETATM   23  C   UNL     1      40.956 -15.213   5.733  1.00  0.00     0.061 A 
HETATM   24  C   UNL     1      40.518 -16.634   5.740  1.00  0.00     0.073 C 
HETATM   25  N   UNL     1      40.185 -14.284   6.307  1.00  0.00    -0.178 NA
HETATM   26  N   UNL     1      40.845 -13.135   6.103  1.00  0.00    -0.284 N 
HETATM   27  C   UNL     1      40.325 -11.909   6.656  1.00  0.00     0.179 C 
HETATM   28  C   UNL     1      42.007 -13.294   5.410  1.00  0.00     0.123 A 
ENDBRANCH   1  22
TORSDOF 3
ENDMDL
