MODEL 1
REMARK VINA RESULT:      -6.9      0.000      0.000
REMARK  5 active torsions:
REMARK  status: ('A' for Active; 'I' for Inactive)
REMARK    1  A    between atoms: C_2  and  O_3 
REMARK    2  A    between atoms: C_4  and  C_5 
REMARK    3  A    between atoms: C_5  and  O_6 
REMARK    4  A    between atoms: C_9  and  C_10 
REMARK    5  A    between atoms: C_22  and  O_23 
ROOT
HETATM    1  C   UNL     1      43.612 -17.459   8.204  1.00  0.00     0.047 C 
HETATM    2  C   UNL     1      43.485 -18.249   6.892  1.00  0.00     0.073 C 
HETATM    3  C   UNL     1      42.358 -17.707   5.942  1.00  0.00     0.133 C 
HETATM    4  C   UNL     1      42.330 -18.314   4.494  1.00  0.00     0.074 C 
HETATM    5  C   UNL     1      43.568 -19.080   4.160  1.00  0.00     0.030 A 
HETATM    6  C   UNL     1      44.711 -19.070   4.926  1.00  0.00     0.042 A 
HETATM    7  N   UNL     1      45.610 -19.900   4.319  1.00  0.00    -0.279 N 
HETATM    8  H   UNL     1      46.556 -20.131   4.604  1.00  0.00     0.189 HD
HETATM    9  N   UNL     1      45.096 -20.508   3.228  1.00  0.00    -0.149 NA
HETATM   10  C   UNL     1      43.873 -19.999   3.154  1.00  0.00     0.190 A 
HETATM   11  C   UNL     1      44.881 -18.355   6.213  1.00  0.00     0.097 C 
ENDROOT
BRANCH   4  12
HETATM   12  C   UNL     1      42.144 -17.332   3.339  1.00  0.00    -0.048 A 
HETATM   13  C   UNL     1      43.231 -16.713   2.691  1.00  0.00     0.009 A 
HETATM   14  C   UNL     1      43.029 -15.796   1.656  1.00  0.00     0.019 A 
HETATM   15  C   UNL     1      41.734 -15.487   1.256  1.00  0.00     0.011 A 
HETATM   16 BR   UNL     1      41.457 -14.246  -0.141  1.00  0.00    -0.051 Br
HETATM   17  C   UNL     1      40.642 -16.085   1.880  1.00  0.00     0.019 A 
HETATM   18  C   UNL     1      40.847 -17.000   2.917  1.00  0.00     0.009 A 
ENDBRANCH   4  12
BRANCH   3  19
HETATM   19  C   UNL     1      42.316 -16.194   5.927  1.00  0.00     0.266 C 
HETATM   20  O   UNL     1      43.255 -15.466   5.634  1.00  0.00    -0.265 OA
BRANCH  19  21
HETATM   21  O   UNL     1      41.072 -15.762   6.287  1.00  0.00    -0.326 OA
HETATM   22  C   UNL     1      40.702 -14.498   5.740  1.00  0.00     0.213 C 
ENDBRANCH  19  21
ENDBRANCH   3  19
BRANCH   2  23
HETATM   23  O   UNL     1      43.083 -19.573   7.329  1.00  0.00    -0.389 OA
HETATM   24  H   UNL     1      43.699 -20.226   6.949  1.00  0.00     0.210 HD
ENDBRANCH   2  23
BRANCH  10  25
HETATM   25  O   UNL     1      43.116 -20.467   2.170  1.00  0.00    -0.343 OA
HETATM   26  H   UNL     1      43.745 -20.696   1.464  1.00  0.00     0.219 HD
ENDBRANCH  10  25
TORSDOF 5
ENDMDL
MODEL 2
REMARK VINA RESULT:      -6.8      2.765      4.259
REMARK  5 active torsions:
REMARK  status: ('A' for Active; 'I' for Inactive)
REMARK    1  A    between atoms: C_2  and  O_3 
REMARK    2  A    between atoms: C_4  and  C_5 
REMARK    3  A    between atoms: C_5  and  O_6 
REMARK    4  A    between atoms: C_9  and  C_10 
REMARK    5  A    between atoms: C_22  and  O_23 
ROOT
HETATM    1  C   UNL     1      44.720 -19.916   3.831  1.00  0.00     0.047 C 
HETATM    2  C   UNL     1      43.570 -19.130   3.181  1.00  0.00     0.073 C 
HETATM    3  C   UNL     1      42.629 -18.423   4.221  1.00  0.00     0.133 C 
HETATM    4  C   UNL     1      41.581 -17.416   3.626  1.00  0.00     0.074 C 
HETATM    5  C   UNL     1      41.856 -17.065   2.201  1.00  0.00     0.030 A 
HETATM    6  C   UNL     1      43.019 -17.388   1.538  1.00  0.00     0.042 A 
HETATM    7  N   UNL     1      42.893 -16.925   0.259  1.00  0.00    -0.279 N 
HETATM    8  H   UNL     1      43.557 -16.985  -0.508  1.00  0.00     0.189 HD
HETATM    9  N   UNL     1      41.683 -16.372   0.025  1.00  0.00    -0.149 NA
HETATM   10  C   UNL     1      41.082 -16.468   1.204  1.00  0.00     0.190 A 
HETATM   11  C   UNL     1      44.145 -18.169   2.101  1.00  0.00     0.097 C 
ENDROOT
BRANCH   4  12
HETATM   12  C   UNL     1      41.428 -16.078   4.345  1.00  0.00    -0.048 A 
HETATM   13  C   UNL     1      40.522 -15.890   5.409  1.00  0.00     0.009 A 
HETATM   14  C   UNL     1      40.383 -14.647   6.029  1.00  0.00     0.019 A 
HETATM   15  C   UNL     1      41.149 -13.571   5.592  1.00  0.00     0.011 A 
HETATM   16 BR   UNL     1      40.961 -11.887   6.427  1.00  0.00    -0.051 Br
HETATM   17  C   UNL     1      42.051 -13.730   4.543  1.00  0.00     0.019 A 
HETATM   18  C   UNL     1      42.187 -14.975   3.922  1.00  0.00     0.009 A 
ENDBRANCH   4  12
BRANCH   3  19
HETATM   19  C   UNL     1      43.414 -17.819   5.367  1.00  0.00     0.266 C 
HETATM   20  O   UNL     1      44.342 -17.033   5.247  1.00  0.00    -0.265 OA
BRANCH  19  21
HETATM   21  O   UNL     1      42.925 -18.282   6.555  1.00  0.00    -0.326 OA
HETATM   22  C   UNL     1      43.034 -17.361   7.640  1.00  0.00     0.213 C 
ENDBRANCH  19  21
ENDBRANCH   3  19
BRANCH   2  23
HETATM   23  O   UNL     1      42.787 -20.156   2.518  1.00  0.00    -0.389 OA
HETATM   24  H   UNL     1      43.194 -21.023   2.700  1.00  0.00     0.210 HD
ENDBRANCH   2  23
BRANCH  10  25
HETATM   25  O   UNL     1      39.832 -16.024   1.248  1.00  0.00    -0.343 OA
HETATM   26  H   UNL     1      39.297 -16.817   1.425  1.00  0.00     0.219 HD
ENDBRANCH  10  25
TORSDOF 5
ENDMDL
MODEL 3
REMARK VINA RESULT:      -6.8      2.688      4.457
REMARK  5 active torsions:
REMARK  status: ('A' for Active; 'I' for Inactive)
REMARK    1  A    between atoms: C_2  and  O_3 
REMARK    2  A    between atoms: C_4  and  C_5 
REMARK    3  A    between atoms: C_5  and  O_6 
REMARK    4  A    between atoms: C_9  and  C_10 
REMARK    5  A    between atoms: C_22  and  O_23 
ROOT
HETATM    1  C   UNL     1      43.593 -19.645   3.292  1.00  0.00     0.047 C 
HETATM    2  C   UNL     1      43.806 -18.608   4.405  1.00  0.00     0.073 C 
HETATM    3  C   UNL     1      43.573 -17.127   3.935  1.00  0.00     0.133 C 
HETATM    4  C   UNL     1      43.542 -16.042   5.070  1.00  0.00     0.074 C 
HETATM    5  C   UNL     1      43.433 -16.634   6.437  1.00  0.00     0.030 A 
HETATM    6  C   UNL     1      43.151 -17.958   6.684  1.00  0.00     0.042 A 
HETATM    7  N   UNL     1      43.157 -18.124   8.040  1.00  0.00    -0.279 N 
HETATM    8  H   UNL     1      42.988 -18.968   8.578  1.00  0.00     0.189 HD
HETATM    9  N   UNL     1      43.492 -16.993   8.698  1.00  0.00    -0.149 NA
HETATM   10  C   UNL     1      43.651 -16.116   7.715  1.00  0.00     0.190 A 
HETATM   11  C   UNL     1      42.968 -19.008   5.654  1.00  0.00     0.097 C 
ENDROOT
BRANCH   4  12
HETATM   12  C   UNL     1      42.430 -14.999   4.995  1.00  0.00    -0.048 A 
HETATM   13  C   UNL     1      41.159 -15.207   5.565  1.00  0.00     0.009 A 
HETATM   14  C   UNL     1      40.151 -14.246   5.456  1.00  0.00     0.019 A 
HETATM   15  C   UNL     1      40.404 -13.061   4.774  1.00  0.00     0.011 A 
HETATM   16 BR   UNL     1      39.042 -11.759   4.623  1.00  0.00    -0.051 Br
HETATM   17  C   UNL     1      41.653 -12.830   4.202  1.00  0.00     0.019 A 
HETATM   18  C   UNL     1      42.658 -13.795   4.310  1.00  0.00     0.009 A 
ENDBRANCH   4  12
BRANCH   3  19
HETATM   19  C   UNL     1      42.382 -17.015   3.006  1.00  0.00     0.266 C 
HETATM   20  O   UNL     1      41.252 -17.409   3.259  1.00  0.00    -0.265 OA
BRANCH  19  21
HETATM   21  O   UNL     1      42.759 -16.404   1.845  1.00  0.00    -0.326 OA
HETATM   22  C   UNL     1      41.737 -15.623   1.228  1.00  0.00     0.213 C 
ENDBRANCH  19  21
ENDBRANCH   3  19
BRANCH   2  23
HETATM   23  O   UNL     1      45.213 -18.742   4.731  1.00  0.00    -0.389 OA
HETATM   24  H   UNL     1      45.498 -17.942   5.211  1.00  0.00     0.210 HD
ENDBRANCH   2  23
BRANCH  10  25
HETATM   25  O   UNL     1      44.032 -14.900   8.089  1.00  0.00    -0.343 OA
HETATM   26  H   UNL     1      44.473 -15.034   8.945  1.00  0.00     0.219 HD
ENDBRANCH  10  25
TORSDOF 5
ENDMDL
MODEL 4
REMARK VINA RESULT:      -6.6      3.130      4.978
REMARK  5 active torsions:
REMARK  status: ('A' for Active; 'I' for Inactive)
REMARK    1  A    between atoms: C_2  and  O_3 
REMARK    2  A    between atoms: C_4  and  C_5 
REMARK    3  A    between atoms: C_5  and  O_6 
REMARK    4  A    between atoms: C_9  and  C_10 
REMARK    5  A    between atoms: C_22  and  O_23 
ROOT
HETATM    1  C   UNL     1      40.335 -14.333   5.549  1.00  0.00     0.047 C 
HETATM    2  C   UNL     1      41.183 -14.848   4.375  1.00  0.00     0.073 C 
HETATM    3  C   UNL     1      42.457 -15.648   4.826  1.00  0.00     0.133 C 
HETATM    4  C   UNL     1      43.235 -16.399   3.688  1.00  0.00     0.074 C 
HETATM    5  C   UNL     1      42.463 -16.483   2.413  1.00  0.00     0.030 A 
HETATM    6  C   UNL     1      41.130 -16.157   2.295  1.00  0.00     0.042 A 
HETATM    7  N   UNL     1      40.787 -16.337   0.986  1.00  0.00    -0.279 N 
HETATM    8  H   UNL     1      39.886 -16.194   0.538  1.00  0.00     0.189 HD
HETATM    9  N   UNL     1      41.838 -16.702   0.221  1.00  0.00    -0.149 NA
HETATM   10  C   UNL     1      42.829 -16.783   1.099  1.00  0.00     0.190 A 
HETATM   11  C   UNL     1      40.273 -15.627   3.381  1.00  0.00     0.097 C 
ENDROOT
BRANCH   4  12
HETATM   12  C   UNL     1      43.675 -17.831   3.984  1.00  0.00    -0.048 A 
HETATM   13  C   UNL     1      43.148 -18.942   3.295  1.00  0.00     0.009 A 
HETATM   14  C   UNL     1      43.549 -20.243   3.607  1.00  0.00     0.019 A 
HETATM   15  C   UNL     1      44.484 -20.450   4.616  1.00  0.00     0.011 A 
HETATM   16 BR   UNL     1      45.025 -22.209   5.043  1.00  0.00    -0.051 Br
HETATM   17  C   UNL     1      45.019 -19.370   5.312  1.00  0.00     0.019 A 
HETATM   18  C   UNL     1      44.615 -18.069   4.999  1.00  0.00     0.009 A 
ENDBRANCH   4  12
BRANCH   3  19
HETATM   19  C   UNL     1      42.165 -16.548   6.008  1.00  0.00     0.266 C 
HETATM   20  O   UNL     1      41.362 -17.471   6.008  1.00  0.00    -0.265 OA
BRANCH  19  21
HETATM   21  O   UNL     1      42.935 -16.177   7.073  1.00  0.00    -0.326 OA
HETATM   22  C   UNL     1      43.141 -17.204   8.041  1.00  0.00     0.213 C 
ENDBRANCH  19  21
ENDBRANCH   3  19
BRANCH   2  23
HETATM   23  O   UNL     1      41.641 -13.634   3.727  1.00  0.00    -0.389 OA
HETATM   24  H   UNL     1      40.919 -13.286   3.172  1.00  0.00     0.210 HD
ENDBRANCH   2  23
BRANCH  10  25
HETATM   25  O   UNL     1      44.018 -17.093   0.596  1.00  0.00    -0.343 OA
HETATM   26  H   UNL     1      43.833 -17.789  -0.058  1.00  0.00     0.219 HD
ENDBRANCH  10  25
TORSDOF 5
ENDMDL
MODEL 5
REMARK VINA RESULT:      -6.5      3.662      5.471
REMARK  5 active torsions:
REMARK  status: ('A' for Active; 'I' for Inactive)
REMARK    1  A    between atoms: C_2  and  O_3 
REMARK    2  A    between atoms: C_4  and  C_5 
REMARK    3  A    between atoms: C_5  and  O_6 
REMARK    4  A    between atoms: C_9  and  C_10 
REMARK    5  A    between atoms: C_22  and  O_23 
ROOT
HETATM    1  C   UNL     1      40.324 -13.670   5.480  1.00  0.00     0.047 C 
HETATM    2  C   UNL     1      40.714 -13.911   4.013  1.00  0.00     0.073 C 
HETATM    3  C   UNL     1      41.978 -14.828   3.844  1.00  0.00     0.133 C 
HETATM    4  C   UNL     1      42.289 -15.306   2.381  1.00  0.00     0.074 C 
HETATM    5  C   UNL     1      41.158 -15.064   1.437  1.00  0.00     0.030 A 
HETATM    6  C   UNL     1      39.894 -14.685   1.829  1.00  0.00     0.042 A 
HETATM    7  N   UNL     1      39.148 -14.539   0.694  1.00  0.00    -0.279 N 
HETATM    8  H   UNL     1      38.173 -14.270   0.603  1.00  0.00     0.189 HD
HETATM    9  N   UNL     1      39.872 -14.737  -0.429  1.00  0.00    -0.149 NA
HETATM   10  C   UNL     1      41.071 -15.051   0.044  1.00  0.00     0.190 A 
HETATM   11  C   UNL     1      39.469 -14.407   3.221  1.00  0.00     0.097 C 
ENDROOT
BRANCH   4  12
HETATM   12  C   UNL     1      42.652 -16.778   2.200  1.00  0.00    -0.048 A 
HETATM   13  C   UNL     1      41.688 -17.765   1.914  1.00  0.00     0.009 A 
HETATM   14  C   UNL     1      42.046 -19.109   1.782  1.00  0.00     0.019 A 
HETATM   15  C   UNL     1      43.377 -19.483   1.935  1.00  0.00     0.011 A 
HETATM   16 BR   UNL     1      43.863 -21.301   1.760  1.00  0.00    -0.051 Br
HETATM   17  C   UNL     1      44.349 -18.528   2.218  1.00  0.00     0.019 A 
HETATM   18  C   UNL     1      43.988 -17.184   2.352  1.00  0.00     0.009 A 
ENDBRANCH   4  12
BRANCH   3  19
HETATM   19  C   UNL     1      41.974 -15.977   4.831  1.00  0.00     0.266 C 
HETATM   20  O   UNL     1      41.071 -16.791   4.960  1.00  0.00    -0.265 OA
BRANCH  19  21
HETATM   21  O   UNL     1      43.133 -15.970   5.552  1.00  0.00    -0.326 OA
HETATM   22  C   UNL     1      43.549 -17.253   6.018  1.00  0.00     0.213 C 
ENDBRANCH  19  21
ENDBRANCH   3  19
BRANCH   2  23
HETATM   23  O   UNL     1      41.071 -12.590   3.533  1.00  0.00    -0.389 OA
HETATM   24  H   UNL     1      40.899 -12.551   2.574  1.00  0.00     0.210 HD
ENDBRANCH   2  23
BRANCH  10  25
HETATM   25  O   UNL     1      42.010 -15.262  -0.871  1.00  0.00    -0.343 OA
HETATM   26  H   UNL     1      41.989 -14.468  -1.432  1.00  0.00     0.219 HD
ENDBRANCH  10  25
TORSDOF 5
ENDMDL
MODEL 6
REMARK VINA RESULT:      -6.3      3.072      4.899
REMARK  5 active torsions:
REMARK  status: ('A' for Active; 'I' for Inactive)
REMARK    1  A    between atoms: C_2  and  O_3 
REMARK    2  A    between atoms: C_4  and  C_5 
REMARK    3  A    between atoms: C_5  and  O_6 
REMARK    4  A    between atoms: C_9  and  C_10 
REMARK    5  A    between atoms: C_22  and  O_23 
ROOT
HETATM    1  C   UNL     1      42.088 -12.388   4.091  1.00  0.00     0.047 C 
HETATM    2  C   UNL     1      42.084 -13.630   4.996  1.00  0.00     0.073 C 
HETATM    3  C   UNL     1      41.698 -14.952   4.242  1.00  0.00     0.133 C 
HETATM    4  C   UNL     1      41.902 -16.286   5.045  1.00  0.00     0.074 C 
HETATM    5  C   UNL     1      42.719 -16.101   6.282  1.00  0.00     0.030 A 
HETATM    6  C   UNL     1      43.421 -14.954   6.578  1.00  0.00     0.042 A 
HETATM    7  N   UNL     1      44.019 -15.151   7.790  1.00  0.00    -0.279 N 
HETATM    8  H   UNL     1      44.614 -14.518   8.317  1.00  0.00     0.189 HD
HETATM    9  N   UNL     1      43.696 -16.342   8.339  1.00  0.00    -0.149 NA
HETATM   10  C   UNL     1      42.918 -16.891   7.415  1.00  0.00     0.190 A 
HETATM   11  C   UNL     1      43.436 -13.717   5.762  1.00  0.00     0.097 C 
ENDROOT
BRANCH   4  12
HETATM   12  C   UNL     1      42.561 -17.444   4.300  1.00  0.00    -0.048 A 
HETATM   13  C   UNL     1      41.939 -18.100   3.220  1.00  0.00     0.009 A 
HETATM   14  C   UNL     1      42.554 -19.176   2.575  1.00  0.00     0.019 A 
HETATM   15  C   UNL     1      43.804 -19.610   3.004  1.00  0.00     0.011 A 
HETATM   16 BR   UNL     1      44.637 -21.067   2.136  1.00  0.00    -0.051 Br
HETATM   17  C   UNL     1      44.441 -18.979   4.070  1.00  0.00     0.019 A 
HETATM   18  C   UNL     1      43.822 -17.904   4.715  1.00  0.00     0.009 A 
ENDBRANCH   4  12
BRANCH   3  19
HETATM   19  C   UNL     1      42.322 -15.015   2.864  1.00  0.00     0.266 C 
HETATM   20  O   UNL     1      43.523 -15.051   2.636  1.00  0.00    -0.265 OA
BRANCH  19  21
HETATM   21  O   UNL     1      41.342 -15.029   1.913  1.00  0.00    -0.326 OA
HETATM   22  C   UNL     1      41.790 -15.380   0.605  1.00  0.00     0.213 C 
ENDBRANCH  19  21
ENDBRANCH   3  19
BRANCH   2  23
HETATM   23  O   UNL     1      41.029 -13.352   5.952  1.00  0.00    -0.389 OA
HETATM   24  H   UNL     1      40.631 -12.490   5.734  1.00  0.00     0.210 HD
ENDBRANCH   2  23
BRANCH  10  25
HETATM   25  O   UNL     1      42.415 -18.081   7.723  1.00  0.00    -0.343 OA
HETATM   26  H   UNL     1      41.537 -18.092   7.306  1.00  0.00     0.219 HD
ENDBRANCH  10  25
TORSDOF 5
ENDMDL
MODEL 7
REMARK VINA RESULT:      -6.2      3.266      5.225
REMARK  5 active torsions:
REMARK  status: ('A' for Active; 'I' for Inactive)
REMARK    1  A    between atoms: C_2  and  O_3 
REMARK    2  A    between atoms: C_4  and  C_5 
REMARK    3  A    between atoms: C_5  and  O_6 
REMARK    4  A    between atoms: C_9  and  C_10 
REMARK    5  A    between atoms: C_22  and  O_23 
ROOT
HETATM    1  C   UNL     1      42.876 -18.482   4.488  1.00  0.00     0.047 C 
HETATM    2  C   UNL     1      42.491 -16.997   4.584  1.00  0.00     0.073 C 
HETATM    3  C   UNL     1      42.500 -16.257   3.199  1.00  0.00     0.133 C 
HETATM    4  C   UNL     1      41.892 -14.809   3.190  1.00  0.00     0.074 C 
HETATM    5  C   UNL     1      41.126 -14.492   4.432  1.00  0.00     0.030 A 
HETATM    6  C   UNL     1      40.779 -15.424   5.383  1.00  0.00     0.042 A 
HETATM    7  N   UNL     1      40.112 -14.760   6.372  1.00  0.00    -0.279 N 
HETATM    8  H   UNL     1      39.710 -15.130   7.229  1.00  0.00     0.189 HD
HETATM    9  N   UNL     1      40.058 -13.428   6.155  1.00  0.00    -0.149 NA
HETATM   10  C   UNL     1      40.672 -13.294   4.986  1.00  0.00     0.190 A 
HETATM   11  C   UNL     1      41.149 -16.859   5.360  1.00  0.00     0.097 C 
ENDROOT
BRANCH   4  12
HETATM   12  C   UNL     1      40.949 -14.466   2.039  1.00  0.00    -0.048 A 
HETATM   13  C   UNL     1      39.557 -14.673   2.115  1.00  0.00     0.009 A 
HETATM   14  C   UNL     1      38.722 -14.376   1.036  1.00  0.00     0.019 A 
HETATM   15  C   UNL     1      39.270 -13.866  -0.137  1.00  0.00     0.011 A 
HETATM   16 BR   UNL     1      38.144 -13.466  -1.600  1.00  0.00    -0.051 Br
HETATM   17  C   UNL     1      40.643 -13.652  -0.237  1.00  0.00     0.019 A 
HETATM   18  C   UNL     1      41.477 -13.953   0.844  1.00  0.00     0.009 A 
ENDBRANCH   4  12
BRANCH   3  19
HETATM   19  C   UNL     1      41.928 -17.123   2.096  1.00  0.00     0.266 C 
HETATM   20  O   UNL     1      40.844 -17.688   2.136  1.00  0.00    -0.265 OA
BRANCH  19  21
HETATM   21  O   UNL     1      42.803 -17.175   1.050  1.00  0.00    -0.326 OA
HETATM   22  C   UNL     1      44.175 -17.274   1.428  1.00  0.00     0.213 C 
ENDBRANCH  19  21
ENDBRANCH   3  19
BRANCH   2  23
HETATM   23  O   UNL     1      43.551 -16.421   5.390  1.00  0.00    -0.389 OA
HETATM   24  H   UNL     1      43.573 -15.460   5.232  1.00  0.00     0.210 HD
ENDBRANCH   2  23
BRANCH  10  25
HETATM   25  O   UNL     1      40.797 -12.048   4.545  1.00  0.00    -0.343 OA
HETATM   26  H   UNL     1      40.419 -12.067   3.649  1.00  0.00     0.219 HD
ENDBRANCH  10  25
TORSDOF 5
ENDMDL
MODEL 8
REMARK VINA RESULT:      -6.1      3.430      5.346
REMARK  5 active torsions:
REMARK  status: ('A' for Active; 'I' for Inactive)
REMARK    1  A    between atoms: C_2  and  O_3 
REMARK    2  A    between atoms: C_4  and  C_5 
REMARK    3  A    between atoms: C_5  and  O_6 
REMARK    4  A    between atoms: C_9  and  C_10 
REMARK    5  A    between atoms: C_22  and  O_23 
ROOT
HETATM    1  C   UNL     1      41.511 -12.035   3.981  1.00  0.00     0.047 C 
HETATM    2  C   UNL     1      41.979 -13.231   3.137  1.00  0.00     0.073 C 
HETATM    3  C   UNL     1      43.006 -14.159   3.880  1.00  0.00     0.133 C 
HETATM    4  C   UNL     1      43.342 -15.519   3.171  1.00  0.00     0.074 C 
HETATM    5  C   UNL     1      42.398 -15.844   2.060  1.00  0.00     0.030 A 
HETATM    6  C   UNL     1      41.224 -15.166   1.822  1.00  0.00     0.042 A 
HETATM    7  N   UNL     1      40.650 -15.732   0.720  1.00  0.00    -0.279 N 
HETATM    8  H   UNL     1      39.778 -15.487   0.260  1.00  0.00     0.189 HD
HETATM    9  N   UNL     1      41.416 -16.704   0.179  1.00  0.00    -0.149 NA
HETATM   10  C   UNL     1      42.456 -16.752   1.001  1.00  0.00     0.190 A 
HETATM   11  C   UNL     1      40.739 -13.989   2.580  1.00  0.00     0.097 C 
ENDROOT
BRANCH   4  12
HETATM   12  C   UNL     1      43.369 -16.766   4.051  1.00  0.00    -0.048 A 
HETATM   13  C   UNL     1      42.227 -17.562   4.270  1.00  0.00     0.009 A 
HETATM   14  C   UNL     1      42.275 -18.682   5.104  1.00  0.00     0.019 A 
HETATM   15  C   UNL     1      43.470 -19.021   5.730  1.00  0.00     0.011 A 
HETATM   16 BR   UNL     1      43.538 -20.534   6.860  1.00  0.00    -0.051 Br
HETATM   17  C   UNL     1      44.613 -18.251   5.530  1.00  0.00     0.019 A 
HETATM   18  C   UNL     1      44.562 -17.129   4.697  1.00  0.00     0.009 A 
ENDBRANCH   4  12
BRANCH   3  19
HETATM   19  C   UNL     1      42.637 -14.351   5.336  1.00  0.00     0.266 C 
HETATM   20  O   UNL     1      41.592 -14.845   5.739  1.00  0.00    -0.265 OA
BRANCH  19  21
HETATM   21  O   UNL     1      43.647 -13.894   6.133  1.00  0.00    -0.326 OA
HETATM   22  C   UNL     1      44.052 -14.802   7.156  1.00  0.00     0.213 C 
ENDBRANCH  19  21
ENDBRANCH   3  19
BRANCH   2  23
HETATM   23  O   UNL     1      42.679 -12.613   2.028  1.00  0.00    -0.389 OA
HETATM   24  H   UNL     1      43.395 -12.056   2.384  1.00  0.00     0.210 HD
ENDBRANCH   2  23
BRANCH  10  25
HETATM   25  O   UNL     1      43.406 -17.619   0.672  1.00  0.00    -0.343 OA
HETATM   26  H   UNL     1      42.927 -18.436   0.452  1.00  0.00     0.219 HD
ENDBRANCH  10  25
TORSDOF 5
ENDMDL
MODEL 9
REMARK VINA RESULT:      -6.0      3.339      4.578
REMARK  5 active torsions:
REMARK  status: ('A' for Active; 'I' for Inactive)
REMARK    1  A    between atoms: C_2  and  O_3 
REMARK    2  A    between atoms: C_4  and  C_5 
REMARK    3  A    between atoms: C_5  and  O_6 
REMARK    4  A    between atoms: C_9  and  C_10 
REMARK    5  A    between atoms: C_22  and  O_23 
ROOT
HETATM    1  C   UNL     1      40.601 -13.337   5.868  1.00  0.00     0.047 C 
HETATM    2  C   UNL     1      40.522 -14.463   4.825  1.00  0.00     0.073 C 
HETATM    3  C   UNL     1      39.647 -14.096   3.573  1.00  0.00     0.133 C 
HETATM    4  C   UNL     1      39.716 -15.101   2.368  1.00  0.00     0.074 C 
HETATM    5  C   UNL     1      40.838 -16.080   2.490  1.00  0.00     0.030 A 
HETATM    6  C   UNL     1      41.849 -15.982   3.420  1.00  0.00     0.042 A 
HETATM    7  N   UNL     1      42.666 -17.061   3.239  1.00  0.00    -0.279 N 
HETATM    8  H   UNL     1      43.510 -17.311   3.745  1.00  0.00     0.189 HD
HETATM    9  N   UNL     1      42.212 -17.900   2.283  1.00  0.00    -0.149 NA
HETATM   10  C   UNL     1      41.116 -17.289   1.851  1.00  0.00     0.190 A 
HETATM   11  C   UNL     1      41.960 -14.940   4.468  1.00  0.00     0.097 C 
ENDROOT
BRANCH   4  12
HETATM   12  C   UNL     1      39.863 -14.496   0.974  1.00  0.00    -0.048 A 
HETATM   13  C   UNL     1      41.117 -14.308   0.360  1.00  0.00     0.009 A 
HETATM   14  C   UNL     1      41.223 -13.726  -0.905  1.00  0.00     0.019 A 
HETATM   15  C   UNL     1      40.072 -13.324  -1.574  1.00  0.00     0.011 A 
HETATM   16 BR   UNL     1      40.211 -12.533  -3.285  1.00  0.00    -0.051 Br
HETATM   17  C   UNL     1      38.820 -13.499  -0.989  1.00  0.00     0.019 A 
HETATM   18  C   UNL     1      38.717 -14.079   0.278  1.00  0.00     0.009 A 
ENDBRANCH   4  12
BRANCH   3  19
HETATM   19  C   UNL     1      39.869 -12.664   3.134  1.00  0.00     0.266 C 
HETATM   20  O   UNL     1      40.957 -12.166   2.878  1.00  0.00    -0.265 OA
BRANCH  19  21
HETATM   21  O   UNL     1      38.672 -12.012   3.062  1.00  0.00    -0.326 OA
HETATM   22  C   UNL     1      38.509 -10.964   4.016  1.00  0.00     0.213 C 
ENDBRANCH  19  21
ENDBRANCH   3  19
BRANCH   2  23
HETATM   23  O   UNL     1      39.842 -15.533   5.529  1.00  0.00    -0.389 OA
HETATM   24  H   UNL     1      39.261 -15.140   6.205  1.00  0.00     0.210 HD
ENDBRANCH   2  23
BRANCH  10  25
HETATM   25  O   UNL     1      40.433 -17.934   0.913  1.00  0.00    -0.343 OA
HETATM   26  H   UNL     1      40.364 -17.299   0.180  1.00  0.00     0.219 HD
ENDBRANCH  10  25
TORSDOF 5
ENDMDL
MODEL 10
REMARK VINA RESULT:      -5.9      2.584      3.204
REMARK  5 active torsions:
REMARK  status: ('A' for Active; 'I' for Inactive)
REMARK    1  A    between atoms: C_2  and  O_3 
REMARK    2  A    between atoms: C_4  and  C_5 
REMARK    3  A    between atoms: C_5  and  O_6 
REMARK    4  A    between atoms: C_9  and  C_10 
REMARK    5  A    between atoms: C_22  and  O_23 
ROOT
HETATM    1  C   UNL     1      42.578 -17.019   6.751  1.00  0.00     0.047 C 
HETATM    2  C   UNL     1      42.249 -17.093   5.251  1.00  0.00     0.073 C 
HETATM    3  C   UNL     1      41.142 -16.074   4.802  1.00  0.00     0.133 C 
HETATM    4  C   UNL     1      40.927 -15.932   3.253  1.00  0.00     0.074 C 
HETATM    5  C   UNL     1      42.020 -16.560   2.454  1.00  0.00     0.030 A 
HETATM    6  C   UNL     1      43.207 -17.009   2.989  1.00  0.00     0.042 A 
HETATM    7  N   UNL     1      43.937 -17.536   1.962  1.00  0.00    -0.279 N 
HETATM    8  H   UNL     1      44.861 -17.957   1.988  1.00  0.00     0.189 HD
HETATM    9  N   UNL     1      43.267 -17.519   0.789  1.00  0.00    -0.149 NA
HETATM   10  C   UNL     1      42.123 -16.929   1.111  1.00  0.00     0.190 A 
HETATM   11  C   UNL     1      43.566 -16.993   4.427  1.00  0.00     0.097 C 
ENDROOT
BRANCH   4  12
HETATM   12  C   UNL     1      40.794 -14.514   2.704  1.00  0.00    -0.048 A 
HETATM   13  C   UNL     1      41.912 -13.731   2.353  1.00  0.00     0.009 A 
HETATM   14  C   UNL     1      41.762 -12.426   1.880  1.00  0.00     0.019 A 
HETATM   15  C   UNL     1      40.487 -11.885   1.751  1.00  0.00     0.011 A 
HETATM   16 BR   UNL     1      40.279 -10.118   1.113  1.00  0.00    -0.051 Br
HETATM   17  C   UNL     1      39.365 -12.638   2.090  1.00  0.00     0.019 A 
HETATM   18  C   UNL     1      39.519 -13.943   2.566  1.00  0.00     0.009 A 
ENDBRANCH   4  12
BRANCH   3  19
HETATM   19  C   UNL     1      41.307 -14.731   5.481  1.00  0.00     0.266 C 
HETATM   20  O   UNL     1      42.348 -14.089   5.528  1.00  0.00    -0.265 OA
BRANCH  19  21
HETATM   21  O   UNL     1      40.119 -14.340   6.028  1.00  0.00    -0.326 OA
HETATM   22  C   UNL     1      39.925 -12.928   6.077  1.00  0.00     0.213 C 
ENDBRANCH  19  21
ENDBRANCH   3  19
BRANCH   2  23
HETATM   23  O   UNL     1      41.702 -18.427   5.088  1.00  0.00    -0.389 OA
HETATM   24  H   UNL     1      41.514 -18.795   5.970  1.00  0.00     0.210 HD
ENDBRANCH   2  23
BRANCH  10  25
HETATM   25  O   UNL     1      41.240 -16.816   0.126  1.00  0.00    -0.343 OA
HETATM   26  H   UNL     1      40.774 -17.670   0.116  1.00  0.00     0.219 HD
ENDBRANCH  10  25
TORSDOF 5
ENDMDL
