MODEL 1
REMARK VINA RESULT:      -8.0      0.000      0.000
REMARK  9 active torsions:
REMARK  status: ('A' for Active; 'I' for Inactive)
REMARK    1  A    between atoms: C_3  and  C_4 
REMARK       I    between atoms: C_4  and  N_5 
REMARK    2  A    between atoms: N_5  and  N_6 
REMARK    3  A    between atoms: N_6  and  C_7 
REMARK    4  A    between atoms: C_7  and  N_8 
REMARK    5  A    between atoms: N_8  and  C_9 
REMARK    6  A    between atoms: C_9  and  C_10 
REMARK    7  A    between atoms: C_18  and  C_19 
REMARK    8  A    between atoms: C_19  and  O_20 
REMARK    9  A    between atoms: O_20  and  C_21 
ROOT
HETATM    1  C   UNL     1      42.982 -11.122  12.329  1.00  0.00     0.069 A 
HETATM    2  C   UNL     1      43.595 -12.313  11.941  1.00  0.00     0.038 A 
HETATM    3  C   UNL     1      44.582 -12.302  10.947  1.00  0.00     0.025 A 
HETATM    4  C   UNL     1      44.957 -11.102  10.334  1.00  0.00     0.044 A 
HETATM    5  C   UNL     1      45.966 -11.096   9.316  1.00  0.00     0.099 C 
HETATM    6  N   UNL     1      46.783 -11.096   8.490  1.00  0.00    -0.191 NA
HETATM    7  C   UNL     1      44.342  -9.909  10.721  1.00  0.00     0.025 A 
HETATM    8  C   UNL     1      43.361  -9.924  11.715  1.00  0.00     0.038 A 
ENDROOT
BRANCH   1   9
HETATM    9  O   UNL     1      42.016 -10.988  13.284  1.00  0.00    -0.347 OA
BRANCH   9  10
HETATM   10  C   UNL     1      40.733 -11.545  13.008  1.00  0.00     0.214 C 
BRANCH  10  11
HETATM   11  C   UNL     1      40.116 -10.724  11.902  1.00  0.00    -0.033 A 
HETATM   12  C   UNL     1      40.013 -11.255  10.604  1.00  0.00     0.026 A 
HETATM   13  C   UNL     1      39.394 -10.526   9.580  1.00  0.00     0.034 A 
HETATM   14  C   UNL     1      38.897  -9.246   9.859  1.00  0.00     0.017 A 
HETATM   15  C   UNL     1      38.994  -8.712  11.144  1.00  0.00     0.002 A 
HETATM   16  C   UNL     1      39.591  -9.451  12.164  1.00  0.00     0.009 A 
BRANCH  13  17
HETATM   17  C   UNL     1      39.227 -11.053   8.193  1.00  0.00     0.270 C 
HETATM   18  N   UNL     1      39.303 -12.422   8.024  1.00  0.00    -0.264 N 
HETATM   19  H   UNL     1      39.377 -13.097   8.777  1.00  0.00     0.190 HD
HETATM   20  O   UNL     1      39.004 -10.292   7.252  1.00  0.00    -0.266 OA
BRANCH  18  21
HETATM   21  N   UNL     1      39.044 -12.943   6.750  1.00  0.00    -0.274 N 
HETATM   22  H   UNL     1      38.262 -12.497   6.274  1.00  0.00     0.189 HD
BRANCH  21  23
HETATM   23  C   UNL     1      40.040 -13.538   6.017  1.00  0.00     0.186 C 
HETATM   24  S   UNL     1      40.922 -12.791   4.807  1.00  0.00    -0.040 SA
BRANCH  23  25
HETATM   25  N   UNL     1      40.360 -14.818   6.365  1.00  0.00    -0.364 N 
HETATM   26  H   UNL     1      39.812 -15.171   7.146  1.00  0.00     0.162 HD
BRANCH  25  27
HETATM   27  C   UNL     1      40.885 -15.846   5.473  1.00  0.00     0.154 C 
BRANCH  27  28
HETATM   28  C   UNL     1      42.249 -16.351   5.946  1.00  0.00     0.139 C 
HETATM   29  O   UNL     1      43.100 -15.239   6.276  1.00  0.00    -0.384 OA
HETATM   30  C   UNL     1      44.109 -15.749   7.151  1.00  0.00     0.168 C 
HETATM   31  C   UNL     1      43.475 -16.882   7.933  1.00  0.00     0.029 C 
HETATM   32  C   UNL     1      42.173 -17.175   7.218  1.00  0.00     0.035 C 
ENDBRANCH  27  28
ENDBRANCH  25  27
ENDBRANCH  23  25
ENDBRANCH  21  23
ENDBRANCH  18  21
ENDBRANCH  13  17
ENDBRANCH  10  11
ENDBRANCH   9  10
ENDBRANCH   1   9
TORSDOF 9
ENDMDL
MODEL 2
REMARK VINA RESULT:      -7.9      3.350      5.630
REMARK  9 active torsions:
REMARK  status: ('A' for Active; 'I' for Inactive)
REMARK    1  A    between atoms: C_3  and  C_4 
REMARK       I    between atoms: C_4  and  N_5 
REMARK    2  A    between atoms: N_5  and  N_6 
REMARK    3  A    between atoms: N_6  and  C_7 
REMARK    4  A    between atoms: C_7  and  N_8 
REMARK    5  A    between atoms: N_8  and  C_9 
REMARK    6  A    between atoms: C_9  and  C_10 
REMARK    7  A    between atoms: C_18  and  C_19 
REMARK    8  A    between atoms: C_19  and  O_20 
REMARK    9  A    between atoms: O_20  and  C_21 
ROOT
HETATM    1  C   UNL     1      43.067 -10.988  12.023  1.00  0.00     0.069 A 
HETATM    2  C   UNL     1      41.826 -11.357  12.540  1.00  0.00     0.038 A 
HETATM    3  C   UNL     1      41.309 -10.699  13.663  1.00  0.00     0.025 A 
HETATM    4  C   UNL     1      42.034  -9.672  14.277  1.00  0.00     0.044 A 
HETATM    5  C   UNL     1      41.502  -9.002  15.428  1.00  0.00     0.099 C 
HETATM    6  N   UNL     1      41.070  -8.463  16.361  1.00  0.00    -0.191 NA
HETATM    7  C   UNL     1      43.278  -9.303  13.761  1.00  0.00     0.025 A 
HETATM    8  C   UNL     1      43.788  -9.959  12.638  1.00  0.00     0.038 A 
ENDROOT
BRANCH   1   9
HETATM    9  O   UNL     1      43.683 -11.537  10.935  1.00  0.00    -0.347 OA
BRANCH   9  10
HETATM   10  C   UNL     1      44.908 -10.950  10.504  1.00  0.00     0.214 C 
BRANCH  10  11
HETATM   11  C   UNL     1      45.393 -11.745   9.316  1.00  0.00    -0.033 A 
HETATM   12  C   UNL     1      44.579 -12.746   8.758  1.00  0.00     0.026 A 
HETATM   13  C   UNL     1      44.993 -13.455   7.623  1.00  0.00     0.034 A 
HETATM   14  C   UNL     1      46.245 -13.171   7.061  1.00  0.00     0.017 A 
HETATM   15  C   UNL     1      47.058 -12.178   7.607  1.00  0.00     0.002 A 
HETATM   16  C   UNL     1      46.631 -11.461   8.724  1.00  0.00     0.009 A 
BRANCH  13  17
HETATM   17  C   UNL     1      44.156 -14.504   6.969  1.00  0.00     0.270 C 
HETATM   18  N   UNL     1      42.958 -14.100   6.412  1.00  0.00    -0.264 N 
HETATM   19  H   UNL     1      42.647 -13.138   6.337  1.00  0.00     0.190 HD
HETATM   20  O   UNL     1      44.540 -15.671   6.911  1.00  0.00    -0.266 OA
BRANCH  18  21
HETATM   21  N   UNL     1      42.210 -15.048   5.702  1.00  0.00    -0.274 N 
HETATM   22  H   UNL     1      41.299 -15.245   6.111  1.00  0.00     0.189 HD
BRANCH  21  23
HETATM   23  C   UNL     1      42.409 -15.237   4.357  1.00  0.00     0.186 C 
HETATM   24  S   UNL     1      41.852 -14.222   3.149  1.00  0.00    -0.040 SA
BRANCH  23  25
HETATM   25  N   UNL     1      43.178 -16.308   4.007  1.00  0.00    -0.364 N 
HETATM   26  H   UNL     1      44.176 -16.143   4.128  1.00  0.00     0.162 HD
BRANCH  25  27
HETATM   27  C   UNL     1      42.780 -17.710   4.067  1.00  0.00     0.154 C 
BRANCH  27  28
HETATM   28  C   UNL     1      43.886 -18.627   3.542  1.00  0.00     0.139 C 
HETATM   29  O   UNL     1      44.238 -19.598   4.543  1.00  0.00    -0.384 OA
HETATM   30  C   UNL     1      44.863 -20.683   3.851  1.00  0.00     0.168 C 
HETATM   31  C   UNL     1      44.229 -20.744   2.476  1.00  0.00     0.029 C 
HETATM   32  C   UNL     1      43.461 -19.446   2.337  1.00  0.00     0.035 C 
ENDBRANCH  27  28
ENDBRANCH  25  27
ENDBRANCH  23  25
ENDBRANCH  21  23
ENDBRANCH  18  21
ENDBRANCH  13  17
ENDBRANCH  10  11
ENDBRANCH   9  10
ENDBRANCH   1   9
TORSDOF 9
ENDMDL
MODEL 3
REMARK VINA RESULT:      -7.5      6.146      8.717
REMARK  9 active torsions:
REMARK  status: ('A' for Active; 'I' for Inactive)
REMARK    1  A    between atoms: C_3  and  C_4 
REMARK       I    between atoms: C_4  and  N_5 
REMARK    2  A    between atoms: N_5  and  N_6 
REMARK    3  A    between atoms: N_6  and  C_7 
REMARK    4  A    between atoms: C_7  and  N_8 
REMARK    5  A    between atoms: N_8  and  C_9 
REMARK    6  A    between atoms: C_9  and  C_10 
REMARK    7  A    between atoms: C_18  and  C_19 
REMARK    8  A    between atoms: C_19  and  O_20 
REMARK    9  A    between atoms: O_20  and  C_21 
ROOT
HETATM    1  C   UNL     1      43.715 -17.372   3.775  1.00  0.00     0.069 A 
HETATM    2  C   UNL     1      43.977 -18.478   4.583  1.00  0.00     0.038 A 
HETATM    3  C   UNL     1      44.120 -19.747   4.009  1.00  0.00     0.025 A 
HETATM    4  C   UNL     1      43.998 -19.918   2.626  1.00  0.00     0.044 A 
HETATM    5  C   UNL     1      44.144 -21.219   2.043  1.00  0.00     0.099 C 
HETATM    6  N   UNL     1      44.261 -22.276   1.576  1.00  0.00    -0.191 NA
HETATM    7  C   UNL     1      43.734 -18.811   1.816  1.00  0.00     0.025 A 
HETATM    8  C   UNL     1      43.595 -17.545   2.392  1.00  0.00     0.038 A 
ENDROOT
BRANCH   1   9
HETATM    9  O   UNL     1      43.560 -16.083   4.198  1.00  0.00    -0.347 OA
BRANCH   9  10
HETATM   10  C   UNL     1      42.914 -15.874   5.452  1.00  0.00     0.214 C 
BRANCH  10  11
HETATM   11  C   UNL     1      41.844 -14.831   5.237  1.00  0.00    -0.033 A 
HETATM   12  C   UNL     1      42.051 -13.790   4.314  1.00  0.00     0.026 A 
HETATM   13  C   UNL     1      41.046 -12.846   4.064  1.00  0.00     0.034 A 
HETATM   14  C   UNL     1      39.836 -12.936   4.765  1.00  0.00     0.017 A 
HETATM   15  C   UNL     1      39.622 -13.967   5.681  1.00  0.00     0.002 A 
HETATM   16  C   UNL     1      40.617 -14.916   5.909  1.00  0.00     0.009 A 
BRANCH  13  17
HETATM   17  C   UNL     1      41.197 -11.740   3.072  1.00  0.00     0.270 C 
HETATM   18  N   UNL     1      41.967 -11.996   1.954  1.00  0.00    -0.264 N 
HETATM   19  H   UNL     1      42.362 -12.899   1.715  1.00  0.00     0.190 HD
HETATM   20  O   UNL     1      40.634 -10.660   3.241  1.00  0.00    -0.266 OA
BRANCH  18  21
HETATM   21  N   UNL     1      42.033 -11.009   0.962  1.00  0.00    -0.274 N 
HETATM   22  H   UNL     1      42.516 -10.162   1.255  1.00  0.00     0.189 HD
BRANCH  21  23
HETATM   23  C   UNL     1      41.991 -11.345  -0.368  1.00  0.00     0.186 C 
HETATM   24  S   UNL     1      43.113 -10.873  -1.516  1.00  0.00    -0.040 SA
BRANCH  23  25
HETATM   25  N   UNL     1      40.982 -12.182  -0.746  1.00  0.00    -0.364 N 
HETATM   26  H   UNL     1      40.144 -11.690  -1.048  1.00  0.00     0.162 HD
BRANCH  25  27
HETATM   27  C   UNL     1      41.138 -13.522  -1.301  1.00  0.00     0.154 C 
BRANCH  27  28
HETATM   28  C   UNL     1      40.453 -14.572  -0.425  1.00  0.00     0.139 C 
HETATM   29  O   UNL     1      41.327 -14.965   0.647  1.00  0.00    -0.384 OA
HETATM   30  C   UNL     1      40.491 -15.522   1.666  1.00  0.00     0.168 C 
HETATM   31  C   UNL     1      39.161 -14.801   1.578  1.00  0.00     0.029 C 
HETATM   32  C   UNL     1      39.202 -14.055   0.261  1.00  0.00     0.035 C 
ENDBRANCH  27  28
ENDBRANCH  25  27
ENDBRANCH  23  25
ENDBRANCH  21  23
ENDBRANCH  18  21
ENDBRANCH  13  17
ENDBRANCH  10  11
ENDBRANCH   9  10
ENDBRANCH   1   9
TORSDOF 9
ENDMDL
MODEL 4
REMARK VINA RESULT:      -7.4      3.494      8.510
REMARK  9 active torsions:
REMARK  status: ('A' for Active; 'I' for Inactive)
REMARK    1  A    between atoms: C_3  and  C_4 
REMARK       I    between atoms: C_4  and  N_5 
REMARK    2  A    between atoms: N_5  and  N_6 
REMARK    3  A    between atoms: N_6  and  C_7 
REMARK    4  A    between atoms: C_7  and  N_8 
REMARK    5  A    between atoms: N_8  and  C_9 
REMARK    6  A    between atoms: C_9  and  C_10 
REMARK    7  A    between atoms: C_18  and  C_19 
REMARK    8  A    between atoms: C_19  and  O_20 
REMARK    9  A    between atoms: O_20  and  C_21 
ROOT
HETATM    1  C   UNL     1      43.649 -17.644   4.225  1.00  0.00     0.069 A 
HETATM    2  C   UNL     1      43.199 -17.770   2.912  1.00  0.00     0.038 A 
HETATM    3  C   UNL     1      43.368 -18.979   2.225  1.00  0.00     0.025 A 
HETATM    4  C   UNL     1      43.990 -20.066   2.847  1.00  0.00     0.044 A 
HETATM    5  C   UNL     1      44.161 -21.301   2.140  1.00  0.00     0.099 C 
HETATM    6  N   UNL     1      44.301 -22.299   1.563  1.00  0.00    -0.191 NA
HETATM    7  C   UNL     1      44.442 -19.940   4.163  1.00  0.00     0.025 A 
HETATM    8  C   UNL     1      44.269 -18.734   4.845  1.00  0.00     0.038 A 
ENDROOT
BRANCH   1   9
HETATM    9  O   UNL     1      43.544 -16.531   5.010  1.00  0.00    -0.347 OA
BRANCH   9  10
HETATM   10  C   UNL     1      43.433 -15.271   4.355  1.00  0.00     0.214 C 
BRANCH  10  11
HETATM   11  C   UNL     1      42.206 -14.585   4.908  1.00  0.00    -0.033 A 
HETATM   12  C   UNL     1      42.316 -13.312   5.495  1.00  0.00     0.026 A 
HETATM   13  C   UNL     1      41.178 -12.639   5.963  1.00  0.00     0.034 A 
HETATM   14  C   UNL     1      39.928 -13.263   5.860  1.00  0.00     0.017 A 
HETATM   15  C   UNL     1      39.811 -14.526   5.278  1.00  0.00     0.002 A 
HETATM   16  C   UNL     1      40.943 -15.180   4.794  1.00  0.00     0.009 A 
BRANCH  13  17
HETATM   17  C   UNL     1      41.230 -11.274   6.564  1.00  0.00     0.270 C 
HETATM   18  N   UNL     1      41.268 -11.193   7.943  1.00  0.00    -0.264 N 
HETATM   19  H   UNL     1      41.351 -11.986   8.570  1.00  0.00     0.190 HD
HETATM   20  O   UNL     1      41.264 -10.272   5.852  1.00  0.00    -0.266 OA
BRANCH  18  21
HETATM   21  N   UNL     1      41.425  -9.928   8.523  1.00  0.00    -0.274 N 
HETATM   22  H   UNL     1      42.174  -9.375   8.111  1.00  0.00     0.189 HD
BRANCH  21  23
HETATM   23  C   UNL     1      40.369  -9.299   9.134  1.00  0.00     0.186 C 
HETATM   24  S   UNL     1      39.032  -8.676   8.345  1.00  0.00    -0.040 SA
BRANCH  23  25
HETATM   25  N   UNL     1      40.407  -9.248  10.497  1.00  0.00    -0.364 N 
HETATM   26  H   UNL     1      40.120  -8.347  10.874  1.00  0.00     0.162 HD
BRANCH  25  27
HETATM   27  C   UNL     1      40.226 -10.374  11.406  1.00  0.00     0.154 C 
BRANCH  27  28
HETATM   28  C   UNL     1      41.566 -10.871  11.952  1.00  0.00     0.139 C 
HETATM   29  O   UNL     1      42.378 -11.379  10.879  1.00  0.00    -0.384 OA
HETATM   30  C   UNL     1      43.730 -11.346  11.345  1.00  0.00     0.168 C 
HETATM   31  C   UNL     1      43.831 -10.177  12.303  1.00  0.00     0.029 C 
HETATM   32  C   UNL     1      42.398  -9.771  12.584  1.00  0.00     0.035 C 
ENDBRANCH  27  28
ENDBRANCH  25  27
ENDBRANCH  23  25
ENDBRANCH  21  23
ENDBRANCH  18  21
ENDBRANCH  13  17
ENDBRANCH  10  11
ENDBRANCH   9  10
ENDBRANCH   1   9
TORSDOF 9
ENDMDL
MODEL 5
REMARK VINA RESULT:      -7.4      5.119     10.101
REMARK  9 active torsions:
REMARK  status: ('A' for Active; 'I' for Inactive)
REMARK    1  A    between atoms: C_3  and  C_4 
REMARK       I    between atoms: C_4  and  N_5 
REMARK    2  A    between atoms: N_5  and  N_6 
REMARK    3  A    between atoms: N_6  and  C_7 
REMARK    4  A    between atoms: C_7  and  N_8 
REMARK    5  A    between atoms: N_8  and  C_9 
REMARK    6  A    between atoms: C_9  and  C_10 
REMARK    7  A    between atoms: C_18  and  C_19 
REMARK    8  A    between atoms: C_19  and  O_20 
REMARK    9  A    between atoms: O_20  and  C_21 
ROOT
HETATM    1  C   UNL     1      41.319 -17.073   1.252  1.00  0.00     0.069 A 
HETATM    2  C   UNL     1      41.679 -16.216   0.213  1.00  0.00     0.038 A 
HETATM    3  C   UNL     1      41.032 -14.983   0.064  1.00  0.00     0.025 A 
HETATM    4  C   UNL     1      40.018 -14.603   0.951  1.00  0.00     0.044 A 
HETATM    5  C   UNL     1      39.357 -13.341   0.793  1.00  0.00     0.099 C 
HETATM    6  N   UNL     1      38.823 -12.319   0.661  1.00  0.00    -0.191 NA
HETATM    7  C   UNL     1      39.656 -15.462   1.991  1.00  0.00     0.025 A 
HETATM    8  C   UNL     1      40.306 -16.689   2.138  1.00  0.00     0.038 A 
ENDROOT
BRANCH   1   9
HETATM    9  O   UNL     1      41.869 -18.294   1.518  1.00  0.00    -0.347 OA
BRANCH   9  10
HETATM   10  C   UNL     1      43.269 -18.449   1.296  1.00  0.00     0.214 C 
BRANCH  10  11
HETATM   11  C   UNL     1      43.875 -18.946   2.586  1.00  0.00    -0.033 A 
HETATM   12  C   UNL     1      43.903 -18.113   3.718  1.00  0.00     0.026 A 
HETATM   13  C   UNL     1      44.413 -18.579   4.937  1.00  0.00     0.034 A 
HETATM   14  C   UNL     1      44.919 -19.884   5.010  1.00  0.00     0.017 A 
HETATM   15  C   UNL     1      44.893 -20.718   3.892  1.00  0.00     0.002 A 
HETATM   16  C   UNL     1      44.365 -20.255   2.688  1.00  0.00     0.009 A 
BRANCH  13  17
HETATM   17  C   UNL     1      44.438 -17.751   6.179  1.00  0.00     0.270 C 
HETATM   18  N   UNL     1      44.230 -16.393   6.035  1.00  0.00    -0.264 N 
HETATM   19  H   UNL     1      43.977 -15.931   5.168  1.00  0.00     0.190 HD
HETATM   20  O   UNL     1      44.611 -18.270   7.280  1.00  0.00    -0.266 OA
BRANCH  18  21
HETATM   21  N   UNL     1      44.143 -15.614   7.197  1.00  0.00    -0.274 N 
HETATM   22  H   UNL     1      44.500 -16.077   8.031  1.00  0.00     0.189 HD
BRANCH  21  23
HETATM   23  C   UNL     1      44.137 -14.244   7.127  1.00  0.00     0.186 C 
HETATM   24  S   UNL     1      45.355 -13.246   7.693  1.00  0.00    -0.040 SA
BRANCH  23  25
HETATM   25  N   UNL     1      43.076 -13.678   6.483  1.00  0.00    -0.364 N 
HETATM   26  H   UNL     1      42.538 -13.047   7.073  1.00  0.00     0.162 HD
BRANCH  25  27
HETATM   27  C   UNL     1      42.981 -13.408   5.053  1.00  0.00     0.154 C 
BRANCH  27  28
HETATM   28  C   UNL     1      41.540 -13.534   4.555  1.00  0.00     0.139 C 
HETATM   29  O   UNL     1      40.684 -13.965   5.627  1.00  0.00    -0.384 OA
HETATM   30  C   UNL     1      39.355 -13.583   5.260  1.00  0.00     0.168 C 
HETATM   31  C   UNL     1      39.478 -12.323   4.428  1.00  0.00     0.029 C 
HETATM   32  C   UNL     1      40.951 -12.215   4.090  1.00  0.00     0.035 C 
ENDBRANCH  27  28
ENDBRANCH  25  27
ENDBRANCH  23  25
ENDBRANCH  21  23
ENDBRANCH  18  21
ENDBRANCH  13  17
ENDBRANCH  10  11
ENDBRANCH   9  10
ENDBRANCH   1   9
TORSDOF 9
ENDMDL
MODEL 6
REMARK VINA RESULT:      -7.4      5.650      9.261
REMARK  9 active torsions:
REMARK  status: ('A' for Active; 'I' for Inactive)
REMARK    1  A    between atoms: C_3  and  C_4 
REMARK       I    between atoms: C_4  and  N_5 
REMARK    2  A    between atoms: N_5  and  N_6 
REMARK    3  A    between atoms: N_6  and  C_7 
REMARK    4  A    between atoms: C_7  and  N_8 
REMARK    5  A    between atoms: N_8  and  C_9 
REMARK    6  A    between atoms: C_9  and  C_10 
REMARK    7  A    between atoms: C_18  and  C_19 
REMARK    8  A    between atoms: C_19  and  O_20 
REMARK    9  A    between atoms: O_20  and  C_21 
ROOT
HETATM    1  C   UNL     1      42.430 -16.129   6.048  1.00  0.00     0.069 A 
HETATM    2  C   UNL     1      43.436 -16.565   6.910  1.00  0.00     0.038 A 
HETATM    3  C   UNL     1      44.381 -15.656   7.402  1.00  0.00     0.025 A 
HETATM    4  C   UNL     1      44.326 -14.308   7.032  1.00  0.00     0.044 A 
HETATM    5  C   UNL     1      45.297 -13.381   7.536  1.00  0.00     0.099 C 
HETATM    6  N   UNL     1      46.086 -12.634   7.946  1.00  0.00    -0.191 NA
HETATM    7  C   UNL     1      43.320 -13.871   6.167  1.00  0.00     0.025 A 
HETATM    8  C   UNL     1      42.377 -14.780   5.681  1.00  0.00     0.038 A 
ENDROOT
BRANCH   1   9
HETATM    9  O   UNL     1      41.445 -16.902   5.502  1.00  0.00    -0.347 OA
BRANCH   9  10
HETATM   10  C   UNL     1      41.827 -18.152   4.934  1.00  0.00     0.214 C 
BRANCH  10  11
HETATM   11  C   UNL     1      42.278 -17.881   3.518  1.00  0.00    -0.033 A 
HETATM   12  C   UNL     1      41.452 -17.153   2.644  1.00  0.00     0.026 A 
HETATM   13  C   UNL     1      41.880 -16.847   1.345  1.00  0.00     0.034 A 
HETATM   14  C   UNL     1      43.135 -17.299   0.916  1.00  0.00     0.017 A 
HETATM   15  C   UNL     1      43.961 -18.021   1.778  1.00  0.00     0.002 A 
HETATM   16  C   UNL     1      43.539 -18.303   3.077  1.00  0.00     0.009 A 
BRANCH  13  17
HETATM   17  C   UNL     1      41.060 -16.049   0.385  1.00  0.00     0.270 C 
HETATM   18  N   UNL     1      39.893 -15.489   0.866  1.00  0.00    -0.264 N 
HETATM   19  H   UNL     1      39.597 -15.505   1.836  1.00  0.00     0.190 HD
HETATM   20  O   UNL     1      41.432 -15.883  -0.775  1.00  0.00    -0.266 OA
BRANCH  18  21
HETATM   21  N   UNL     1      39.166 -14.650   0.012  1.00  0.00    -0.274 N 
HETATM   22  H   UNL     1      38.277 -15.042  -0.292  1.00  0.00     0.189 HD
BRANCH  21  23
HETATM   23  C   UNL     1      39.333 -13.288   0.053  1.00  0.00     0.186 C 
HETATM   24  S   UNL     1      39.924 -12.430   1.362  1.00  0.00    -0.040 SA
BRANCH  23  25
HETATM   25  N   UNL     1      39.050 -12.612  -1.098  1.00  0.00    -0.364 N 
HETATM   26  H   UNL     1      39.874 -12.218  -1.546  1.00  0.00     0.162 HD
BRANCH  25  27
HETATM   27  C   UNL     1      37.932 -12.875  -1.998  1.00  0.00     0.154 C 
BRANCH  27  28
HETATM   28  C   UNL     1      38.372 -13.703  -3.207  1.00  0.00     0.139 C 
HETATM   29  O   UNL     1      39.697 -14.220  -2.995  1.00  0.00    -0.384 OA
HETATM   30  C   UNL     1      39.836 -15.343  -3.870  1.00  0.00     0.168 C 
HETATM   31  C   UNL     1      38.458 -15.955  -4.017  1.00  0.00     0.029 C 
HETATM   32  C   UNL     1      37.506 -14.928  -3.438  1.00  0.00     0.035 C 
ENDBRANCH  27  28
ENDBRANCH  25  27
ENDBRANCH  23  25
ENDBRANCH  21  23
ENDBRANCH  18  21
ENDBRANCH  13  17
ENDBRANCH  10  11
ENDBRANCH   9  10
ENDBRANCH   1   9
TORSDOF 9
ENDMDL
MODEL 7
REMARK VINA RESULT:      -7.4      3.397      5.838
REMARK  9 active torsions:
REMARK  status: ('A' for Active; 'I' for Inactive)
REMARK    1  A    between atoms: C_3  and  C_4 
REMARK       I    between atoms: C_4  and  N_5 
REMARK    2  A    between atoms: N_5  and  N_6 
REMARK    3  A    between atoms: N_6  and  C_7 
REMARK    4  A    between atoms: C_7  and  N_8 
REMARK    5  A    between atoms: N_8  and  C_9 
REMARK    6  A    between atoms: C_9  and  C_10 
REMARK    7  A    between atoms: C_18  and  C_19 
REMARK    8  A    between atoms: C_19  and  O_20 
REMARK    9  A    between atoms: O_20  and  C_21 
ROOT
HETATM    1  C   UNL     1      42.650  -9.811  12.639  1.00  0.00     0.069 A 
HETATM    2  C   UNL     1      41.815  -9.034  11.837  1.00  0.00     0.038 A 
HETATM    3  C   UNL     1      40.714  -8.376  12.401  1.00  0.00     0.025 A 
HETATM    4  C   UNL     1      40.442  -8.495  13.768  1.00  0.00     0.044 A 
HETATM    5  C   UNL     1      39.313  -7.822  14.340  1.00  0.00     0.099 C 
HETATM    6  N   UNL     1      38.397  -7.276  14.800  1.00  0.00    -0.191 NA
HETATM    7  C   UNL     1      41.277  -9.275  14.571  1.00  0.00     0.025 A 
HETATM    8  C   UNL     1      42.375  -9.927  14.006  1.00  0.00     0.038 A 
ENDROOT
BRANCH   1   9
HETATM    9  O   UNL     1      43.755 -10.497  12.224  1.00  0.00    -0.347 OA
BRANCH   9  10
HETATM   10  C   UNL     1      43.550 -11.757  11.591  1.00  0.00     0.214 C 
BRANCH  10  11
HETATM   11  C   UNL     1      44.517 -11.841  10.435  1.00  0.00    -0.033 A 
HETATM   12  C   UNL     1      44.325 -12.799   9.424  1.00  0.00     0.026 A 
HETATM   13  C   UNL     1      45.183 -12.853   8.317  1.00  0.00     0.034 A 
HETATM   14  C   UNL     1      46.255 -11.954   8.241  1.00  0.00     0.017 A 
HETATM   15  C   UNL     1      46.452 -10.999   9.239  1.00  0.00     0.002 A 
HETATM   16  C   UNL     1      45.581 -10.936  10.326  1.00  0.00     0.009 A 
BRANCH  13  17
HETATM   17  C   UNL     1      45.008 -13.826   7.199  1.00  0.00     0.270 C 
HETATM   18  N   UNL     1      44.192 -14.916   7.432  1.00  0.00    -0.264 N 
HETATM   19  H   UNL     1      43.637 -15.058   8.269  1.00  0.00     0.190 HD
HETATM   20  O   UNL     1      45.552 -13.642   6.111  1.00  0.00    -0.266 OA
BRANCH  18  21
HETATM   21  N   UNL     1      43.930 -15.782   6.363  1.00  0.00    -0.274 N 
HETATM   22  H   UNL     1      44.161 -15.394   5.451  1.00  0.00     0.189 HD
BRANCH  21  23
HETATM   23  C   UNL     1      43.928 -17.143   6.544  1.00  0.00     0.186 C 
HETATM   24  S   UNL     1      43.519 -17.924   7.966  1.00  0.00    -0.040 SA
BRANCH  23  25
HETATM   25  N   UNL     1      44.224 -17.897   5.446  1.00  0.00    -0.364 N 
HETATM   26  H   UNL     1      45.193 -18.204   5.418  1.00  0.00     0.162 HD
BRANCH  25  27
HETATM   27  C   UNL     1      43.294 -18.744   4.708  1.00  0.00     0.154 C 
BRANCH  27  28
HETATM   28  C   UNL     1      42.990 -18.167   3.325  1.00  0.00     0.139 C 
HETATM   29  O   UNL     1      43.112 -16.734   3.350  1.00  0.00    -0.384 OA
HETATM   30  C   UNL     1      43.317 -16.322   1.996  1.00  0.00     0.168 C 
HETATM   31  C   UNL     1      44.061 -17.449   1.307  1.00  0.00     0.029 C 
HETATM   32  C   UNL     1      43.969 -18.623   2.259  1.00  0.00     0.035 C 
ENDBRANCH  27  28
ENDBRANCH  25  27
ENDBRANCH  23  25
ENDBRANCH  21  23
ENDBRANCH  18  21
ENDBRANCH  13  17
ENDBRANCH  10  11
ENDBRANCH   9  10
ENDBRANCH   1   9
TORSDOF 9
ENDMDL
MODEL 8
REMARK VINA RESULT:      -7.4      3.482      5.868
REMARK  9 active torsions:
REMARK  status: ('A' for Active; 'I' for Inactive)
REMARK    1  A    between atoms: C_3  and  C_4 
REMARK       I    between atoms: C_4  and  N_5 
REMARK    2  A    between atoms: N_5  and  N_6 
REMARK    3  A    between atoms: N_6  and  C_7 
REMARK    4  A    between atoms: C_7  and  N_8 
REMARK    5  A    between atoms: N_8  and  C_9 
REMARK    6  A    between atoms: C_9  and  C_10 
REMARK    7  A    between atoms: C_18  and  C_19 
REMARK    8  A    between atoms: C_19  and  O_20 
REMARK    9  A    between atoms: O_20  and  C_21 
ROOT
HETATM    1  C   UNL     1      43.674 -11.398   9.263  1.00  0.00     0.069 A 
HETATM    2  C   UNL     1      42.774 -10.360   9.503  1.00  0.00     0.038 A 
HETATM    3  C   UNL     1      42.668  -9.806  10.785  1.00  0.00     0.025 A 
HETATM    4  C   UNL     1      43.457 -10.290  11.834  1.00  0.00     0.044 A 
HETATM    5  C   UNL     1      43.344  -9.721  13.145  1.00  0.00     0.099 C 
HETATM    6  N   UNL     1      43.248  -9.259  14.206  1.00  0.00    -0.191 NA
HETATM    7  C   UNL     1      44.357 -11.331  11.594  1.00  0.00     0.025 A 
HETATM    8  C   UNL     1      44.463 -11.878  10.313  1.00  0.00     0.038 A 
ENDROOT
BRANCH   1   9
HETATM    9  O   UNL     1      43.884 -12.022   8.067  1.00  0.00    -0.347 OA
BRANCH   9  10
HETATM   10  C   UNL     1      44.786 -13.125   8.048  1.00  0.00     0.214 C 
BRANCH  10  11
HETATM   11  C   UNL     1      44.247 -14.128   7.056  1.00  0.00    -0.033 A 
HETATM   12  C   UNL     1      43.657 -13.686   5.859  1.00  0.00     0.026 A 
HETATM   13  C   UNL     1      43.202 -14.606   4.904  1.00  0.00     0.034 A 
HETATM   14  C   UNL     1      43.320 -15.977   5.167  1.00  0.00     0.017 A 
HETATM   15  C   UNL     1      43.906 -16.423   6.352  1.00  0.00     0.002 A 
HETATM   16  C   UNL     1      44.377 -15.504   7.288  1.00  0.00     0.009 A 
BRANCH  13  17
HETATM   17  C   UNL     1      42.598 -14.195   3.602  1.00  0.00     0.270 C 
HETATM   18  N   UNL     1      41.227 -14.309   3.479  1.00  0.00    -0.264 N 
HETATM   19  H   UNL     1      40.595 -14.567   4.229  1.00  0.00     0.190 HD
HETATM   20  O   UNL     1      43.298 -13.749   2.694  1.00  0.00    -0.266 OA
BRANCH  18  21
HETATM   21  N   UNL     1      40.630 -13.829   2.305  1.00  0.00    -0.274 N 
HETATM   22  H   UNL     1      41.120 -13.043   1.885  1.00  0.00     0.189 HD
BRANCH  21  23
HETATM   23  C   UNL     1      39.860 -14.651   1.521  1.00  0.00     0.186 C 
HETATM   24  S   UNL     1      38.252 -14.388   1.140  1.00  0.00    -0.040 SA
BRANCH  23  25
HETATM   25  N   UNL     1      40.495 -15.725   0.969  1.00  0.00    -0.364 N 
HETATM   26  H   UNL     1      41.330 -15.472   0.444  1.00  0.00     0.162 HD
BRANCH  25  27
HETATM   27  C   UNL     1      40.489 -17.088   1.486  1.00  0.00     0.154 C 
BRANCH  27  28
HETATM   28  C   UNL     1      41.854 -17.756   1.315  1.00  0.00     0.139 C 
HETATM   29  O   UNL     1      42.838 -16.778   0.939  1.00  0.00    -0.384 OA
HETATM   30  C   UNL     1      44.111 -17.332   1.284  1.00  0.00     0.168 C 
HETATM   31  C   UNL     1      43.887 -18.215   2.495  1.00  0.00     0.029 C 
HETATM   32  C   UNL     1      42.384 -18.369   2.599  1.00  0.00     0.035 C 
ENDBRANCH  27  28
ENDBRANCH  25  27
ENDBRANCH  23  25
ENDBRANCH  21  23
ENDBRANCH  18  21
ENDBRANCH  13  17
ENDBRANCH  10  11
ENDBRANCH   9  10
ENDBRANCH   1   9
TORSDOF 9
ENDMDL
MODEL 9
REMARK VINA RESULT:      -7.4      2.826      5.258
REMARK  9 active torsions:
REMARK  status: ('A' for Active; 'I' for Inactive)
REMARK    1  A    between atoms: C_3  and  C_4 
REMARK       I    between atoms: C_4  and  N_5 
REMARK    2  A    between atoms: N_5  and  N_6 
REMARK    3  A    between atoms: N_6  and  C_7 
REMARK    4  A    between atoms: C_7  and  N_8 
REMARK    5  A    between atoms: N_8  and  C_9 
REMARK    6  A    between atoms: C_9  and  C_10 
REMARK    7  A    between atoms: C_18  and  C_19 
REMARK    8  A    between atoms: C_19  and  O_20 
REMARK    9  A    between atoms: O_20  and  C_21 
ROOT
HETATM    1  C   UNL     1      41.843 -10.421  11.271  1.00  0.00     0.069 A 
HETATM    2  C   UNL     1      40.699 -11.180  11.029  1.00  0.00     0.038 A 
HETATM    3  C   UNL     1      39.795 -10.790  10.033  1.00  0.00     0.025 A 
HETATM    4  C   UNL     1      40.029  -9.637   9.276  1.00  0.00     0.044 A 
HETATM    5  C   UNL     1      39.101  -9.241   8.259  1.00  0.00     0.099 C 
HETATM    6  N   UNL     1      38.345  -8.922   7.437  1.00  0.00    -0.191 NA
HETATM    7  C   UNL     1      41.174  -8.875   9.519  1.00  0.00     0.025 A 
HETATM    8  C   UNL     1      42.075  -9.269  10.511  1.00  0.00     0.038 A 
ENDROOT
BRANCH   1   9
HETATM    9  O   UNL     1      42.806 -10.688  12.201  1.00  0.00    -0.347 OA
BRANCH   9  10
HETATM   10  C   UNL     1      43.471 -11.946  12.119  1.00  0.00     0.214 C 
BRANCH  10  11
HETATM   11  C   UNL     1      44.385 -11.892  10.918  1.00  0.00    -0.033 A 
HETATM   12  C   UNL     1      44.208 -12.798   9.857  1.00  0.00     0.026 A 
HETATM   13  C   UNL     1      45.013 -12.725   8.712  1.00  0.00     0.034 A 
HETATM   14  C   UNL     1      46.019 -11.751   8.647  1.00  0.00     0.017 A 
HETATM   15  C   UNL     1      46.200 -10.848   9.695  1.00  0.00     0.002 A 
HETATM   16  C   UNL     1      45.381 -10.911  10.821  1.00  0.00     0.009 A 
BRANCH  13  17
HETATM   17  C   UNL     1      44.849 -13.638   7.543  1.00  0.00     0.270 C 
HETATM   18  N   UNL     1      43.819 -14.556   7.599  1.00  0.00    -0.264 N 
HETATM   19  H   UNL     1      43.117 -14.599   8.330  1.00  0.00     0.190 HD
HETATM   20  O   UNL     1      45.589 -13.549   6.565  1.00  0.00    -0.266 OA
BRANCH  18  21
HETATM   21  N   UNL     1      43.582 -15.349   6.468  1.00  0.00    -0.274 N 
HETATM   22  H   UNL     1      44.214 -15.161   5.693  1.00  0.00     0.189 HD
BRANCH  21  23
HETATM   23  C   UNL     1      42.993 -16.583   6.585  1.00  0.00     0.186 C 
HETATM   24  S   UNL     1      41.382 -16.914   6.276  1.00  0.00    -0.040 SA
BRANCH  23  25
HETATM   25  N   UNL     1      43.821 -17.615   6.917  1.00  0.00    -0.364 N 
HETATM   26  H   UNL     1      43.422 -18.243   7.612  1.00  0.00     0.162 HD
BRANCH  25  27
HETATM   27  C   UNL     1      44.829 -18.222   6.056  1.00  0.00     0.154 C 
BRANCH  27  28
HETATM   28  C   UNL     1      44.187 -19.023   4.923  1.00  0.00     0.139 C 
HETATM   29  O   UNL     1      44.117 -18.223   3.730  1.00  0.00    -0.384 OA
HETATM   30  C   UNL     1      43.997 -19.137   2.637  1.00  0.00     0.168 C 
HETATM   31  C   UNL     1      44.739 -20.396   3.039  1.00  0.00     0.029 C 
HETATM   32  C   UNL     1      44.994 -20.246   4.525  1.00  0.00     0.035 C 
ENDBRANCH  27  28
ENDBRANCH  25  27
ENDBRANCH  23  25
ENDBRANCH  21  23
ENDBRANCH  18  21
ENDBRANCH  13  17
ENDBRANCH  10  11
ENDBRANCH   9  10
ENDBRANCH   1   9
TORSDOF 9
ENDMDL
MODEL 10
REMARK VINA RESULT:      -7.3      6.843      9.781
REMARK  9 active torsions:
REMARK  status: ('A' for Active; 'I' for Inactive)
REMARK    1  A    between atoms: C_3  and  C_4 
REMARK       I    between atoms: C_4  and  N_5 
REMARK    2  A    between atoms: N_5  and  N_6 
REMARK    3  A    between atoms: N_6  and  C_7 
REMARK    4  A    between atoms: C_7  and  N_8 
REMARK    5  A    between atoms: N_8  and  C_9 
REMARK    6  A    between atoms: C_9  and  C_10 
REMARK    7  A    between atoms: C_18  and  C_19 
REMARK    8  A    between atoms: C_19  and  O_20 
REMARK    9  A    between atoms: O_20  and  C_21 
ROOT
HETATM    1  C   UNL     1      43.534 -17.468   3.434  1.00  0.00     0.069 A 
HETATM    2  C   UNL     1      44.000 -18.355   4.403  1.00  0.00     0.038 A 
HETATM    3  C   UNL     1      44.281 -19.684   4.062  1.00  0.00     0.025 A 
HETATM    4  C   UNL     1      44.093 -20.133   2.750  1.00  0.00     0.044 A 
HETATM    5  C   UNL     1      44.381 -21.494   2.405  1.00  0.00     0.099 C 
HETATM    6  N   UNL     1      44.613 -22.598   2.131  1.00  0.00    -0.191 NA
HETATM    7  C   UNL     1      43.624 -19.245   1.779  1.00  0.00     0.025 A 
HETATM    8  C   UNL     1      43.348 -17.920   2.123  1.00  0.00     0.038 A 
ENDROOT
BRANCH   1   9
HETATM    9  O   UNL     1      43.229 -16.151   3.626  1.00  0.00    -0.347 OA
BRANCH   9  10
HETATM   10  C   UNL     1      42.400 -15.822   4.738  1.00  0.00     0.214 C 
BRANCH  10  11
HETATM   11  C   UNL     1      41.396 -14.799   4.262  1.00  0.00    -0.033 A 
HETATM   12  C   UNL     1      41.090 -14.697   2.894  1.00  0.00     0.026 A 
HETATM   13  C   UNL     1      40.121 -13.790   2.444  1.00  0.00     0.034 A 
HETATM   14  C   UNL     1      39.475 -12.965   3.374  1.00  0.00     0.017 A 
HETATM   15  C   UNL     1      39.772 -13.061   4.734  1.00  0.00     0.002 A 
HETATM   16  C   UNL     1      40.721 -13.981   5.178  1.00  0.00     0.009 A 
BRANCH  13  17
HETATM   17  C   UNL     1      39.732 -13.661   1.008  1.00  0.00     0.270 C 
HETATM   18  N   UNL     1      39.934 -14.762   0.199  1.00  0.00    -0.264 N 
HETATM   19  H   UNL     1      40.244 -15.672   0.521  1.00  0.00     0.190 HD
HETATM   20  O   UNL     1      39.228 -12.623   0.582  1.00  0.00    -0.266 OA
BRANCH  18  21
HETATM   21  N   UNL     1      39.478 -14.698  -1.124  1.00  0.00    -0.274 N 
HETATM   22  H   UNL     1      38.688 -14.070  -1.258  1.00  0.00     0.189 HD
BRANCH  21  23
HETATM   23  C   UNL     1      40.321 -14.966  -2.173  1.00  0.00     0.186 C 
HETATM   24  S   UNL     1      39.925 -15.883  -3.516  1.00  0.00    -0.040 SA
BRANCH  23  25
HETATM   25  N   UNL     1      41.550 -14.375  -2.124  1.00  0.00    -0.364 N 
HETATM   26  H   UNL     1      42.272 -14.980  -1.738  1.00  0.00     0.162 HD
BRANCH  25  27
HETATM   27  C   UNL     1      42.041 -13.335  -3.021  1.00  0.00     0.154 C 
BRANCH  27  28
HETATM   28  C   UNL     1      42.911 -12.321  -2.276  1.00  0.00     0.139 C 
HETATM   29  O   UNL     1      42.846 -11.041  -2.930  1.00  0.00    -0.384 OA
HETATM   30  C   UNL     1      43.233 -10.070  -1.954  1.00  0.00     0.168 C 
HETATM   31  C   UNL     1      42.796 -10.608  -0.606  1.00  0.00     0.029 C 
HETATM   32  C   UNL     1      42.441 -12.059  -0.857  1.00  0.00     0.035 C 
ENDBRANCH  27  28
ENDBRANCH  25  27
ENDBRANCH  23  25
ENDBRANCH  21  23
ENDBRANCH  18  21
ENDBRANCH  13  17
ENDBRANCH  10  11
ENDBRANCH   9  10
ENDBRANCH   1   9
TORSDOF 9
ENDMDL
