MODEL 1
REMARK VINA RESULT:      -8.5      0.000      0.000
REMARK  4 active torsions:
REMARK  status: ('A' for Active; 'I' for Inactive)
REMARK    1  A    between atoms: C_4  and  C_5 
REMARK    2  A    between atoms: C_8  and  C_9 
REMARK    3  A    between atoms: C_9  and  N_10 
REMARK       I    between atoms: N_10  and  C_11 
REMARK       I    between atoms: C_11  and  N_12 
REMARK    4  A    between atoms: N_12  and  C_13 
ROOT
HETATM    1  C   UNL     1      39.766 -15.314   2.213  1.00  0.00     0.213 C 
ENDROOT
BRANCH   1   2
HETATM    2  C   UNL     1      41.040 -15.994   2.541  1.00  0.00     0.190 A 
HETATM    3  O   UNL     1      42.177 -15.251   2.432  1.00  0.00    -0.194 OA
HETATM    4  N   UNL     1      43.239 -16.110   2.708  1.00  0.00    -0.106 NA
HETATM    5  C   UNL     1      42.644 -17.291   2.952  1.00  0.00     0.189 A 
HETATM    6  N   UNL     1      41.266 -17.243   2.884  1.00  0.00    -0.202 NA
BRANCH   5   7
HETATM    7  C   UNL     1      43.371 -18.528   3.226  1.00  0.00     0.015 A 
HETATM    8  C   UNL     1      43.363 -19.577   2.292  1.00  0.00     0.022 A 
HETATM    9  C   UNL     1      44.073 -20.764   2.530  1.00  0.00    -0.061 A 
HETATM   10  C   UNL     1      44.081 -21.872   1.519  1.00  0.00     0.048 C 
HETATM   11  C   UNL     1      44.811 -20.891   3.711  1.00  0.00     0.007 A 
HETATM   12  C   UNL     1      44.827 -19.859   4.648  1.00  0.00     0.002 A 
HETATM   13  C   UNL     1      44.109 -18.685   4.408  1.00  0.00     0.015 A 
ENDBRANCH   5   7
ENDBRANCH   1   2
BRANCH   1  14
HETATM   14  N   UNL     1      39.666 -15.059   0.789  1.00  0.00    -0.335 N 
HETATM   15  C   UNL     1      39.784 -13.775   0.358  1.00  0.00     0.321 C 
HETATM   16  N   UNL     1      39.782 -13.546  -0.981  1.00  0.00    -0.309 N 
HETATM   17  O   UNL     1      39.943 -12.831   1.130  1.00  0.00    -0.247 OA
HETATM   18  H   UNL     1      40.069 -12.596  -1.182  1.00  0.00     0.170 HD
HETATM   19  H   UNL     1      40.106 -15.735   0.178  1.00  0.00     0.164 HD
BRANCH  16  20
HETATM   20  C   UNL     1      39.384 -14.318  -2.087  1.00  0.00     0.036 A 
HETATM   21  C   UNL     1      40.214 -15.204  -2.776  1.00  0.00     0.029 A 
HETATM   22  C   UNL     1      39.716 -15.951  -3.850  1.00  0.00     0.002 A 
HETATM   23  C   UNL     1      38.383 -15.827  -4.235  1.00  0.00     0.000 A 
HETATM   24  C   UNL     1      37.541 -14.964  -3.541  1.00  0.00     0.002 A 
HETATM   25  C   UNL     1      38.038 -14.219  -2.469  1.00  0.00     0.029 A 
ENDBRANCH  16  20
ENDBRANCH   1  14
TORSDOF 4
ENDMDL
MODEL 2
REMARK VINA RESULT:      -8.1      1.172      2.033
REMARK  4 active torsions:
REMARK  status: ('A' for Active; 'I' for Inactive)
REMARK    1  A    between atoms: C_4  and  C_5 
REMARK    2  A    between atoms: C_8  and  C_9 
REMARK    3  A    between atoms: C_9  and  N_10 
REMARK       I    between atoms: N_10  and  C_11 
REMARK       I    between atoms: C_11  and  N_12 
REMARK    4  A    between atoms: N_12  and  C_13 
ROOT
HETATM    1  C   UNL     1      40.744 -15.174   2.757  1.00  0.00     0.213 C 
ENDROOT
BRANCH   1   2
HETATM    2  C   UNL     1      41.699 -16.243   3.128  1.00  0.00     0.190 A 
HETATM    3  O   UNL     1      42.713 -15.896   3.968  1.00  0.00    -0.194 OA
HETATM    4  N   UNL     1      43.516 -17.025   4.108  1.00  0.00    -0.106 NA
HETATM    5  C   UNL     1      42.914 -17.948   3.335  1.00  0.00     0.189 A 
HETATM    6  N   UNL     1      41.757 -17.496   2.733  1.00  0.00    -0.202 NA
BRANCH   5   7
HETATM    7  C   UNL     1      43.440 -19.291   3.112  1.00  0.00     0.015 A 
HETATM    8  C   UNL     1      44.085 -19.983   4.150  1.00  0.00     0.022 A 
HETATM    9  C   UNL     1      44.577 -21.283   3.959  1.00  0.00    -0.061 A 
HETATM   10  C   UNL     1      45.246 -22.025   5.078  1.00  0.00     0.048 C 
HETATM   11  C   UNL     1      44.404 -21.900   2.716  1.00  0.00     0.007 A 
HETATM   12  C   UNL     1      43.766 -21.227   1.676  1.00  0.00     0.002 A 
HETATM   13  C   UNL     1      43.288 -19.929   1.872  1.00  0.00     0.015 A 
ENDBRANCH   5   7
ENDBRANCH   1   2
BRANCH   1  14
HETATM   14  N   UNL     1      40.644 -15.044   1.317  1.00  0.00    -0.335 N 
HETATM   15  C   UNL     1      41.481 -14.173   0.692  1.00  0.00     0.321 C 
HETATM   16  N   UNL     1      41.451 -14.118  -0.665  1.00  0.00    -0.309 N 
HETATM   17  O   UNL     1      42.290 -13.479   1.306  1.00  0.00    -0.247 OA
HETATM   18  H   UNL     1      42.240 -13.589  -1.018  1.00  0.00     0.170 HD
HETATM   19  H   UNL     1      40.485 -15.897   0.798  1.00  0.00     0.164 HD
BRANCH  16  20
HETATM   20  C   UNL     1      40.523 -14.559  -1.625  1.00  0.00     0.036 A 
HETATM   21  C   UNL     1      39.258 -14.002  -1.818  1.00  0.00     0.029 A 
HETATM   22  C   UNL     1      38.414 -14.493  -2.822  1.00  0.00     0.002 A 
HETATM   23  C   UNL     1      38.834 -15.535  -3.646  1.00  0.00     0.000 A 
HETATM   24  C   UNL     1      40.101 -16.081  -3.477  1.00  0.00     0.002 A 
HETATM   25  C   UNL     1      40.944 -15.590  -2.476  1.00  0.00     0.029 A 
ENDBRANCH  16  20
ENDBRANCH   1  14
TORSDOF 4
ENDMDL
MODEL 3
REMARK VINA RESULT:      -8.1      3.052      4.255
REMARK  4 active torsions:
REMARK  status: ('A' for Active; 'I' for Inactive)
REMARK    1  A    between atoms: C_4  and  C_5 
REMARK    2  A    between atoms: C_8  and  C_9 
REMARK    3  A    between atoms: C_9  and  N_10 
REMARK       I    between atoms: N_10  and  C_11 
REMARK       I    between atoms: C_11  and  N_12 
REMARK    4  A    between atoms: N_12  and  C_13 
ROOT
HETATM    1  C   UNL     1      43.007 -15.600   6.078  1.00  0.00     0.213 C 
ENDROOT
BRANCH   1   2
HETATM    2  C   UNL     1      43.683 -16.912   5.953  1.00  0.00     0.190 A 
HETATM    3  O   UNL     1      44.913 -17.026   6.525  1.00  0.00    -0.194 OA
HETATM    4  N   UNL     1      45.378 -18.301   6.214  1.00  0.00    -0.106 NA
HETATM    5  C   UNL     1      44.388 -18.837   5.478  1.00  0.00     0.189 A 
HETATM    6  N   UNL     1      43.299 -18.001   5.323  1.00  0.00    -0.202 NA
BRANCH   5   7
HETATM    7  C   UNL     1      44.454 -20.158   4.861  1.00  0.00     0.015 A 
HETATM    8  C   UNL     1      44.298 -20.301   3.473  1.00  0.00     0.022 A 
HETATM    9  C   UNL     1      44.379 -21.561   2.860  1.00  0.00    -0.061 A 
HETATM   10  C   UNL     1      44.234 -21.706   1.374  1.00  0.00     0.048 C 
HETATM   11  C   UNL     1      44.636 -22.687   3.650  1.00  0.00     0.007 A 
HETATM   12  C   UNL     1      44.792 -22.560   5.029  1.00  0.00     0.002 A 
HETATM   13  C   UNL     1      44.700 -21.304   5.632  1.00  0.00     0.015 A 
ENDBRANCH   5   7
ENDBRANCH   1   2
BRANCH   1  14
HETATM   14  N   UNL     1      42.163 -15.340   4.929  1.00  0.00    -0.335 N 
HETATM   15  C   UNL     1      40.815 -15.434   5.089  1.00  0.00     0.321 C 
HETATM   16  N   UNL     1      40.021 -15.102   4.038  1.00  0.00    -0.309 N 
HETATM   17  O   UNL     1      40.298 -15.757   6.156  1.00  0.00    -0.247 OA
HETATM   18  H   UNL     1      39.055 -15.023   4.331  1.00  0.00     0.170 HD
HETATM   19  H   UNL     1      42.447 -14.583   4.323  1.00  0.00     0.164 HD
BRANCH  16  20
HETATM   20  C   UNL     1      40.264 -14.946   2.661  1.00  0.00     0.036 A 
HETATM   21  C   UNL     1      40.143 -13.741   1.967  1.00  0.00     0.029 A 
HETATM   22  C   UNL     1      40.434 -13.680   0.599  1.00  0.00     0.002 A 
HETATM   23  C   UNL     1      40.860 -14.819  -0.081  1.00  0.00     0.000 A 
HETATM   24  C   UNL     1      41.006 -16.019   0.607  1.00  0.00     0.002 A 
HETATM   25  C   UNL     1      40.716 -16.080   1.972  1.00  0.00     0.029 A 
ENDBRANCH  16  20
ENDBRANCH   1  14
TORSDOF 4
ENDMDL
MODEL 4
REMARK VINA RESULT:      -8.0      3.077      8.041
REMARK  4 active torsions:
REMARK  status: ('A' for Active; 'I' for Inactive)
REMARK    1  A    between atoms: C_4  and  C_5 
REMARK    2  A    between atoms: C_8  and  C_9 
REMARK    3  A    between atoms: C_9  and  N_10 
REMARK       I    between atoms: N_10  and  C_11 
REMARK       I    between atoms: C_11  and  N_12 
REMARK    4  A    between atoms: N_12  and  C_13 
ROOT
HETATM    1  C   UNL     1      42.080 -17.454   6.641  1.00  0.00     0.213 C 
ENDROOT
BRANCH   1   2
HETATM    2  C   UNL     1      41.504 -16.490   5.676  1.00  0.00     0.190 A 
HETATM    3  O   UNL     1      40.730 -15.494   6.190  1.00  0.00    -0.194 OA
HETATM    4  N   UNL     1      40.241 -14.771   5.105  1.00  0.00    -0.106 NA
HETATM    5  C   UNL     1      40.760 -15.402   4.036  1.00  0.00     0.189 A 
HETATM    6  N   UNL     1      41.580 -16.464   4.363  1.00  0.00    -0.202 NA
BRANCH   5   7
HETATM    7  C   UNL     1      40.467 -15.037   2.653  1.00  0.00     0.015 A 
HETATM    8  C   UNL     1      39.158 -14.705   2.269  1.00  0.00     0.022 A 
HETATM    9  C   UNL     1      38.862 -14.332   0.949  1.00  0.00    -0.061 A 
HETATM   10  C   UNL     1      37.465 -13.956   0.550  1.00  0.00     0.048 C 
HETATM   11  C   UNL     1      39.896 -14.276   0.009  1.00  0.00     0.007 A 
HETATM   12  C   UNL     1      41.201 -14.603   0.375  1.00  0.00     0.002 A 
HETATM   13  C   UNL     1      41.485 -14.984   1.689  1.00  0.00     0.015 A 
ENDBRANCH   5   7
ENDBRANCH   1   2
BRANCH   1  14
HETATM   14  N   UNL     1      42.935 -18.412   5.969  1.00  0.00    -0.335 N 
HETATM   15  C   UNL     1      44.280 -18.217   6.020  1.00  0.00     0.321 C 
HETATM   16  N   UNL     1      45.085 -19.163   5.469  1.00  0.00    -0.309 N 
HETATM   17  O   UNL     1      44.787 -17.251   6.585  1.00  0.00    -0.247 OA
HETATM   18  H   UNL     1      46.050 -19.010   5.736  1.00  0.00     0.170 HD
HETATM   19  H   UNL     1      42.663 -19.384   6.037  1.00  0.00     0.164 HD
BRANCH  16  20
HETATM   20  C   UNL     1      44.854 -20.213   4.563  1.00  0.00     0.036 A 
HETATM   21  C   UNL     1      44.908 -21.569   4.889  1.00  0.00     0.029 A 
HETATM   22  C   UNL     1      44.634 -22.542   3.921  1.00  0.00     0.002 A 
HETATM   23  C   UNL     1      44.291 -22.167   2.624  1.00  0.00     0.000 A 
HETATM   24  C   UNL     1      44.211 -20.818   2.294  1.00  0.00     0.002 A 
HETATM   25  C   UNL     1      44.484 -19.847   3.261  1.00  0.00     0.029 A 
ENDBRANCH  16  20
ENDBRANCH   1  14
TORSDOF 4
ENDMDL
MODEL 5
REMARK VINA RESULT:      -7.9      1.277      1.962
REMARK  4 active torsions:
REMARK  status: ('A' for Active; 'I' for Inactive)
REMARK    1  A    between atoms: C_4  and  C_5 
REMARK    2  A    between atoms: C_8  and  C_9 
REMARK    3  A    between atoms: C_9  and  N_10 
REMARK       I    between atoms: N_10  and  C_11 
REMARK       I    between atoms: C_11  and  N_12 
REMARK    4  A    between atoms: N_12  and  C_13 
ROOT
HETATM    1  C   UNL     1      40.669 -15.369   1.744  1.00  0.00     0.213 C 
ENDROOT
BRANCH   1   2
HETATM    2  C   UNL     1      41.707 -16.403   1.960  1.00  0.00     0.190 A 
HETATM    3  O   UNL     1      42.411 -16.803   0.864  1.00  0.00    -0.194 OA
HETATM    4  N   UNL     1      43.260 -17.822   1.289  1.00  0.00    -0.106 NA
HETATM    5  C   UNL     1      42.985 -17.946   2.600  1.00  0.00     0.189 A 
HETATM    6  N   UNL     1      42.038 -17.050   3.055  1.00  0.00    -0.202 NA
BRANCH   5   7
HETATM    7  C   UNL     1      43.591 -18.951   3.469  1.00  0.00     0.015 A 
HETATM    8  C   UNL     1      43.441 -18.868   4.863  1.00  0.00     0.022 A 
HETATM    9  C   UNL     1      43.999 -19.837   5.711  1.00  0.00    -0.061 A 
HETATM   10  C   UNL     1      43.816 -19.755   7.198  1.00  0.00     0.048 C 
HETATM   11  C   UNL     1      44.701 -20.909   5.151  1.00  0.00     0.007 A 
HETATM   12  C   UNL     1      44.858 -21.005   3.769  1.00  0.00     0.002 A 
HETATM   13  C   UNL     1      44.309 -20.031   2.933  1.00  0.00     0.015 A 
ENDBRANCH   5   7
ENDBRANCH   1   2
BRANCH   1  14
HETATM   14  N   UNL     1      40.411 -15.179   0.331  1.00  0.00    -0.335 N 
HETATM   15  C   UNL     1      41.031 -14.148  -0.303  1.00  0.00     0.321 C 
HETATM   16  N   UNL     1      40.861 -14.026  -1.644  1.00  0.00    -0.309 N 
HETATM   17  O   UNL     1      41.773 -13.363   0.285  1.00  0.00    -0.247 OA
HETATM   18  H   UNL     1      41.515 -13.354  -2.028  1.00  0.00     0.170 HD
HETATM   19  H   UNL     1      40.341 -16.018  -0.231  1.00  0.00     0.164 HD
BRANCH  16  20
HETATM   20  C   UNL     1      39.927 -14.563  -2.548  1.00  0.00     0.036 A 
HETATM   21  C   UNL     1      40.131 -15.714  -3.309  1.00  0.00     0.029 A 
HETATM   22  C   UNL     1      39.127 -16.187  -4.162  1.00  0.00     0.002 A 
HETATM   23  C   UNL     1      37.908 -15.520  -4.251  1.00  0.00     0.000 A 
HETATM   24  C   UNL     1      37.685 -14.384  -3.480  1.00  0.00     0.002 A 
HETATM   25  C   UNL     1      38.687 -13.913  -2.628  1.00  0.00     0.029 A 
ENDBRANCH  16  20
ENDBRANCH   1  14
TORSDOF 4
ENDMDL
MODEL 6
REMARK VINA RESULT:      -7.8      7.886     11.009
REMARK  4 active torsions:
REMARK  status: ('A' for Active; 'I' for Inactive)
REMARK    1  A    between atoms: C_4  and  C_5 
REMARK    2  A    between atoms: C_8  and  C_9 
REMARK    3  A    between atoms: C_9  and  N_10 
REMARK       I    between atoms: N_10  and  C_11 
REMARK       I    between atoms: C_11  and  N_12 
REMARK    4  A    between atoms: N_12  and  C_13 
ROOT
HETATM    1  C   UNL     1      45.510 -12.958   7.419  1.00  0.00     0.213 C 
ENDROOT
BRANCH   1   2
HETATM    2  C   UNL     1      45.019 -12.507   8.742  1.00  0.00     0.190 A 
HETATM    3  O   UNL     1      45.766 -12.858   9.826  1.00  0.00    -0.194 OA
HETATM    4  N   UNL     1      45.078 -12.400  10.946  1.00  0.00    -0.106 NA
HETATM    5  C   UNL     1      43.977 -11.822  10.436  1.00  0.00     0.189 A 
HETATM    6  N   UNL     1      43.927 -11.846   9.056  1.00  0.00    -0.202 NA
BRANCH   5   7
HETATM    7  C   UNL     1      42.906 -11.250  11.247  1.00  0.00     0.015 A 
HETATM    8  C   UNL     1      43.125 -10.947  12.600  1.00  0.00     0.022 A 
HETATM    9  C   UNL     1      42.114 -10.377  13.389  1.00  0.00    -0.061 A 
HETATM   10  C   UNL     1      42.362 -10.035  14.829  1.00  0.00     0.048 C 
HETATM   11  C   UNL     1      40.874 -10.095  12.807  1.00  0.00     0.007 A 
HETATM   12  C   UNL     1      40.641 -10.390  11.465  1.00  0.00     0.002 A 
HETATM   13  C   UNL     1      41.650 -10.967  10.689  1.00  0.00     0.015 A 
ENDBRANCH   5   7
ENDBRANCH   1   2
BRANCH   1  14
HETATM   14  N   UNL     1      44.933 -14.239   7.062  1.00  0.00    -0.335 N 
HETATM   15  C   UNL     1      43.773 -14.245   6.353  1.00  0.00     0.321 C 
HETATM   16  N   UNL     1      43.281 -15.441   5.939  1.00  0.00    -0.309 N 
HETATM   17  O   UNL     1      43.188 -13.211   6.035  1.00  0.00    -0.247 OA
HETATM   18  H   UNL     1      42.536 -15.308   5.267  1.00  0.00     0.170 HD
HETATM   19  H   UNL     1      45.582 -14.963   6.783  1.00  0.00     0.164 HD
BRANCH  16  20
HETATM   20  C   UNL     1      43.538 -16.770   6.322  1.00  0.00     0.036 A 
HETATM   21  C   UNL     1      43.413 -17.259   7.623  1.00  0.00     0.029 A 
HETATM   22  C   UNL     1      43.665 -18.608   7.900  1.00  0.00     0.002 A 
HETATM   23  C   UNL     1      44.029 -19.480   6.876  1.00  0.00     0.000 A 
HETATM   24  C   UNL     1      44.133 -19.008   5.572  1.00  0.00     0.002 A 
HETATM   25  C   UNL     1      43.882 -17.662   5.296  1.00  0.00     0.029 A 
ENDBRANCH  16  20
ENDBRANCH   1  14
TORSDOF 4
ENDMDL
MODEL 7
REMARK VINA RESULT:      -7.8      2.453      8.154
REMARK  4 active torsions:
REMARK  status: ('A' for Active; 'I' for Inactive)
REMARK    1  A    between atoms: C_4  and  C_5 
REMARK    2  A    between atoms: C_8  and  C_9 
REMARK    3  A    between atoms: C_9  and  N_10 
REMARK       I    between atoms: N_10  and  C_11 
REMARK       I    between atoms: C_11  and  N_12 
REMARK    4  A    between atoms: N_12  and  C_13 
ROOT
HETATM    1  C   UNL     1      40.986 -16.244   2.651  1.00  0.00     0.213 C 
ENDROOT
BRANCH   1   2
HETATM    2  C   UNL     1      41.122 -15.714   1.274  1.00  0.00     0.190 A 
HETATM    3  O   UNL     1      41.089 -16.624   0.261  1.00  0.00    -0.194 OA
HETATM    4  N   UNL     1      41.313 -15.913  -0.916  1.00  0.00    -0.106 NA
HETATM    5  C   UNL     1      41.466 -14.643  -0.503  1.00  0.00     0.189 A 
HETATM    6  N   UNL     1      41.322 -14.482   0.861  1.00  0.00    -0.202 NA
BRANCH   5   7
HETATM    7  C   UNL     1      41.793 -13.530  -1.391  1.00  0.00     0.015 A 
HETATM    8  C   UNL     1      42.465 -12.401  -0.896  1.00  0.00     0.022 A 
HETATM    9  C   UNL     1      42.805 -11.332  -1.739  1.00  0.00    -0.061 A 
HETATM   10  C   UNL     1      43.544 -10.139  -1.210  1.00  0.00     0.048 C 
HETATM   11  C   UNL     1      42.480 -11.407  -3.097  1.00  0.00     0.007 A 
HETATM   12  C   UNL     1      41.813 -12.521  -3.603  1.00  0.00     0.002 A 
HETATM   13  C   UNL     1      41.469 -13.576  -2.755  1.00  0.00     0.015 A 
ENDBRANCH   5   7
ENDBRANCH   1   2
BRANCH   1  14
HETATM   14  N   UNL     1      41.933 -17.314   2.890  1.00  0.00    -0.335 N 
HETATM   15  C   UNL     1      43.129 -16.998   3.456  1.00  0.00     0.321 C 
HETATM   16  N   UNL     1      43.979 -18.012   3.764  1.00  0.00    -0.309 N 
HETATM   17  O   UNL     1      43.440 -15.844   3.741  1.00  0.00    -0.247 OA
HETATM   18  H   UNL     1      44.736 -17.678   4.349  1.00  0.00     0.170 HD
HETATM   19  H   UNL     1      41.549 -18.191   3.216  1.00  0.00     0.164 HD
BRANCH  16  20
HETATM   20  C   UNL     1      44.054 -19.359   3.366  1.00  0.00     0.036 A 
HETATM   21  C   UNL     1      43.670 -19.838   2.113  1.00  0.00     0.029 A 
HETATM   22  C   UNL     1      43.810 -21.195   1.800  1.00  0.00     0.002 A 
HETATM   23  C   UNL     1      44.347 -22.080   2.733  1.00  0.00     0.000 A 
HETATM   24  C   UNL     1      44.754 -21.609   3.976  1.00  0.00     0.002 A 
HETATM   25  C   UNL     1      44.615 -20.254   4.288  1.00  0.00     0.029 A 
ENDBRANCH  16  20
ENDBRANCH   1  14
TORSDOF 4
ENDMDL
MODEL 8
REMARK VINA RESULT:      -7.7      1.599      2.152
REMARK  4 active torsions:
REMARK  status: ('A' for Active; 'I' for Inactive)
REMARK    1  A    between atoms: C_4  and  C_5 
REMARK    2  A    between atoms: C_8  and  C_9 
REMARK    3  A    between atoms: C_9  and  N_10 
REMARK       I    between atoms: N_10  and  C_11 
REMARK       I    between atoms: C_11  and  N_12 
REMARK    4  A    between atoms: N_12  and  C_13 
ROOT
HETATM    1  C   UNL     1      39.748 -15.482   1.895  1.00  0.00     0.213 C 
ENDROOT
BRANCH   1   2
HETATM    2  C   UNL     1      41.025 -16.121   2.287  1.00  0.00     0.190 A 
HETATM    3  O   UNL     1      42.151 -15.364   2.171  1.00  0.00    -0.194 OA
HETATM    4  N   UNL     1      43.220 -16.188   2.515  1.00  0.00    -0.106 NA
HETATM    5  C   UNL     1      42.640 -17.368   2.801  1.00  0.00     0.189 A 
HETATM    6  N   UNL     1      41.263 -17.348   2.697  1.00  0.00    -0.202 NA
BRANCH   5   7
HETATM    7  C   UNL     1      43.380 -18.576   3.153  1.00  0.00     0.015 A 
HETATM    8  C   UNL     1      43.432 -19.661   2.262  1.00  0.00     0.022 A 
HETATM    9  C   UNL     1      44.156 -20.821   2.575  1.00  0.00    -0.061 A 
HETATM   10  C   UNL     1      44.228 -21.968   1.610  1.00  0.00     0.048 C 
HETATM   11  C   UNL     1      44.848 -20.886   3.789  1.00  0.00     0.007 A 
HETATM   12  C   UNL     1      44.805 -19.818   4.683  1.00  0.00     0.002 A 
HETATM   13  C   UNL     1      44.073 -18.670   4.369  1.00  0.00     0.015 A 
ENDBRANCH   5   7
ENDBRANCH   1   2
BRANCH   1  14
HETATM   14  N   UNL     1      39.939 -14.593   0.766  1.00  0.00    -0.335 N 
HETATM   15  C   UNL     1      38.848 -13.962   0.255  1.00  0.00     0.321 C 
HETATM   16  N   UNL     1      39.039 -13.060  -0.742  1.00  0.00    -0.309 N 
HETATM   17  O   UNL     1      37.715 -14.141   0.696  1.00  0.00    -0.247 OA
HETATM   18  H   UNL     1      38.196 -12.521  -0.903  1.00  0.00     0.170 HD
HETATM   19  H   UNL     1      40.771 -14.017   0.781  1.00  0.00     0.164 HD
BRANCH  16  20
HETATM   20  C   UNL     1      40.110 -12.807  -1.619  1.00  0.00     0.036 A 
HETATM   21  C   UNL     1      40.371 -13.535  -2.781  1.00  0.00     0.029 A 
HETATM   22  C   UNL     1      41.448 -13.188  -3.606  1.00  0.00     0.002 A 
HETATM   23  C   UNL     1      42.262 -12.105  -3.281  1.00  0.00     0.000 A 
HETATM   24  C   UNL     1      41.996 -11.359  -2.138  1.00  0.00     0.002 A 
HETATM   25  C   UNL     1      40.921 -11.705  -1.315  1.00  0.00     0.029 A 
ENDBRANCH  16  20
ENDBRANCH   1  14
TORSDOF 4
ENDMDL
MODEL 9
REMARK VINA RESULT:      -7.6      1.876      7.764
REMARK  4 active torsions:
REMARK  status: ('A' for Active; 'I' for Inactive)
REMARK    1  A    between atoms: C_4  and  C_5 
REMARK    2  A    between atoms: C_8  and  C_9 
REMARK    3  A    between atoms: C_9  and  N_10 
REMARK       I    between atoms: N_10  and  C_11 
REMARK       I    between atoms: C_11  and  N_12 
REMARK    4  A    between atoms: N_12  and  C_13 
ROOT
HETATM    1  C   UNL     1      41.151 -16.809   4.878  1.00  0.00     0.213 C 
ENDROOT
BRANCH   1   2
HETATM    2  C   UNL     1      40.972 -15.871   3.746  1.00  0.00     0.190 A 
HETATM    3  O   UNL     1      41.196 -14.552   4.001  1.00  0.00    -0.194 OA
HETATM    4  N   UNL     1      40.892 -13.865   2.829  1.00  0.00    -0.106 NA
HETATM    5  C   UNL     1      40.506 -14.832   1.977  1.00  0.00     0.189 A 
HETATM    6  N   UNL     1      40.574 -16.102   2.514  1.00  0.00    -0.202 NA
BRANCH   5   7
HETATM    7  C   UNL     1      40.022 -14.580   0.623  1.00  0.00     0.015 A 
HETATM    8  C   UNL     1      40.800 -14.944  -0.488  1.00  0.00     0.022 A 
HETATM    9  C   UNL     1      40.341 -14.729  -1.796  1.00  0.00    -0.061 A 
HETATM   10  C   UNL     1      41.167 -15.140  -2.979  1.00  0.00     0.048 C 
HETATM   11  C   UNL     1      39.079 -14.157  -1.990  1.00  0.00     0.007 A 
HETATM   12  C   UNL     1      38.295 -13.791  -0.897  1.00  0.00     0.002 A 
HETATM   13  C   UNL     1      38.765 -13.999   0.402  1.00  0.00     0.015 A 
ENDBRANCH   5   7
ENDBRANCH   1   2
BRANCH   1  14
HETATM   14  N   UNL     1      42.123 -17.835   4.552  1.00  0.00    -0.335 N 
HETATM   15  C   UNL     1      43.426 -17.608   4.869  1.00  0.00     0.321 C 
HETATM   16  N   UNL     1      44.321 -18.605   4.647  1.00  0.00    -0.309 N 
HETATM   17  O   UNL     1      43.806 -16.562   5.391  1.00  0.00    -0.247 OA
HETATM   18  H   UNL     1      45.205 -18.397   5.096  1.00  0.00     0.170 HD
HETATM   19  H   UNL     1      41.831 -18.793   4.693  1.00  0.00     0.164 HD
BRANCH  16  20
HETATM   20  C   UNL     1      44.283 -19.776   3.868  1.00  0.00     0.036 A 
HETATM   21  C   UNL     1      43.916 -19.821   2.523  1.00  0.00     0.029 A 
HETATM   22  C   UNL     1      43.938 -21.034   1.824  1.00  0.00     0.002 A 
HETATM   23  C   UNL     1      44.338 -22.206   2.461  1.00  0.00     0.000 A 
HETATM   24  C   UNL     1      44.729 -22.168   3.795  1.00  0.00     0.002 A 
HETATM   25  C   UNL     1      44.708 -20.957   4.492  1.00  0.00     0.029 A 
ENDBRANCH  16  20
ENDBRANCH   1  14
TORSDOF 4
ENDMDL
MODEL 10
REMARK VINA RESULT:      -7.6      7.835     10.257
REMARK  4 active torsions:
REMARK  status: ('A' for Active; 'I' for Inactive)
REMARK    1  A    between atoms: C_4  and  C_5 
REMARK    2  A    between atoms: C_8  and  C_9 
REMARK    3  A    between atoms: C_9  and  N_10 
REMARK       I    between atoms: N_10  and  C_11 
REMARK       I    between atoms: C_11  and  N_12 
REMARK    4  A    between atoms: N_12  and  C_13 
ROOT
HETATM    1  C   UNL     1      45.220 -13.594   7.145  1.00  0.00     0.213 C 
ENDROOT
BRANCH   1   2
HETATM    2  C   UNL     1      44.992 -12.769   8.353  1.00  0.00     0.190 A 
HETATM    3  O   UNL     1      45.819 -12.990   9.412  1.00  0.00    -0.194 OA
HETATM    4  N   UNL     1      45.370 -12.169  10.444  1.00  0.00    -0.106 NA
HETATM    5  C   UNL     1      44.310 -11.534   9.914  1.00  0.00     0.189 A 
HETATM    6  N   UNL     1      44.067 -11.867   8.596  1.00  0.00    -0.202 NA
BRANCH   5   7
HETATM    7  C   UNL     1      43.460 -10.607  10.656  1.00  0.00     0.015 A 
HETATM    8  C   UNL     1      43.740 -10.308  12.000  1.00  0.00     0.022 A 
HETATM    9  C   UNL     1      42.948  -9.403  12.721  1.00  0.00    -0.061 A 
HETATM   10  C   UNL     1      43.265  -9.071  14.150  1.00  0.00     0.048 C 
HETATM   11  C   UNL     1      41.872  -8.780  12.081  1.00  0.00     0.007 A 
HETATM   12  C   UNL     1      41.582  -9.066  10.748  1.00  0.00     0.002 A 
HETATM   13  C   UNL     1      42.370  -9.976  10.040  1.00  0.00     0.015 A 
ENDBRANCH   5   7
ENDBRANCH   1   2
BRANCH   1  14
HETATM   14  N   UNL     1      43.968 -14.090   6.611  1.00  0.00    -0.335 N 
HETATM   15  C   UNL     1      43.523 -15.301   7.040  1.00  0.00     0.321 C 
HETATM   16  N   UNL     1      42.306 -15.725   6.610  1.00  0.00    -0.309 N 
HETATM   17  O   UNL     1      44.156 -15.994   7.835  1.00  0.00    -0.247 OA
HETATM   18  H   UNL     1      42.001 -16.533   7.141  1.00  0.00     0.170 HD
HETATM   19  H   UNL     1      43.231 -13.409   6.484  1.00  0.00     0.164 HD
BRANCH  16  20
HETATM   20  C   UNL     1      41.468 -15.329   5.552  1.00  0.00     0.036 A 
HETATM   21  C   UNL     1      40.487 -14.341   5.646  1.00  0.00     0.029 A 
HETATM   22  C   UNL     1      39.720 -13.996   4.526  1.00  0.00     0.002 A 
HETATM   23  C   UNL     1      39.938 -14.627   3.304  1.00  0.00     0.000 A 
HETATM   24  C   UNL     1      40.928 -15.596   3.194  1.00  0.00     0.002 A 
HETATM   25  C   UNL     1      41.694 -15.940   4.311  1.00  0.00     0.029 A 
ENDBRANCH  16  20
ENDBRANCH   1  14
TORSDOF 4
ENDMDL
