MODEL 1
REMARK VINA RESULT:      -8.8      0.000      0.000
REMARK  9 active torsions:
REMARK  status: ('A' for Active; 'I' for Inactive)
REMARK    1  A    between atoms: C_3  and  C_4 
REMARK    2  A    between atoms: C_4  and  O_5 
REMARK    3  A    between atoms: C_8  and  C_9 
REMARK    4  A    between atoms: C_9  and  O_10 
REMARK    5  A    between atoms: O_10  and  C_11 
REMARK    6  A    between atoms: C_11  and  C_12 
REMARK    7  A    between atoms: C_15  and  C_16 
REMARK    8  A    between atoms: C_16  and  N_17 
REMARK       I    between atoms: N_17  and  C_18 
REMARK       I    between atoms: C_18  and  N_19 
REMARK    9  A    between atoms: N_19  and  C_20 
ROOT
HETATM    1  C   UNL     1      39.995 -14.619   3.228  1.00  0.00     0.293 C 
HETATM    2  O   UNL     1      39.424 -14.313   2.195  1.00  0.00    -0.259 OA
ENDROOT
BRANCH   1   3
HETATM    3  O   UNL     1      40.573 -15.815   3.495  1.00  0.00    -0.311 OA
BRANCH   3   4
HETATM    4  C   UNL     1      41.962 -15.915   3.140  1.00  0.00     0.239 C 
BRANCH   4   5
HETATM    5  C   UNL     1      42.677 -17.173   3.576  1.00  0.00     0.076 A 
HETATM    6  C   UNL     1      43.211 -17.347   4.849  1.00  0.00     0.073 A 
HETATM    7  C   UNL     1      43.937 -18.523   5.141  1.00  0.00    -0.031 A 
HETATM    8  C   UNL     1      44.598 -18.714   6.484  1.00  0.00     0.050 C 
HETATM    9  C   UNL     1      44.024 -19.535   4.143  1.00  0.00    -0.000 A 
HETATM   10  C   UNL     1      43.441 -19.267   2.886  1.00  0.00     0.068 A 
HETATM   11  C   UNL     1      44.661 -20.788   4.328  1.00  0.00     0.014 A 
HETATM   12  N   UNL     1      42.817 -18.116   2.605  1.00  0.00    -0.249 NA
HETATM   13  C   UNL     1      43.516 -20.220   1.881  1.00  0.00     0.032 A 
HETATM   14  C   UNL     1      44.150 -21.447   2.074  1.00  0.00     0.002 A 
HETATM   15  C   UNL     1      44.723 -21.733   3.302  1.00  0.00     0.001 A 
BRANCH   6  16
HETATM   16  C   UNL     1      43.053 -16.265   5.837  1.00  0.00     0.295 C 
HETATM   17  O   UNL     1      42.121 -16.185   6.618  1.00  0.00    -0.259 OA
BRANCH  16  18
HETATM   18  O   UNL     1      44.105 -15.417   5.728  1.00  0.00    -0.322 OA
HETATM   19  C   UNL     1      43.747 -14.040   5.847  1.00  0.00     0.213 C 
ENDBRANCH  16  18
ENDBRANCH   6  16
ENDBRANCH   4   5
ENDBRANCH   3   4
ENDBRANCH   1   3
BRANCH   1  20
HETATM   20  C   UNL     1      40.266 -13.645   4.323  1.00  0.00     0.039 A 
HETATM   21  C   UNL     1      39.730 -13.915   5.589  1.00  0.00     0.018 A 
HETATM   22  C   UNL     1      39.792 -12.955   6.604  1.00  0.00     0.010 A 
HETATM   23  C   UNL     1      40.379 -11.705   6.362  1.00  0.00    -0.040 A 
HETATM   24  C   UNL     1      40.976 -11.465   5.116  1.00  0.00     0.010 A 
HETATM   25  C   UNL     1      40.919 -12.426   4.102  1.00  0.00     0.018 A 
BRANCH  23  26
HETATM   26  C   UNL     1      40.322 -10.623   7.408  1.00  0.00     0.162 C 
BRANCH  26  27
HETATM   27  N   UNL     1      40.759 -11.085   8.701  1.00  0.00    -0.339 N 
HETATM   28  C   UNL     1      42.034 -10.763   9.099  1.00  0.00     0.316 C 
HETATM   29  N   UNL     1      42.354 -11.377  10.282  1.00  0.00    -0.339 N 
HETATM   30  O   UNL     1      42.777 -10.029   8.465  1.00  0.00    -0.247 OA
HETATM   31  H   UNL     1      41.560 -11.580  10.871  1.00  0.00     0.164 HD
HETATM   32  H   UNL     1      40.449 -12.003   8.981  1.00  0.00     0.164 HD
BRANCH  29  33
HETATM   33  C   UNL     1      43.633 -11.190  10.961  1.00  0.00     0.078 C 
HETATM   34  C   UNL     1      43.523 -10.272  12.178  1.00  0.00     0.032 C 
HETATM   35  C   UNL     1      44.296 -12.518  11.321  1.00  0.00     0.032 C 
ENDBRANCH  29  33
ENDBRANCH  26  27
ENDBRANCH  23  26
ENDBRANCH   1  20
TORSDOF 9
ENDMDL
MODEL 2
REMARK VINA RESULT:      -8.3      5.931      9.418
REMARK  9 active torsions:
REMARK  status: ('A' for Active; 'I' for Inactive)
REMARK    1  A    between atoms: C_3  and  C_4 
REMARK    2  A    between atoms: C_4  and  O_5 
REMARK    3  A    between atoms: C_8  and  C_9 
REMARK    4  A    between atoms: C_9  and  O_10 
REMARK    5  A    between atoms: O_10  and  C_11 
REMARK    6  A    between atoms: C_11  and  C_12 
REMARK    7  A    between atoms: C_15  and  C_16 
REMARK    8  A    between atoms: C_16  and  N_17 
REMARK       I    between atoms: N_17  and  C_18 
REMARK       I    between atoms: C_18  and  N_19 
REMARK    9  A    between atoms: N_19  and  C_20 
ROOT
HETATM    1  C   UNL     1      41.567 -14.861  -0.139  1.00  0.00     0.293 C 
HETATM    2  O   UNL     1      41.873 -13.894   0.537  1.00  0.00    -0.259 OA
ENDROOT
BRANCH   1   3
HETATM    3  O   UNL     1      41.912 -16.148   0.109  1.00  0.00    -0.311 OA
BRANCH   3   4
HETATM    4  C   UNL     1      41.256 -16.749   1.239  1.00  0.00     0.239 C 
BRANCH   4   5
HETATM    5  C   UNL     1      42.124 -17.579   2.155  1.00  0.00     0.076 A 
HETATM    6  C   UNL     1      42.583 -17.129   3.390  1.00  0.00     0.073 A 
HETATM    7  C   UNL     1      43.461 -17.942   4.141  1.00  0.00    -0.031 A 
HETATM    8  C   UNL     1      44.042 -17.457   5.446  1.00  0.00     0.050 C 
HETATM    9  C   UNL     1      43.780 -19.238   3.646  1.00  0.00    -0.000 A 
HETATM   10  C   UNL     1      43.257 -19.605   2.387  1.00  0.00     0.068 A 
HETATM   11  C   UNL     1      44.590 -20.178   4.331  1.00  0.00     0.014 A 
HETATM   12  N   UNL     1      42.483 -18.794   1.657  1.00  0.00    -0.249 NA
HETATM   13  C   UNL     1      43.555 -20.854   1.862  1.00  0.00     0.032 A 
HETATM   14  C   UNL     1      44.358 -21.769   2.544  1.00  0.00     0.002 A 
HETATM   15  C   UNL     1      44.876 -21.431   3.783  1.00  0.00     0.001 A 
BRANCH   6  16
HETATM   16  C   UNL     1      42.184 -15.786   3.846  1.00  0.00     0.295 C 
HETATM   17  O   UNL     1      41.184 -15.558   4.503  1.00  0.00    -0.259 OA
BRANCH  16  18
HETATM   18  O   UNL     1      43.109 -14.889   3.425  1.00  0.00    -0.322 OA
HETATM   19  C   UNL     1      42.973 -13.600   4.024  1.00  0.00     0.213 C 
ENDBRANCH  16  18
ENDBRANCH   6  16
ENDBRANCH   4   5
ENDBRANCH   3   4
ENDBRANCH   1   3
BRANCH   1  20
HETATM   20  C   UNL     1      40.628 -14.780  -1.293  1.00  0.00     0.039 A 
HETATM   21  C   UNL     1      39.475 -13.996  -1.148  1.00  0.00     0.018 A 
HETATM   22  C   UNL     1      38.470 -14.028  -2.119  1.00  0.00     0.010 A 
HETATM   23  C   UNL     1      38.595 -14.856  -3.243  1.00  0.00    -0.040 A 
HETATM   24  C   UNL     1      39.781 -15.585  -3.420  1.00  0.00     0.010 A 
HETATM   25  C   UNL     1      40.789 -15.550  -2.451  1.00  0.00     0.018 A 
BRANCH  23  26
HETATM   26  C   UNL     1      37.455 -14.997  -4.216  1.00  0.00     0.162 C 
BRANCH  26  27
HETATM   27  N   UNL     1      36.883 -13.724  -4.580  1.00  0.00    -0.339 N 
HETATM   28  C   UNL     1      35.638 -13.724  -5.158  1.00  0.00     0.316 C 
HETATM   29  N   UNL     1      35.282 -12.465  -5.568  1.00  0.00    -0.339 N 
HETATM   30  O   UNL     1      34.951 -14.726  -5.291  1.00  0.00    -0.247 OA
HETATM   31  H   UNL     1      35.715 -11.721  -5.042  1.00  0.00     0.164 HD
HETATM   32  H   UNL     1      37.519 -13.032  -4.945  1.00  0.00     0.164 HD
BRANCH  29  33
HETATM   33  C   UNL     1      33.996 -12.157  -6.188  1.00  0.00     0.078 C 
HETATM   34  C   UNL     1      32.947 -11.710  -5.170  1.00  0.00     0.032 C 
HETATM   35  C   UNL     1      34.130 -11.154  -7.331  1.00  0.00     0.032 C 
ENDBRANCH  29  33
ENDBRANCH  26  27
ENDBRANCH  23  26
ENDBRANCH   1  20
TORSDOF 9
ENDMDL
MODEL 3
REMARK VINA RESULT:      -8.1      4.431      7.466
REMARK  9 active torsions:
REMARK  status: ('A' for Active; 'I' for Inactive)
REMARK    1  A    between atoms: C_3  and  C_4 
REMARK    2  A    between atoms: C_4  and  O_5 
REMARK    3  A    between atoms: C_8  and  C_9 
REMARK    4  A    between atoms: C_9  and  O_10 
REMARK    5  A    between atoms: O_10  and  C_11 
REMARK    6  A    between atoms: C_11  and  C_12 
REMARK    7  A    between atoms: C_15  and  C_16 
REMARK    8  A    between atoms: C_16  and  N_17 
REMARK       I    between atoms: N_17  and  C_18 
REMARK       I    between atoms: C_18  and  N_19 
REMARK    9  A    between atoms: N_19  and  C_20 
ROOT
HETATM    1  C   UNL     1      40.262 -14.441   2.420  1.00  0.00     0.293 C 
HETATM    2  O   UNL     1      39.410 -13.960   3.147  1.00  0.00    -0.259 OA
ENDROOT
BRANCH   1   3
HETATM    3  O   UNL     1      41.417 -15.025   2.821  1.00  0.00    -0.311 OA
BRANCH   3   4
HETATM    4  C   UNL     1      41.304 -15.869   3.980  1.00  0.00     0.239 C 
BRANCH   4   5
HETATM    5  C   UNL     1      42.276 -17.023   4.065  1.00  0.00     0.076 A 
HETATM    6  C   UNL     1      43.186 -17.181   5.107  1.00  0.00     0.073 A 
HETATM    7  C   UNL     1      44.114 -18.245   5.060  1.00  0.00    -0.031 A 
HETATM    8  C   UNL     1      45.166 -18.404   6.129  1.00  0.00     0.050 C 
HETATM    9  C   UNL     1      44.030 -19.175   3.985  1.00  0.00    -0.000 A 
HETATM   10  C   UNL     1      43.067 -18.932   2.982  1.00  0.00     0.068 A 
HETATM   11  C   UNL     1      44.853 -20.322   3.855  1.00  0.00     0.014 A 
HETATM   12  N   UNL     1      42.242 -17.878   3.008  1.00  0.00    -0.249 NA
HETATM   13  C   UNL     1      42.962 -19.805   1.910  1.00  0.00     0.032 A 
HETATM   14  C   UNL     1      43.782 -20.928   1.790  1.00  0.00     0.002 A 
HETATM   15  C   UNL     1      44.729 -21.188   2.766  1.00  0.00     0.001 A 
BRANCH   6  16
HETATM   16  C   UNL     1      43.190 -16.193   6.200  1.00  0.00     0.295 C 
HETATM   17  O   UNL     1      42.581 -16.330   7.246  1.00  0.00    -0.259 OA
BRANCH  16  18
HETATM   18  O   UNL     1      43.978 -15.150   5.842  1.00  0.00    -0.322 OA
HETATM   19  C   UNL     1      44.635 -14.521   6.943  1.00  0.00     0.213 C 
ENDBRANCH  16  18
ENDBRANCH   6  16
ENDBRANCH   4   5
ENDBRANCH   3   4
ENDBRANCH   1   3
BRANCH   1  20
HETATM   20  C   UNL     1      40.083 -14.584   0.947  1.00  0.00     0.039 A 
HETATM   21  C   UNL     1      41.044 -15.315   0.236  1.00  0.00     0.018 A 
HETATM   22  C   UNL     1      41.033 -15.328  -1.162  1.00  0.00     0.010 A 
HETATM   23  C   UNL     1      40.069 -14.598  -1.870  1.00  0.00    -0.040 A 
HETATM   24  C   UNL     1      39.067 -13.925  -1.156  1.00  0.00     0.010 A 
HETATM   25  C   UNL     1      39.074 -13.915   0.243  1.00  0.00     0.018 A 
BRANCH  23  26
HETATM   26  C   UNL     1      40.140 -14.498  -3.371  1.00  0.00     0.162 C 
BRANCH  26  27
HETATM   27  N   UNL     1      40.214 -13.133  -3.828  1.00  0.00    -0.339 N 
HETATM   28  C   UNL     1      41.428 -12.495  -3.746  1.00  0.00     0.316 C 
HETATM   29  N   UNL     1      41.316 -11.172  -4.088  1.00  0.00    -0.339 N 
HETATM   30  O   UNL     1      42.462 -13.046  -3.401  1.00  0.00    -0.247 OA
HETATM   31  H   UNL     1      40.559 -10.972  -4.725  1.00  0.00     0.164 HD
HETATM   32  H   UNL     1      39.416 -12.549  -3.633  1.00  0.00     0.164 HD
BRANCH  29  33
HETATM   33  C   UNL     1      42.452 -10.255  -4.124  1.00  0.00     0.078 C 
HETATM   34  C   UNL     1      42.422  -9.330  -5.340  1.00  0.00     0.032 C 
HETATM   35  C   UNL     1      42.600  -9.466  -2.824  1.00  0.00     0.032 C 
ENDBRANCH  29  33
ENDBRANCH  26  27
ENDBRANCH  23  26
ENDBRANCH   1  20
TORSDOF 9
ENDMDL
MODEL 4
REMARK VINA RESULT:      -8.1      4.314      6.357
REMARK  9 active torsions:
REMARK  status: ('A' for Active; 'I' for Inactive)
REMARK    1  A    between atoms: C_3  and  C_4 
REMARK    2  A    between atoms: C_4  and  O_5 
REMARK    3  A    between atoms: C_8  and  C_9 
REMARK    4  A    between atoms: C_9  and  O_10 
REMARK    5  A    between atoms: O_10  and  C_11 
REMARK    6  A    between atoms: C_11  and  C_12 
REMARK    7  A    between atoms: C_15  and  C_16 
REMARK    8  A    between atoms: C_16  and  N_17 
REMARK       I    between atoms: N_17  and  C_18 
REMARK       I    between atoms: C_18  and  N_19 
REMARK    9  A    between atoms: N_19  and  C_20 
ROOT
HETATM    1  C   UNL     1      40.127 -14.737   3.703  1.00  0.00     0.293 C 
HETATM    2  O   UNL     1      40.163 -14.411   4.877  1.00  0.00    -0.259 OA
ENDROOT
BRANCH   1   3
HETATM    3  O   UNL     1      40.620 -15.887   3.179  1.00  0.00    -0.311 OA
BRANCH   3   4
HETATM    4  C   UNL     1      42.050 -15.930   3.039  1.00  0.00     0.239 C 
BRANCH   4   5
HETATM    5  C   UNL     1      42.732 -17.191   3.516  1.00  0.00     0.076 A 
HETATM    6  C   UNL     1      43.218 -17.356   4.810  1.00  0.00     0.073 A 
HETATM    7  C   UNL     1      43.917 -18.538   5.141  1.00  0.00    -0.031 A 
HETATM    8  C   UNL     1      44.528 -18.720   6.509  1.00  0.00     0.050 C 
HETATM    9  C   UNL     1      44.027 -19.563   4.159  1.00  0.00    -0.000 A 
HETATM   10  C   UNL     1      43.493 -19.303   2.879  1.00  0.00     0.068 A 
HETATM   11  C   UNL     1      44.640 -20.821   4.382  1.00  0.00     0.014 A 
HETATM   12  N   UNL     1      42.894 -18.148   2.562  1.00  0.00    -0.249 NA
HETATM   13  C   UNL     1      43.591 -20.269   1.888  1.00  0.00     0.032 A 
HETATM   14  C   UNL     1      44.203 -21.502   2.119  1.00  0.00     0.002 A 
HETATM   15  C   UNL     1      44.728 -21.780   3.370  1.00  0.00     0.001 A 
BRANCH   6  16
HETATM   16  C   UNL     1      43.039 -16.260   5.778  1.00  0.00     0.295 C 
HETATM   17  O   UNL     1      42.139 -16.215   6.598  1.00  0.00    -0.259 OA
BRANCH  16  18
HETATM   18  O   UNL     1      44.031 -15.355   5.601  1.00  0.00    -0.322 OA
HETATM   19  C   UNL     1      44.546 -14.821   6.821  1.00  0.00     0.213 C 
ENDBRANCH  16  18
ENDBRANCH   6  16
ENDBRANCH   4   5
ENDBRANCH   3   4
ENDBRANCH   1   3
BRANCH   1  20
HETATM   20  C   UNL     1      39.393 -13.958   2.666  1.00  0.00     0.039 A 
HETATM   21  C   UNL     1      39.322 -12.567   2.818  1.00  0.00     0.018 A 
HETATM   22  C   UNL     1      38.496 -11.804   1.986  1.00  0.00     0.010 A 
HETATM   23  C   UNL     1      37.718 -12.424   0.999  1.00  0.00    -0.040 A 
HETATM   24  C   UNL     1      37.845 -13.807   0.803  1.00  0.00     0.010 A 
HETATM   25  C   UNL     1      38.674 -14.571   1.632  1.00  0.00     0.018 A 
BRANCH  23  26
HETATM   26  C   UNL     1      36.726 -11.624   0.197  1.00  0.00     0.162 C 
BRANCH  26  27
HETATM   27  N   UNL     1      35.385 -11.734   0.715  1.00  0.00    -0.339 N 
HETATM   28  C   UNL     1      34.790 -10.596   1.202  1.00  0.00     0.316 C 
HETATM   29  N   UNL     1      33.579 -10.877   1.778  1.00  0.00    -0.339 N 
HETATM   30  O   UNL     1      35.294  -9.485   1.132  1.00  0.00    -0.247 OA
HETATM   31  H   UNL     1      33.123 -11.696   1.404  1.00  0.00     0.164 HD
HETATM   32  H   UNL     1      35.167 -12.576   1.226  1.00  0.00     0.164 HD
BRANCH  29  33
HETATM   33  C   UNL     1      32.707  -9.855   2.351  1.00  0.00     0.078 C 
HETATM   34  C   UNL     1      31.619  -9.400   1.378  1.00  0.00     0.032 C 
HETATM   35  C   UNL     1      32.115 -10.284   3.692  1.00  0.00     0.032 C 
ENDBRANCH  29  33
ENDBRANCH  26  27
ENDBRANCH  23  26
ENDBRANCH   1  20
TORSDOF 9
ENDMDL
MODEL 5
REMARK VINA RESULT:      -7.8      4.633      6.747
REMARK  9 active torsions:
REMARK  status: ('A' for Active; 'I' for Inactive)
REMARK    1  A    between atoms: C_3  and  C_4 
REMARK    2  A    between atoms: C_4  and  O_5 
REMARK    3  A    between atoms: C_8  and  C_9 
REMARK    4  A    between atoms: C_9  and  O_10 
REMARK    5  A    between atoms: O_10  and  C_11 
REMARK    6  A    between atoms: C_11  and  C_12 
REMARK    7  A    between atoms: C_15  and  C_16 
REMARK    8  A    between atoms: C_16  and  N_17 
REMARK       I    between atoms: N_17  and  C_18 
REMARK       I    between atoms: C_18  and  N_19 
REMARK    9  A    between atoms: N_19  and  C_20 
ROOT
HETATM    1  C   UNL     1      40.699 -14.839   0.283  1.00  0.00     0.293 C 
HETATM    2  O   UNL     1      40.917 -15.390  -0.782  1.00  0.00    -0.259 OA
ENDROOT
BRANCH   1   3
HETATM    3  O   UNL     1      41.417 -14.995   1.423  1.00  0.00    -0.311 OA
BRANCH   3   4
HETATM    4  C   UNL     1      40.873 -15.938   2.362  1.00  0.00     0.239 C 
BRANCH   4   5
HETATM    5  C   UNL     1      41.851 -16.915   2.972  1.00  0.00     0.076 A 
HETATM    6  C   UNL     1      42.485 -16.701   4.193  1.00  0.00     0.073 A 
HETATM    7  C   UNL     1      43.449 -17.630   4.644  1.00  0.00    -0.031 A 
HETATM    8  C   UNL     1      44.215 -17.394   5.922  1.00  0.00     0.050 C 
HETATM    9  C   UNL     1      43.678 -18.804   3.872  1.00  0.00    -0.000 A 
HETATM   10  C   UNL     1      42.978 -18.933   2.653  1.00  0.00     0.068 A 
HETATM   11  C   UNL     1      44.563 -19.846   4.245  1.00  0.00     0.014 A 
HETATM   12  N   UNL     1      42.119 -18.008   2.207  1.00  0.00    -0.249 NA
HETATM   13  C   UNL     1      43.182 -20.055   1.863  1.00  0.00     0.032 A 
HETATM   14  C   UNL     1      44.061 -21.071   2.239  1.00  0.00     0.002 A 
HETATM   15  C   UNL     1      44.753 -20.968   3.435  1.00  0.00     0.001 A 
BRANCH   6  16
HETATM   16  C   UNL     1      42.173 -15.475   4.947  1.00  0.00     0.295 C 
HETATM   17  O   UNL     1      42.800 -14.435   4.848  1.00  0.00    -0.259 OA
BRANCH  16  18
HETATM   18  O   UNL     1      41.093 -15.708   5.732  1.00  0.00    -0.322 OA
HETATM   19  C   UNL     1      40.209 -14.591   5.839  1.00  0.00     0.213 C 
ENDBRANCH  16  18
ENDBRANCH   6  16
ENDBRANCH   4   5
ENDBRANCH   3   4
ENDBRANCH   1   3
BRANCH   1  20
HETATM   20  C   UNL     1      39.665 -13.779   0.452  1.00  0.00     0.039 A 
HETATM   21  C   UNL     1      38.346 -14.182   0.700  1.00  0.00     0.018 A 
HETATM   22  C   UNL     1      37.305 -13.248   0.684  1.00  0.00     0.010 A 
HETATM   23  C   UNL     1      37.566 -11.901   0.403  1.00  0.00    -0.040 A 
HETATM   24  C   UNL     1      38.895 -11.489   0.225  1.00  0.00     0.010 A 
HETATM   25  C   UNL     1      39.938 -12.421   0.246  1.00  0.00     0.018 A 
BRANCH  23  26
HETATM   26  C   UNL     1      36.432 -10.922   0.247  1.00  0.00     0.162 C 
BRANCH  26  27
HETATM   27  N   UNL     1      35.514 -10.964   1.358  1.00  0.00    -0.339 N 
HETATM   28  C   UNL     1      34.185 -10.730   1.099  1.00  0.00     0.316 C 
HETATM   29  N   UNL     1      33.458 -10.671   2.259  1.00  0.00    -0.339 N 
HETATM   30  O   UNL     1      33.728 -10.585  -0.025  1.00  0.00    -0.247 OA
HETATM   31  H   UNL     1      33.850 -11.204   3.021  1.00  0.00     0.164 HD
HETATM   32  H   UNL     1      35.846 -10.589   2.232  1.00  0.00     0.164 HD
BRANCH  29  33
HETATM   33  C   UNL     1      32.012 -10.466   2.289  1.00  0.00     0.078 C 
HETATM   34  C   UNL     1      31.257 -11.684   2.822  1.00  0.00     0.032 C 
HETATM   35  C   UNL     1      31.623  -9.195   3.040  1.00  0.00     0.032 C 
ENDBRANCH  29  33
ENDBRANCH  26  27
ENDBRANCH  23  26
ENDBRANCH   1  20
TORSDOF 9
ENDMDL
MODEL 6
REMARK VINA RESULT:      -7.8      3.367      6.461
REMARK  9 active torsions:
REMARK  status: ('A' for Active; 'I' for Inactive)
REMARK    1  A    between atoms: C_3  and  C_4 
REMARK    2  A    between atoms: C_4  and  O_5 
REMARK    3  A    between atoms: C_8  and  C_9 
REMARK    4  A    between atoms: C_9  and  O_10 
REMARK    5  A    between atoms: O_10  and  C_11 
REMARK    6  A    between atoms: C_11  and  C_12 
REMARK    7  A    between atoms: C_15  and  C_16 
REMARK    8  A    between atoms: C_16  and  N_17 
REMARK       I    between atoms: N_17  and  C_18 
REMARK       I    between atoms: C_18  and  N_19 
REMARK    9  A    between atoms: N_19  and  C_20 
ROOT
HETATM    1  C   UNL     1      43.665 -14.527   6.279  1.00  0.00     0.293 C 
HETATM    2  O   UNL     1      43.932 -14.109   7.393  1.00  0.00    -0.259 OA
ENDROOT
BRANCH   1   3
HETATM    3  O   UNL     1      44.154 -15.658   5.714  1.00  0.00    -0.311 OA
BRANCH   3   4
HETATM    4  C   UNL     1      43.369 -16.841   5.938  1.00  0.00     0.239 C 
BRANCH   4   5
HETATM    5  C   UNL     1      43.636 -18.008   5.016  1.00  0.00     0.076 A 
HETATM    6  C   UNL     1      43.465 -17.946   3.635  1.00  0.00     0.073 A 
HETATM    7  C   UNL     1      43.657 -19.112   2.862  1.00  0.00    -0.031 A 
HETATM    8  C   UNL     1      43.405 -19.106   1.374  1.00  0.00     0.050 C 
HETATM    9  C   UNL     1      44.106 -20.296   3.513  1.00  0.00    -0.000 A 
HETATM   10  C   UNL     1      44.258 -20.254   4.915  1.00  0.00     0.068 A 
HETATM   11  C   UNL     1      44.403 -21.511   2.847  1.00  0.00     0.014 A 
HETATM   12  N   UNL     1      44.004 -19.158   5.641  1.00  0.00    -0.249 NA
HETATM   13  C   UNL     1      44.680 -21.390   5.591  1.00  0.00     0.032 A 
HETATM   14  C   UNL     1      44.964 -22.582   4.924  1.00  0.00     0.002 A 
HETATM   15  C   UNL     1      44.827 -22.643   3.547  1.00  0.00     0.001 A 
BRANCH   6  16
HETATM   16  C   UNL     1      43.027 -16.676   3.032  1.00  0.00     0.295 C 
HETATM   17  O   UNL     1      43.773 -15.897   2.465  1.00  0.00    -0.259 OA
BRANCH  16  18
HETATM   18  O   UNL     1      41.689 -16.547   3.208  1.00  0.00    -0.322 OA
HETATM   19  C   UNL     1      40.960 -16.410   1.988  1.00  0.00     0.213 C 
ENDBRANCH  16  18
ENDBRANCH   6  16
ENDBRANCH   4   5
ENDBRANCH   3   4
ENDBRANCH   1   3
BRANCH   1  20
HETATM   20  C   UNL     1      42.626 -13.908   5.408  1.00  0.00     0.039 A 
HETATM   21  C   UNL     1      41.281 -14.167   5.705  1.00  0.00     0.018 A 
HETATM   22  C   UNL     1      40.272 -13.770   4.821  1.00  0.00     0.010 A 
HETATM   23  C   UNL     1      40.595 -13.122   3.622  1.00  0.00    -0.040 A 
HETATM   24  C   UNL     1      41.935 -12.802   3.362  1.00  0.00     0.010 A 
HETATM   25  C   UNL     1      42.945 -13.194   4.247  1.00  0.00     0.018 A 
BRANCH  23  26
HETATM   26  C   UNL     1      39.523 -12.820   2.608  1.00  0.00     0.162 C 
BRANCH  26  27
HETATM   27  N   UNL     1      40.031 -12.812   1.258  1.00  0.00    -0.339 N 
HETATM   28  C   UNL     1      39.418 -13.626   0.338  1.00  0.00     0.316 C 
HETATM   29  N   UNL     1      40.086 -13.614  -0.858  1.00  0.00    -0.339 N 
HETATM   30  O   UNL     1      38.412 -14.279   0.574  1.00  0.00    -0.247 OA
HETATM   31  H   UNL     1      40.598 -12.763  -1.037  1.00  0.00     0.164 HD
HETATM   32  H   UNL     1      41.031 -12.734   1.153  1.00  0.00     0.164 HD
BRANCH  29  33
HETATM   33  C   UNL     1      39.643 -14.361  -2.032  1.00  0.00     0.078 C 
HETATM   34  C   UNL     1      38.675 -13.563  -2.906  1.00  0.00     0.032 C 
HETATM   35  C   UNL     1      40.813 -14.906  -2.848  1.00  0.00     0.032 C 
ENDBRANCH  29  33
ENDBRANCH  26  27
ENDBRANCH  23  26
ENDBRANCH   1  20
TORSDOF 9
ENDMDL
MODEL 7
REMARK VINA RESULT:      -7.7      4.837      8.277
REMARK  9 active torsions:
REMARK  status: ('A' for Active; 'I' for Inactive)
REMARK    1  A    between atoms: C_3  and  C_4 
REMARK    2  A    between atoms: C_4  and  O_5 
REMARK    3  A    between atoms: C_8  and  C_9 
REMARK    4  A    between atoms: C_9  and  O_10 
REMARK    5  A    between atoms: O_10  and  C_11 
REMARK    6  A    between atoms: C_11  and  C_12 
REMARK    7  A    between atoms: C_15  and  C_16 
REMARK    8  A    between atoms: C_16  and  N_17 
REMARK       I    between atoms: N_17  and  C_18 
REMARK       I    between atoms: C_18  and  N_19 
REMARK    9  A    between atoms: N_19  and  C_20 
ROOT
HETATM    1  C   UNL     1      41.580 -16.479   0.986  1.00  0.00     0.293 C 
HETATM    2  O   UNL     1      40.631 -17.081   1.458  1.00  0.00    -0.259 OA
ENDROOT
BRANCH   1   3
HETATM    3  O   UNL     1      42.888 -16.735   1.231  1.00  0.00    -0.311 OA
BRANCH   3   4
HETATM    4  C   UNL     1      43.316 -16.491   2.582  1.00  0.00     0.239 C 
BRANCH   4   5
HETATM    5  C   UNL     1      43.603 -17.712   3.425  1.00  0.00     0.076 A 
HETATM    6  C   UNL     1      43.608 -17.696   4.817  1.00  0.00     0.073 A 
HETATM    7  C   UNL     1      43.971 -18.866   5.520  1.00  0.00    -0.031 A 
HETATM    8  C   UNL     1      44.066 -18.867   7.026  1.00  0.00     0.050 C 
HETATM    9  C   UNL     1      44.237 -20.052   4.780  1.00  0.00    -0.000 A 
HETATM   10  C   UNL     1      44.197 -19.967   3.371  1.00  0.00     0.068 A 
HETATM   11  C   UNL     1      44.543 -21.307   5.363  1.00  0.00     0.014 A 
HETATM   12  N   UNL     1      43.919 -18.831   2.719  1.00  0.00    -0.249 NA
HETATM   13  C   UNL     1      44.464 -21.096   2.611  1.00  0.00     0.032 A 
HETATM   14  C   UNL     1      44.769 -22.325   3.196  1.00  0.00     0.002 A 
HETATM   15  C   UNL     1      44.808 -22.431   4.577  1.00  0.00     0.001 A 
BRANCH   6  16
HETATM   16  C   UNL     1      43.294 -16.436   5.512  1.00  0.00     0.295 C 
HETATM   17  O   UNL     1      44.127 -15.608   5.835  1.00  0.00    -0.259 OA
BRANCH  16  18
HETATM   18  O   UNL     1      41.954 -16.366   5.705  1.00  0.00    -0.322 OA
HETATM   19  C   UNL     1      41.448 -15.032   5.751  1.00  0.00     0.213 C 
ENDBRANCH  16  18
ENDBRANCH   6  16
ENDBRANCH   4   5
ENDBRANCH   3   4
ENDBRANCH   1   3
BRANCH   1  20
HETATM   20  C   UNL     1      41.435 -15.433  -0.065  1.00  0.00     0.039 A 
HETATM   21  C   UNL     1      41.486 -14.090   0.332  1.00  0.00     0.018 A 
HETATM   22  C   UNL     1      41.174 -13.071  -0.573  1.00  0.00     0.010 A 
HETATM   23  C   UNL     1      40.790 -13.381  -1.885  1.00  0.00    -0.040 A 
HETATM   24  C   UNL     1      40.808 -14.721  -2.299  1.00  0.00     0.010 A 
HETATM   25  C   UNL     1      41.125 -15.741  -1.396  1.00  0.00     0.018 A 
BRANCH  23  26
HETATM   26  C   UNL     1      40.319 -12.296  -2.817  1.00  0.00     0.162 C 
BRANCH  26  27
HETATM   27  N   UNL     1      39.375 -12.781  -3.792  1.00  0.00    -0.339 N 
HETATM   28  C   UNL     1      38.075 -12.349  -3.694  1.00  0.00     0.316 C 
HETATM   29  N   UNL     1      37.270 -12.992  -4.599  1.00  0.00    -0.339 N 
HETATM   30  O   UNL     1      37.698 -11.507  -2.893  1.00  0.00    -0.247 OA
HETATM   31  H   UNL     1      37.750 -13.310  -5.427  1.00  0.00     0.164 HD
HETATM   32  H   UNL     1      39.480 -13.741  -4.083  1.00  0.00     0.164 HD
BRANCH  29  33
HETATM   33  C   UNL     1      35.844 -12.710  -4.745  1.00  0.00     0.078 C 
HETATM   34  C   UNL     1      35.553 -11.733  -5.885  1.00  0.00     0.032 C 
HETATM   35  C   UNL     1      35.013 -13.984  -4.875  1.00  0.00     0.032 C 
ENDBRANCH  29  33
ENDBRANCH  26  27
ENDBRANCH  23  26
ENDBRANCH   1  20
TORSDOF 9
ENDMDL
MODEL 8
REMARK VINA RESULT:      -7.6      1.985      2.972
REMARK  9 active torsions:
REMARK  status: ('A' for Active; 'I' for Inactive)
REMARK    1  A    between atoms: C_3  and  C_4 
REMARK    2  A    between atoms: C_4  and  O_5 
REMARK    3  A    between atoms: C_8  and  C_9 
REMARK    4  A    between atoms: C_9  and  O_10 
REMARK    5  A    between atoms: O_10  and  C_11 
REMARK    6  A    between atoms: C_11  and  C_12 
REMARK    7  A    between atoms: C_15  and  C_16 
REMARK    8  A    between atoms: C_16  and  N_17 
REMARK       I    between atoms: N_17  and  C_18 
REMARK       I    between atoms: C_18  and  N_19 
REMARK    9  A    between atoms: N_19  and  C_20 
ROOT
HETATM    1  C   UNL     1      41.379 -14.781   0.330  1.00  0.00     0.293 C 
HETATM    2  O   UNL     1      41.336 -14.808  -0.888  1.00  0.00    -0.259 OA
ENDROOT
BRANCH   1   3
HETATM    3  O   UNL     1      42.148 -15.571   1.119  1.00  0.00    -0.311 OA
BRANCH   3   4
HETATM    4  C   UNL     1      41.455 -16.656   1.757  1.00  0.00     0.239 C 
BRANCH   4   5
HETATM    5  C   UNL     1      42.309 -17.638   2.525  1.00  0.00     0.076 A 
HETATM    6  C   UNL     1      42.829 -17.375   3.789  1.00  0.00     0.073 A 
HETATM    7  C   UNL     1      43.688 -18.319   4.395  1.00  0.00    -0.031 A 
HETATM    8  C   UNL     1      44.334 -18.037   5.729  1.00  0.00     0.050 C 
HETATM    9  C   UNL     1      43.926 -19.552   3.724  1.00  0.00    -0.000 A 
HETATM   10  C   UNL     1      43.346 -19.727   2.449  1.00  0.00     0.068 A 
HETATM   11  C   UNL     1      44.709 -20.610   4.251  1.00  0.00     0.014 A 
HETATM   12  N   UNL     1      42.590 -18.792   1.860  1.00  0.00    -0.249 NA
HETATM   13  C   UNL     1      43.564 -20.909   1.756  1.00  0.00     0.032 A 
HETATM   14  C   UNL     1      44.342 -21.941   2.282  1.00  0.00     0.002 A 
HETATM   15  C   UNL     1      44.915 -21.792   3.535  1.00  0.00     0.001 A 
BRANCH   6  16
HETATM   16  C   UNL     1      42.512 -16.087   4.430  1.00  0.00     0.295 C 
HETATM   17  O   UNL     1      43.184 -15.079   4.302  1.00  0.00    -0.259 OA
BRANCH  16  18
HETATM   18  O   UNL     1      41.373 -16.226   5.150  1.00  0.00    -0.322 OA
HETATM   19  C   UNL     1      40.589 -15.035   5.221  1.00  0.00     0.213 C 
ENDBRANCH  16  18
ENDBRANCH   6  16
ENDBRANCH   4   5
ENDBRANCH   3   4
ENDBRANCH   1   3
BRANCH   1  20
HETATM   20  C   UNL     1      40.674 -13.751   1.144  1.00  0.00     0.039 A 
HETATM   21  C   UNL     1      41.438 -12.967   2.018  1.00  0.00     0.018 A 
HETATM   22  C   UNL     1      40.814 -12.117   2.937  1.00  0.00     0.010 A 
HETATM   23  C   UNL     1      39.416 -12.050   3.005  1.00  0.00    -0.040 A 
HETATM   24  C   UNL     1      38.656 -12.782   2.081  1.00  0.00     0.010 A 
HETATM   25  C   UNL     1      39.278 -13.629   1.158  1.00  0.00     0.018 A 
BRANCH  23  26
HETATM   26  C   UNL     1      38.744 -11.244   4.084  1.00  0.00     0.162 C 
BRANCH  26  27
HETATM   27  N   UNL     1      39.691 -10.644   4.992  1.00  0.00    -0.339 N 
HETATM   28  C   UNL     1      39.697 -11.083   6.293  1.00  0.00     0.316 C 
HETATM   29  N   UNL     1      40.550 -10.337   7.064  1.00  0.00    -0.339 N 
HETATM   30  O   UNL     1      39.017 -12.014   6.698  1.00  0.00    -0.247 OA
HETATM   31  H   UNL     1      41.315  -9.923   6.553  1.00  0.00     0.164 HD
HETATM   32  H   UNL     1      39.862  -9.657   4.878  1.00  0.00     0.164 HD
BRANCH  29  33
HETATM   33  C   UNL     1      40.784 -10.598   8.482  1.00  0.00     0.078 C 
HETATM   34  C   UNL     1      42.268 -10.553   8.849  1.00  0.00     0.032 C 
HETATM   35  C   UNL     1      39.957  -9.683   9.383  1.00  0.00     0.032 C 
ENDBRANCH  29  33
ENDBRANCH  26  27
ENDBRANCH  23  26
ENDBRANCH   1  20
TORSDOF 9
ENDMDL
MODEL 9
REMARK VINA RESULT:      -7.6      2.350      9.202
REMARK  9 active torsions:
REMARK  status: ('A' for Active; 'I' for Inactive)
REMARK    1  A    between atoms: C_3  and  C_4 
REMARK    2  A    between atoms: C_4  and  O_5 
REMARK    3  A    between atoms: C_8  and  C_9 
REMARK    4  A    between atoms: C_9  and  O_10 
REMARK    5  A    between atoms: O_10  and  C_11 
REMARK    6  A    between atoms: C_11  and  C_12 
REMARK    7  A    between atoms: C_15  and  C_16 
REMARK    8  A    between atoms: C_16  and  N_17 
REMARK       I    between atoms: N_17  and  C_18 
REMARK       I    between atoms: C_18  and  N_19 
REMARK    9  A    between atoms: N_19  and  C_20 
ROOT
HETATM    1  C   UNL     1      39.848 -12.228   6.152  1.00  0.00     0.293 C 
HETATM    2  O   UNL     1      38.750 -12.507   6.602  1.00  0.00    -0.259 OA
ENDROOT
BRANCH   1   3
HETATM    3  O   UNL     1      40.459 -11.020   6.230  1.00  0.00    -0.311 OA
BRANCH   3   4
HETATM    4  C   UNL     1      40.159 -10.260   7.413  1.00  0.00     0.239 C 
BRANCH   4   5
HETATM    5  C   UNL     1      41.195 -10.297   8.513  1.00  0.00     0.076 A 
HETATM    6  C   UNL     1      41.049  -9.625   9.723  1.00  0.00     0.073 A 
HETATM    7  C   UNL     1      42.107  -9.647  10.659  1.00  0.00    -0.031 A 
HETATM    8  C   UNL     1      42.019  -8.867  11.948  1.00  0.00     0.050 C 
HETATM    9  C   UNL     1      43.258 -10.432  10.368  1.00  0.00    -0.000 A 
HETATM   10  C   UNL     1      43.307 -11.083   9.116  1.00  0.00     0.068 A 
HETATM   11  C   UNL     1      44.358 -10.596  11.247  1.00  0.00     0.014 A 
HETATM   12  N   UNL     1      42.324 -10.994   8.212  1.00  0.00    -0.249 NA
HETATM   13  C   UNL     1      44.417 -11.846   8.786  1.00  0.00     0.032 A 
HETATM   14  C   UNL     1      45.496 -11.996   9.658  1.00  0.00     0.002 A 
HETATM   15  C   UNL     1      45.466 -11.370  10.894  1.00  0.00     0.001 A 
BRANCH   6  16
HETATM   16  C   UNL     1      39.814  -8.858   9.963  1.00  0.00     0.295 C 
HETATM   17  O   UNL     1      39.668  -7.688   9.658  1.00  0.00    -0.259 OA
BRANCH  16  18
HETATM   18  O   UNL     1      38.903  -9.671  10.552  1.00  0.00    -0.322 OA
HETATM   19  C   UNL     1      38.194  -9.055  11.627  1.00  0.00     0.213 C 
ENDBRANCH  16  18
ENDBRANCH   6  16
ENDBRANCH   4   5
ENDBRANCH   3   4
ENDBRANCH   1   3
BRANCH   1  20
HETATM   20  C   UNL     1      40.761 -13.243   5.554  1.00  0.00     0.039 A 
HETATM   21  C   UNL     1      41.930 -12.788   4.930  1.00  0.00     0.018 A 
HETATM   22  C   UNL     1      42.729 -13.669   4.193  1.00  0.00     0.010 A 
HETATM   23  C   UNL     1      42.361 -15.014   4.058  1.00  0.00    -0.040 A 
HETATM   24  C   UNL     1      41.230 -15.481   4.743  1.00  0.00     0.010 A 
HETATM   25  C   UNL     1      40.433 -14.602   5.484  1.00  0.00     0.018 A 
BRANCH  23  26
HETATM   26  C   UNL     1      43.142 -15.929   3.152  1.00  0.00     0.162 C 
BRANCH  26  27
HETATM   27  N   UNL     1      43.311 -17.246   3.715  1.00  0.00    -0.339 N 
HETATM   28  C   UNL     1      43.914 -18.203   2.936  1.00  0.00     0.316 C 
HETATM   29  N   UNL     1      43.886 -19.429   3.548  1.00  0.00    -0.339 N 
HETATM   30  O   UNL     1      44.399 -17.977   1.837  1.00  0.00    -0.247 OA
HETATM   31  H   UNL     1      43.855 -19.389   4.555  1.00  0.00     0.164 HD
HETATM   32  H   UNL     1      42.563 -17.586   4.299  1.00  0.00     0.164 HD
BRANCH  29  33
HETATM   33  C   UNL     1      44.483 -20.629   2.966  1.00  0.00     0.078 C 
HETATM   34  C   UNL     1      44.815 -21.688   4.017  1.00  0.00     0.032 C 
HETATM   35  C   UNL     1      43.634 -21.208   1.836  1.00  0.00     0.032 C 
ENDBRANCH  29  33
ENDBRANCH  26  27
ENDBRANCH  23  26
ENDBRANCH   1  20
TORSDOF 9
ENDMDL
MODEL 10
REMARK VINA RESULT:      -7.6      3.404      7.044
REMARK  9 active torsions:
REMARK  status: ('A' for Active; 'I' for Inactive)
REMARK    1  A    between atoms: C_3  and  C_4 
REMARK    2  A    between atoms: C_4  and  O_5 
REMARK    3  A    between atoms: C_8  and  C_9 
REMARK    4  A    between atoms: C_9  and  O_10 
REMARK    5  A    between atoms: O_10  and  C_11 
REMARK    6  A    between atoms: C_11  and  C_12 
REMARK    7  A    between atoms: C_15  and  C_16 
REMARK    8  A    between atoms: C_16  and  N_17 
REMARK       I    between atoms: N_17  and  C_18 
REMARK       I    between atoms: C_18  and  N_19 
REMARK    9  A    between atoms: N_19  and  C_20 
ROOT
HETATM    1  C   UNL     1      41.348 -13.021   5.248  1.00  0.00     0.293 C 
HETATM    2  O   UNL     1      40.213 -12.696   5.552  1.00  0.00    -0.259 OA
ENDROOT
BRANCH   1   3
HETATM    3  O   UNL     1      42.156 -12.372   4.373  1.00  0.00    -0.311 OA
BRANCH   3   4
HETATM    4  C   UNL     1      41.708 -12.383   3.007  1.00  0.00     0.239 C 
BRANCH   4   5
HETATM    5  C   UNL     1      41.955 -13.656   2.230  1.00  0.00     0.076 A 
HETATM    6  C   UNL     1      41.462 -13.877   0.948  1.00  0.00     0.073 A 
HETATM    7  C   UNL     1      41.672 -15.131   0.333  1.00  0.00    -0.031 A 
HETATM    8  C   UNL     1      41.086 -15.438  -1.024  1.00  0.00     0.050 C 
HETATM    9  C   UNL     1      42.459 -16.102   1.015  1.00  0.00    -0.000 A 
HETATM   10  C   UNL     1      42.921 -15.778   2.308  1.00  0.00     0.068 A 
HETATM   11  C   UNL     1      42.802 -17.370   0.483  1.00  0.00     0.014 A 
HETATM   12  N   UNL     1      42.654 -14.609   2.904  1.00  0.00    -0.249 NA
HETATM   13  C   UNL     1      43.679 -16.701   3.014  1.00  0.00     0.032 A 
HETATM   14  C   UNL     1      44.006 -17.948   2.482  1.00  0.00     0.002 A 
HETATM   15  C   UNL     1      43.567 -18.284   1.211  1.00  0.00     0.001 A 
BRANCH   6  16
HETATM   16  C   UNL     1      40.681 -12.811   0.296  1.00  0.00     0.295 C 
HETATM   17  O   UNL     1      39.470 -12.709   0.372  1.00  0.00    -0.259 OA
BRANCH  16  18
HETATM   18  O   UNL     1      41.531 -11.991  -0.368  1.00  0.00    -0.322 OA
HETATM   19  C   UNL     1      40.922 -11.285  -1.450  1.00  0.00     0.213 C 
ENDBRANCH  16  18
ENDBRANCH   6  16
ENDBRANCH   4   5
ENDBRANCH   3   4
ENDBRANCH   1   3
BRANCH   1  20
HETATM   20  C   UNL     1      42.081 -14.132   5.918  1.00  0.00     0.039 A 
HETATM   21  C   UNL     1      43.419 -13.917   6.272  1.00  0.00     0.018 A 
HETATM   22  C   UNL     1      44.210 -14.975   6.732  1.00  0.00     0.010 A 
HETATM   23  C   UNL     1      43.676 -16.268   6.830  1.00  0.00    -0.040 A 
HETATM   24  C   UNL     1      42.318 -16.465   6.541  1.00  0.00     0.010 A 
HETATM   25  C   UNL     1      41.525 -15.406   6.086  1.00  0.00     0.018 A 
BRANCH  23  26
HETATM   26  C   UNL     1      44.562 -17.431   7.189  1.00  0.00     0.162 C 
BRANCH  26  27
HETATM   27  N   UNL     1      44.949 -18.204   6.035  1.00  0.00    -0.339 N 
HETATM   28  C   UNL     1      44.393 -19.451   5.884  1.00  0.00     0.316 C 
HETATM   29  N   UNL     1      44.950 -20.116   4.823  1.00  0.00    -0.339 N 
HETATM   30  O   UNL     1      43.523 -19.899   6.616  1.00  0.00    -0.247 OA
HETATM   31  H   UNL     1      45.309 -19.513   4.099  1.00  0.00     0.164 HD
HETATM   32  H   UNL     1      45.913 -18.133   5.748  1.00  0.00     0.164 HD
BRANCH  29  33
HETATM   33  C   UNL     1      44.531 -21.451   4.405  1.00  0.00     0.078 C 
HETATM   34  C   UNL     1      44.570 -21.631   2.888  1.00  0.00     0.032 C 
HETATM   35  C   UNL     1      45.312 -22.553   5.119  1.00  0.00     0.032 C 
ENDBRANCH  29  33
ENDBRANCH  26  27
ENDBRANCH  23  26
ENDBRANCH   1  20
TORSDOF 9
ENDMDL
