MODEL 1
REMARK VINA RESULT:      -9.3      0.000      0.000
REMARK  3 active torsions:
REMARK  status: ('A' for Active; 'I' for Inactive)
REMARK    1  A    between atoms: C_7  and  C_8 
REMARK    2  A    between atoms: N_11  and  C_13 
REMARK    3  A    between atoms: C_13  and  C_14 
ROOT
HETATM    1  C   UNL     1      45.166 -13.320   7.775  1.00  0.00     0.080 A 
HETATM    2  O   UNL     1      44.351 -13.231   8.867  1.00  0.00    -0.302 OA
HETATM    3  C   UNL     1      44.908 -12.304   9.697  1.00  0.00     0.155 A 
HETATM    4  C   UNL     1      44.233 -12.023  10.913  1.00  0.00     0.125 C 
HETATM    5  N   UNL     1      43.662 -11.793  11.896  1.00  0.00    -0.189 NA
HETATM    6  C   UNL     1      46.062 -11.793   9.149  1.00  0.00     0.051 A 
HETATM    7  C   UNL     1      46.232 -12.452   7.905  1.00  0.00     0.038 A 
ENDROOT
BRANCH   1   8
HETATM    8  C   UNL     1      44.757 -14.276   6.717  1.00  0.00     0.299 C 
BRANCH   8   9
HETATM    9  N   UNL     1      43.416 -14.954   6.962  1.00  0.00    -0.065 N 
HETATM   10  C   UNL     1      42.426 -14.672   5.856  1.00  0.00     0.236 C 
HETATM   11  C   UNL     1      41.131 -15.432   6.107  1.00  0.00     0.037 C 
HETATM   12  C   UNL     1      41.381 -16.952   6.156  1.00  0.00     0.024 C 
HETATM   13  C   UNL     1      42.332 -17.194   7.329  1.00  0.00     0.037 C 
HETATM   14  C   UNL     1      43.640 -16.424   7.213  1.00  0.00     0.236 C 
HETATM   15  H   UNL     1      43.042 -14.524   7.819  1.00  0.00     0.280 HD
BRANCH  12  16
HETATM   16  C   UNL     1      41.809 -17.482   4.794  1.00  0.00    -0.026 A 
HETATM   17  C   UNL     1      42.782 -18.481   4.409  1.00  0.00    -0.001 A 
HETATM   18  C   UNL     1      42.865 -18.461   3.010  1.00  0.00     0.045 A 
HETATM   19  C   UNL     1      43.627 -19.394   5.087  1.00  0.00     0.017 A 
HETATM   20  C   UNL     1      43.778 -19.231   2.280  1.00  0.00     0.072 A 
HETATM   21  N   UNL     1      41.898 -17.603   2.551  1.00  0.00    -0.365 N 
HETATM   22  C   UNL     1      44.624 -20.072   2.994  1.00  0.00     0.118 A 
HETATM   23  C   UNL     1      44.548 -20.172   4.373  1.00  0.00     0.043 A 
HETATM   24  F   UNL     1      45.523 -20.810   2.332  1.00  0.00    -0.206 F 
HETATM   25  C   UNL     1      41.255 -17.024   3.606  1.00  0.00     0.096 A 
HETATM   26  H   UNL     1      41.691 -17.439   1.573  1.00  0.00     0.165 HD
ENDBRANCH  12  16
ENDBRANCH   8   9
ENDBRANCH   1   8
TORSDOF 3
ENDMDL
MODEL 2
REMARK VINA RESULT:      -8.6      3.122      5.341
REMARK  3 active torsions:
REMARK  status: ('A' for Active; 'I' for Inactive)
REMARK    1  A    between atoms: C_7  and  C_8 
REMARK    2  A    between atoms: N_11  and  C_13 
REMARK    3  A    between atoms: C_13  and  C_14 
ROOT
HETATM    1  C   UNL     1      40.635 -14.924   4.462  1.00  0.00     0.080 A 
HETATM    2  O   UNL     1      40.769 -16.144   3.864  1.00  0.00    -0.302 OA
HETATM    3  C   UNL     1      40.808 -15.919   2.520  1.00  0.00     0.155 A 
HETATM    4  C   UNL     1      40.952 -17.046   1.670  1.00  0.00     0.125 C 
HETATM    5  N   UNL     1      41.086 -17.975   0.990  1.00  0.00    -0.189 NA
HETATM    6  C   UNL     1      40.709 -14.573   2.250  1.00  0.00     0.051 A 
HETATM    7  C   UNL     1      40.596 -13.927   3.508  1.00  0.00     0.038 A 
ENDROOT
BRANCH   1   8
HETATM    8  C   UNL     1      40.574 -14.914   5.944  1.00  0.00     0.299 C 
BRANCH   8   9
HETATM    9  N   UNL     1      41.802 -15.498   6.631  1.00  0.00    -0.065 N 
HETATM   10  C   UNL     1      41.689 -16.993   6.822  1.00  0.00     0.236 C 
HETATM   11  C   UNL     1      42.967 -17.539   7.440  1.00  0.00     0.037 C 
HETATM   12  C   UNL     1      44.184 -17.258   6.537  1.00  0.00     0.024 C 
HETATM   13  C   UNL     1      44.298 -15.737   6.429  1.00  0.00     0.037 C 
HETATM   14  C   UNL     1      43.040 -15.076   5.881  1.00  0.00     0.236 C 
HETATM   15  H   UNL     1      41.820 -15.075   7.569  1.00  0.00     0.280 HD
BRANCH  12  16
HETATM   16  C   UNL     1      44.094 -18.042   5.234  1.00  0.00    -0.026 A 
HETATM   17  C   UNL     1      44.247 -19.449   4.941  1.00  0.00    -0.001 A 
HETATM   18  C   UNL     1      44.203 -19.590   3.548  1.00  0.00     0.045 A 
HETATM   19  C   UNL     1      44.441 -20.631   5.699  1.00  0.00     0.017 A 
HETATM   20  C   UNL     1      44.414 -20.808   2.888  1.00  0.00     0.072 A 
HETATM   21  N   UNL     1      43.898 -18.363   3.018  1.00  0.00    -0.365 N 
HETATM   22  C   UNL     1      44.655 -21.929   3.673  1.00  0.00     0.118 A 
HETATM   23  C   UNL     1      44.656 -21.858   5.055  1.00  0.00     0.043 A 
HETATM   24  F   UNL     1      44.880 -23.107   3.078  1.00  0.00    -0.206 F 
HETATM   25  C   UNL     1      43.818 -17.436   4.015  1.00  0.00     0.096 A 
HETATM   26  H   UNL     1      43.744 -18.184   2.033  1.00  0.00     0.165 HD
ENDBRANCH  12  16
ENDBRANCH   8   9
ENDBRANCH   1   8
TORSDOF 3
ENDMDL
MODEL 3
REMARK VINA RESULT:      -8.5      2.769      4.008
REMARK  3 active torsions:
REMARK  status: ('A' for Active; 'I' for Inactive)
REMARK    1  A    between atoms: C_7  and  C_8 
REMARK    2  A    between atoms: N_11  and  C_13 
REMARK    3  A    between atoms: C_13  and  C_14 
ROOT
HETATM    1  C   UNL     1      42.545 -14.418   5.317  1.00  0.00     0.080 A 
HETATM    2  O   UNL     1      42.371 -15.552   6.059  1.00  0.00    -0.302 OA
HETATM    3  C   UNL     1      43.459 -15.657   6.875  1.00  0.00     0.155 A 
HETATM    4  C   UNL     1      43.510 -16.765   7.760  1.00  0.00     0.125 C 
HETATM    5  N   UNL     1      43.529 -17.666   8.489  1.00  0.00    -0.189 NA
HETATM    6  C   UNL     1      44.321 -14.604   6.672  1.00  0.00     0.051 A 
HETATM    7  C   UNL     1      43.731 -13.802   5.662  1.00  0.00     0.038 A 
ENDROOT
BRANCH   1   8
HETATM    8  C   UNL     1      41.473 -14.088   4.348  1.00  0.00     0.299 C 
BRANCH   8   9
HETATM    9  N   UNL     1      41.501 -14.914   3.068  1.00  0.00    -0.065 N 
HETATM   10  C   UNL     1      42.909 -15.132   2.564  1.00  0.00     0.236 C 
HETATM   11  C   UNL     1      42.890 -16.024   1.331  1.00  0.00     0.037 C 
HETATM   12  C   UNL     1      42.272 -17.400   1.652  1.00  0.00     0.024 C 
HETATM   13  C   UNL     1      40.832 -17.133   2.091  1.00  0.00     0.037 C 
HETATM   14  C   UNL     1      40.731 -16.192   3.284  1.00  0.00     0.236 C 
HETATM   15  H   UNL     1      41.013 -14.346   2.363  1.00  0.00     0.280 HD
BRANCH  12  16
HETATM   16  C   UNL     1      43.156 -18.189   2.609  1.00  0.00    -0.026 A 
HETATM   17  C   UNL     1      43.597 -19.566   2.603  1.00  0.00    -0.001 A 
HETATM   18  C   UNL     1      44.277 -19.789   3.807  1.00  0.00     0.045 A 
HETATM   19  C   UNL     1      43.481 -20.668   1.719  1.00  0.00     0.017 A 
HETATM   20  C   UNL     1      44.766 -21.042   4.197  1.00  0.00     0.072 A 
HETATM   21  N   UNL     1      44.375 -18.585   4.456  1.00  0.00    -0.365 N 
HETATM   22  C   UNL     1      44.580 -22.104   3.321  1.00  0.00     0.118 A 
HETATM   23  C   UNL     1      43.963 -21.930   2.094  1.00  0.00     0.043 A 
HETATM   24  F   UNL     1      45.017 -23.321   3.667  1.00  0.00    -0.206 F 
HETATM   25  C   UNL     1      43.720 -17.622   3.744  1.00  0.00     0.096 A 
HETATM   26  H   UNL     1      44.870 -18.438   5.326  1.00  0.00     0.165 HD
ENDBRANCH  12  16
ENDBRANCH   8   9
ENDBRANCH   1   8
TORSDOF 3
ENDMDL
MODEL 4
REMARK VINA RESULT:      -8.2      3.700      6.657
REMARK  3 active torsions:
REMARK  status: ('A' for Active; 'I' for Inactive)
REMARK    1  A    between atoms: C_7  and  C_8 
REMARK    2  A    between atoms: N_11  and  C_13 
REMARK    3  A    between atoms: C_13  and  C_14 
ROOT
HETATM    1  C   UNL     1      44.131 -18.559   4.199  1.00  0.00     0.080 A 
HETATM    2  O   UNL     1      44.173 -19.881   3.861  1.00  0.00    -0.302 OA
HETATM    3  C   UNL     1      44.005 -19.945   2.509  1.00  0.00     0.155 A 
HETATM    4  C   UNL     1      44.018 -21.229   1.906  1.00  0.00     0.125 C 
HETATM    5  N   UNL     1      44.048 -22.284   1.426  1.00  0.00    -0.189 NA
HETATM    6  C   UNL     1      43.865 -18.683   1.978  1.00  0.00     0.051 A 
HETATM    7  C   UNL     1      43.945 -17.785   3.072  1.00  0.00     0.038 A 
ENDROOT
BRANCH   1   8
HETATM    8  C   UNL     1      44.298 -18.237   5.637  1.00  0.00     0.299 C 
BRANCH   8   9
HETATM    9  N   UNL     1      43.338 -17.178   6.163  1.00  0.00    -0.065 N 
HETATM   10  C   UNL     1      43.879 -15.778   5.978  1.00  0.00     0.236 C 
HETATM   11  C   UNL     1      42.854 -14.756   6.447  1.00  0.00     0.037 C 
HETATM   12  C   UNL     1      41.543 -14.877   5.645  1.00  0.00     0.024 C 
HETATM   13  C   UNL     1      41.001 -16.281   5.918  1.00  0.00     0.037 C 
HETATM   14  C   UNL     1      41.979 -17.387   5.545  1.00  0.00     0.236 C 
HETATM   15  H   UNL     1      43.272 -17.344   7.177  1.00  0.00     0.280 HD
BRANCH  12  16
HETATM   16  C   UNL     1      41.751 -14.483   4.189  1.00  0.00    -0.026 A 
HETATM   17  C   UNL     1      41.402 -15.143   2.951  1.00  0.00    -0.001 A 
HETATM   18  C   UNL     1      41.965 -14.395   1.909  1.00  0.00     0.045 A 
HETATM   19  C   UNL     1      40.687 -16.311   2.586  1.00  0.00     0.017 A 
HETATM   20  C   UNL     1      41.916 -14.784   0.564  1.00  0.00     0.072 A 
HETATM   21  N   UNL     1      42.507 -13.262   2.460  1.00  0.00    -0.365 N 
HETATM   22  C   UNL     1      41.250 -15.965   0.263  1.00  0.00     0.118 A 
HETATM   23  C   UNL     1      40.629 -16.717   1.246  1.00  0.00     0.043 A 
HETATM   24  F   UNL     1      41.198 -16.380  -1.009  1.00  0.00    -0.206 F 
HETATM   25  C   UNL     1      42.374 -13.299   3.817  1.00  0.00     0.096 A 
HETATM   26  H   UNL     1      42.931 -12.510   1.930  1.00  0.00     0.165 HD
ENDBRANCH  12  16
ENDBRANCH   8   9
ENDBRANCH   1   8
TORSDOF 3
ENDMDL
MODEL 5
REMARK VINA RESULT:      -8.2      2.809      4.356
REMARK  3 active torsions:
REMARK  status: ('A' for Active; 'I' for Inactive)
REMARK    1  A    between atoms: C_7  and  C_8 
REMARK    2  A    between atoms: N_11  and  C_13 
REMARK    3  A    between atoms: C_13  and  C_14 
ROOT
HETATM    1  C   UNL     1      42.118 -12.929   3.482  1.00  0.00     0.080 A 
HETATM    2  O   UNL     1      42.994 -13.805   4.056  1.00  0.00    -0.302 OA
HETATM    3  C   UNL     1      42.942 -13.586   5.401  1.00  0.00     0.155 A 
HETATM    4  C   UNL     1      43.769 -14.388   6.229  1.00  0.00     0.125 C 
HETATM    5  N   UNL     1      44.437 -15.063   6.894  1.00  0.00    -0.189 NA
HETATM    6  C   UNL     1      42.041 -12.588   5.695  1.00  0.00     0.051 A 
HETATM    7  C   UNL     1      41.508 -12.161   4.453  1.00  0.00     0.038 A 
ENDROOT
BRANCH   1   8
HETATM    8  C   UNL     1      41.997 -12.985   2.005  1.00  0.00     0.299 C 
BRANCH   8   9
HETATM    9  N   UNL     1      41.434 -14.294   1.466  1.00  0.00    -0.065 N 
HETATM   10  C   UNL     1      42.523 -15.296   1.158  1.00  0.00     0.236 C 
HETATM   11  C   UNL     1      41.908 -16.610   0.697  1.00  0.00     0.037 C 
HETATM   12  C   UNL     1      40.995 -17.207   1.786  1.00  0.00     0.024 C 
HETATM   13  C   UNL     1      39.875 -16.191   2.014  1.00  0.00     0.037 C 
HETATM   14  C   UNL     1      40.386 -14.814   2.416  1.00  0.00     0.236 C 
HETATM   15  H   UNL     1      40.984 -14.053   0.572  1.00  0.00     0.280 HD
BRANCH  12  16
HETATM   16  C   UNL     1      41.802 -17.637   3.004  1.00  0.00    -0.026 A 
HETATM   17  C   UNL     1      42.870 -18.598   3.165  1.00  0.00    -0.001 A 
HETATM   18  C   UNL     1      43.142 -18.690   4.536  1.00  0.00     0.045 A 
HETATM   19  C   UNL     1      43.632 -19.427   2.304  1.00  0.00     0.017 A 
HETATM   20  C   UNL     1      44.058 -19.598   5.082  1.00  0.00     0.072 A 
HETATM   21  N   UNL     1      42.388 -17.738   5.172  1.00  0.00    -0.365 N 
HETATM   22  C   UNL     1      44.742 -20.428   4.202  1.00  0.00     0.118 A 
HETATM   23  C   UNL     1      44.552 -20.343   2.833  1.00  0.00     0.043 A 
HETATM   24  F   UNL     1      45.612 -21.322   4.688  1.00  0.00    -0.206 F 
HETATM   25  C   UNL     1      41.595 -17.096   4.266  1.00  0.00     0.096 A 
HETATM   26  H   UNL     1      42.428 -17.539   6.164  1.00  0.00     0.165 HD
ENDBRANCH  12  16
ENDBRANCH   8   9
ENDBRANCH   1   8
TORSDOF 3
ENDMDL
MODEL 6
REMARK VINA RESULT:      -8.1      2.832      3.668
REMARK  3 active torsions:
REMARK  status: ('A' for Active; 'I' for Inactive)
REMARK    1  A    between atoms: C_7  and  C_8 
REMARK    2  A    between atoms: N_11  and  C_13 
REMARK    3  A    between atoms: C_13  and  C_14 
ROOT
HETATM    1  C   UNL     1      40.867 -13.321   5.322  1.00  0.00     0.080 A 
HETATM    2  O   UNL     1      41.110 -12.434   6.331  1.00  0.00    -0.302 OA
HETATM    3  C   UNL     1      41.291 -11.215   5.745  1.00  0.00     0.155 A 
HETATM    4  C   UNL     1      41.556 -10.112   6.596  1.00  0.00     0.125 C 
HETATM    5  N   UNL     1      41.754  -9.216   7.305  1.00  0.00    -0.189 NA
HETATM    6  C   UNL     1      41.159 -11.310   4.379  1.00  0.00     0.051 A 
HETATM    7  C   UNL     1      40.885 -12.674   4.103  1.00  0.00     0.038 A 
ENDROOT
BRANCH   1   8
HETATM    8  C   UNL     1      40.631 -14.730   5.721  1.00  0.00     0.299 C 
BRANCH   8   9
HETATM    9  N   UNL     1      41.767 -15.361   6.515  1.00  0.00    -0.065 N 
HETATM   10  C   UNL     1      41.561 -16.845   6.721  1.00  0.00     0.236 C 
HETATM   11  C   UNL     1      42.755 -17.442   7.451  1.00  0.00     0.037 C 
HETATM   12  C   UNL     1      44.054 -17.242   6.644  1.00  0.00     0.024 C 
HETATM   13  C   UNL     1      44.255 -15.731   6.520  1.00  0.00     0.037 C 
HETATM   14  C   UNL     1      43.081 -15.019   5.861  1.00  0.00     0.236 C 
HETATM   15  H   UNL     1      41.732 -14.920   7.444  1.00  0.00     0.280 HD
BRANCH  12  16
HETATM   16  C   UNL     1      44.027 -18.047   5.351  1.00  0.00    -0.026 A 
HETATM   17  C   UNL     1      44.196 -19.460   5.091  1.00  0.00    -0.001 A 
HETATM   18  C   UNL     1      44.219 -19.624   3.699  1.00  0.00     0.045 A 
HETATM   19  C   UNL     1      44.354 -20.628   5.876  1.00  0.00     0.017 A 
HETATM   20  C   UNL     1      44.463 -20.852   3.071  1.00  0.00     0.072 A 
HETATM   21  N   UNL     1      43.939 -18.406   3.134  1.00  0.00    -0.365 N 
HETATM   22  C   UNL     1      44.667 -21.960   3.885  1.00  0.00     0.118 A 
HETATM   23  C   UNL     1      44.600 -21.865   5.265  1.00  0.00     0.043 A 
HETATM   24  F   UNL     1      44.921 -23.147   3.321  1.00  0.00    -0.206 F 
HETATM   25  C   UNL     1      43.811 -17.462   4.111  1.00  0.00     0.096 A 
HETATM   26  H   UNL     1      43.833 -18.243   2.140  1.00  0.00     0.165 HD
ENDBRANCH  12  16
ENDBRANCH   8   9
ENDBRANCH   1   8
TORSDOF 3
ENDMDL
MODEL 7
REMARK VINA RESULT:      -8.0      2.910      4.774
REMARK  3 active torsions:
REMARK  status: ('A' for Active; 'I' for Inactive)
REMARK    1  A    between atoms: C_7  and  C_8 
REMARK    2  A    between atoms: N_11  and  C_13 
REMARK    3  A    between atoms: C_13  and  C_14 
ROOT
HETATM    1  C   UNL     1      42.400 -13.414   3.600  1.00  0.00     0.080 A 
HETATM    2  O   UNL     1      43.449 -13.901   4.327  1.00  0.00    -0.302 OA
HETATM    3  C   UNL     1      43.189 -13.609   5.634  1.00  0.00     0.155 A 
HETATM    4  C   UNL     1      44.142 -14.023   6.599  1.00  0.00     0.125 C 
HETATM    5  N   UNL     1      44.922 -14.383   7.379  1.00  0.00    -0.189 NA
HETATM    6  C   UNL     1      41.987 -12.950   5.754  1.00  0.00     0.051 A 
HETATM    7  C   UNL     1      41.475 -12.823   4.438  1.00  0.00     0.038 A 
ENDROOT
BRANCH   1   8
HETATM    8  C   UNL     1      42.456 -13.620   2.133  1.00  0.00     0.299 C 
BRANCH   8   9
HETATM    9  N   UNL     1      41.997 -14.997   1.670  1.00  0.00    -0.065 N 
HETATM   10  C   UNL     1      43.160 -15.918   1.385  1.00  0.00     0.236 C 
HETATM   11  C   UNL     1      42.651 -17.300   1.001  1.00  0.00     0.037 C 
HETATM   12  C   UNL     1      41.813 -17.917   2.137  1.00  0.00     0.024 C 
HETATM   13  C   UNL     1      40.615 -16.988   2.342  1.00  0.00     0.037 C 
HETATM   14  C   UNL     1      41.014 -15.555   2.667  1.00  0.00     0.236 C 
HETATM   15  H   UNL     1      41.511 -14.839   0.776  1.00  0.00     0.280 HD
BRANCH  12  16
HETATM   16  C   UNL     1      42.675 -18.217   3.356  1.00  0.00    -0.026 A 
HETATM   17  C   UNL     1      42.520 -17.884   4.754  1.00  0.00    -0.001 A 
HETATM   18  C   UNL     1      43.690 -18.289   5.409  1.00  0.00     0.045 A 
HETATM   19  C   UNL     1      41.525 -17.260   5.548  1.00  0.00     0.017 A 
HETATM   20  C   UNL     1      43.942 -18.041   6.765  1.00  0.00     0.072 A 
HETATM   21  N   UNL     1      44.463 -18.962   4.498  1.00  0.00    -0.365 N 
HETATM   22  C   UNL     1      42.959 -17.378   7.489  1.00  0.00     0.118 A 
HETATM   23  C   UNL     1      41.760 -17.003   6.906  1.00  0.00     0.043 A 
HETATM   24  F   UNL     1      43.170 -17.106   8.783  1.00  0.00    -0.206 F 
HETATM   25  C   UNL     1      43.861 -18.935   3.274  1.00  0.00     0.096 A 
HETATM   26  H   UNL     1      45.341 -19.418   4.712  1.00  0.00     0.165 HD
ENDBRANCH  12  16
ENDBRANCH   8   9
ENDBRANCH   1   8
TORSDOF 3
ENDMDL
MODEL 8
REMARK VINA RESULT:      -7.7      4.963      8.428
REMARK  3 active torsions:
REMARK  status: ('A' for Active; 'I' for Inactive)
REMARK    1  A    between atoms: C_7  and  C_8 
REMARK    2  A    between atoms: N_11  and  C_13 
REMARK    3  A    between atoms: C_13  and  C_14 
ROOT
HETATM    1  C   UNL     1      41.327 -14.142  -1.611  1.00  0.00     0.080 A 
HETATM    2  O   UNL     1      40.334 -14.960  -2.068  1.00  0.00    -0.302 OA
HETATM    3  C   UNL     1      40.009 -14.522  -3.319  1.00  0.00     0.155 A 
HETATM    4  C   UNL     1      38.993 -15.224  -4.016  1.00  0.00     0.125 C 
HETATM    5  N   UNL     1      38.173 -15.818  -4.580  1.00  0.00    -0.189 NA
HETATM    6  C   UNL     1      40.785 -13.441  -3.670  1.00  0.00     0.051 A 
HETATM    7  C   UNL     1      41.638 -13.193  -2.565  1.00  0.00     0.038 A 
ENDROOT
BRANCH   1   8
HETATM    8  C   UNL     1      41.853 -14.430  -0.255  1.00  0.00     0.299 C 
BRANCH   8   9
HETATM    9  N   UNL     1      41.290 -15.691   0.387  1.00  0.00    -0.065 N 
HETATM   10  C   UNL     1      42.381 -16.629   0.850  1.00  0.00     0.236 C 
HETATM   11  C   UNL     1      41.771 -17.834   1.551  1.00  0.00     0.037 C 
HETATM   12  C   UNL     1      40.950 -17.402   2.782  1.00  0.00     0.024 C 
HETATM   13  C   UNL     1      39.822 -16.513   2.257  1.00  0.00     0.037 C 
HETATM   14  C   UNL     1      40.322 -15.305   1.476  1.00  0.00     0.236 C 
HETATM   15  H   UNL     1      40.774 -16.174  -0.361  1.00  0.00     0.280 HD
BRANCH  12  16
HETATM   16  C   UNL     1      41.848 -16.818   3.864  1.00  0.00    -0.026 A 
HETATM   17  C   UNL     1      42.974 -17.369   4.586  1.00  0.00    -0.001 A 
HETATM   18  C   UNL     1      43.330 -16.438   5.571  1.00  0.00     0.045 A 
HETATM   19  C   UNL     1      43.728 -18.568   4.534  1.00  0.00     0.017 A 
HETATM   20  C   UNL     1      44.324 -16.672   6.530  1.00  0.00     0.072 A 
HETATM   21  N   UNL     1      42.564 -15.318   5.378  1.00  0.00    -0.365 N 
HETATM   22  C   UNL     1      44.999 -17.885   6.472  1.00  0.00     0.118 A 
HETATM   23  C   UNL     1      44.725 -18.819   5.487  1.00  0.00     0.043 A 
HETATM   24  F   UNL     1      45.943 -18.152   7.383  1.00  0.00    -0.206 F 
HETATM   25  C   UNL     1      41.686 -15.529   4.355  1.00  0.00     0.096 A 
HETATM   26  H   UNL     1      42.651 -14.461   5.911  1.00  0.00     0.165 HD
ENDBRANCH  12  16
ENDBRANCH   8   9
ENDBRANCH   1   8
TORSDOF 3
ENDMDL
MODEL 9
REMARK VINA RESULT:      -7.7      3.373      4.547
REMARK  3 active torsions:
REMARK  status: ('A' for Active; 'I' for Inactive)
REMARK    1  A    between atoms: C_7  and  C_8 
REMARK    2  A    between atoms: N_11  and  C_13 
REMARK    3  A    between atoms: C_13  and  C_14 
ROOT
HETATM    1  C   UNL     1      40.391 -13.489   4.441  1.00  0.00     0.080 A 
HETATM    2  O   UNL     1      41.020 -13.163   5.609  1.00  0.00    -0.302 OA
HETATM    3  C   UNL     1      41.072 -11.801   5.659  1.00  0.00     0.155 A 
HETATM    4  C   UNL     1      41.681 -11.210   6.796  1.00  0.00     0.125 C 
HETATM    5  N   UNL     1      42.167 -10.741   7.738  1.00  0.00    -0.189 NA
HETATM    6  C   UNL     1      40.480 -11.252   4.545  1.00  0.00     0.051 A 
HETATM    7  C   UNL     1      40.039 -12.344   3.755  1.00  0.00     0.038 A 
ENDROOT
BRANCH   1   8
HETATM    8  C   UNL     1      40.211 -14.935   4.165  1.00  0.00     0.299 C 
BRANCH   8   9
HETATM    9  N   UNL     1      40.812 -15.406   2.847  1.00  0.00    -0.065 N 
HETATM   10  C   UNL     1      42.310 -15.211   2.804  1.00  0.00     0.236 C 
HETATM   11  C   UNL     1      42.872 -15.766   1.503  1.00  0.00     0.037 C 
HETATM   12  C   UNL     1      42.577 -17.273   1.370  1.00  0.00     0.024 C 
HETATM   13  C   UNL     1      41.054 -17.413   1.350  1.00  0.00     0.037 C 
HETATM   14  C   UNL     1      40.380 -16.826   2.583  1.00  0.00     0.236 C 
HETATM   15  H   UNL     1      40.407 -14.795   2.125  1.00  0.00     0.280 HD
BRANCH  12  16
HETATM   16  C   UNL     1      43.335 -18.076   2.419  1.00  0.00    -0.026 A 
HETATM   17  C   UNL     1      43.711 -19.471   2.481  1.00  0.00    -0.001 A 
HETATM   18  C   UNL     1      44.270 -19.693   3.746  1.00  0.00     0.045 A 
HETATM   19  C   UNL     1      43.623 -20.589   1.615  1.00  0.00     0.017 A 
HETATM   20  C   UNL     1      44.665 -20.957   4.205  1.00  0.00     0.072 A 
HETATM   21  N   UNL     1      44.366 -18.479   4.375  1.00  0.00    -0.365 N 
HETATM   22  C   UNL     1      44.509 -22.031   3.338  1.00  0.00     0.118 A 
HETATM   23  C   UNL     1      44.012 -21.861   2.057  1.00  0.00     0.043 A 
HETATM   24  F   UNL     1      44.857 -23.257   3.747  1.00  0.00    -0.206 F 
HETATM   25  C   UNL     1      43.822 -17.506   3.588  1.00  0.00     0.096 A 
HETATM   26  H   UNL     1      44.789 -18.332   5.284  1.00  0.00     0.165 HD
ENDBRANCH  12  16
ENDBRANCH   8   9
ENDBRANCH   1   8
TORSDOF 3
ENDMDL
MODEL 10
REMARK VINA RESULT:      -7.6      3.229      5.387
REMARK  3 active torsions:
REMARK  status: ('A' for Active; 'I' for Inactive)
REMARK    1  A    between atoms: C_7  and  C_8 
REMARK    2  A    between atoms: N_11  and  C_13 
REMARK    3  A    between atoms: C_13  and  C_14 
ROOT
HETATM    1  C   UNL     1      40.595 -14.839   3.885  1.00  0.00     0.080 A 
HETATM    2  O   UNL     1      41.195 -13.735   3.350  1.00  0.00    -0.302 OA
HETATM    3  C   UNL     1      41.378 -13.992   2.023  1.00  0.00     0.155 A 
HETATM    4  C   UNL     1      41.986 -12.980   1.237  1.00  0.00     0.125 C 
HETATM    5  N   UNL     1      42.469 -12.137   0.604  1.00  0.00    -0.189 NA
HETATM    6  C   UNL     1      40.898 -15.240   1.701  1.00  0.00     0.051 A 
HETATM    7  C   UNL     1      40.391 -15.790   2.905  1.00  0.00     0.038 A 
ENDROOT
BRANCH   1   8
HETATM    8  C   UNL     1      40.287 -14.791   5.335  1.00  0.00     0.299 C 
BRANCH   8   9
HETATM    9  N   UNL     1      41.422 -15.257   6.237  1.00  0.00    -0.065 N 
HETATM   10  C   UNL     1      41.285 -16.714   6.615  1.00  0.00     0.236 C 
HETATM   11  C   UNL     1      42.479 -17.152   7.451  1.00  0.00     0.037 C 
HETATM   12  C   UNL     1      43.797 -16.976   6.670  1.00  0.00     0.024 C 
HETATM   13  C   UNL     1      43.924 -15.482   6.371  1.00  0.00     0.037 C 
HETATM   14  C   UNL     1      42.742 -14.922   5.591  1.00  0.00     0.236 C 
HETATM   15  H   UNL     1      41.327 -14.711   7.104  1.00  0.00     0.280 HD
BRANCH  12  16
HETATM   16  C   UNL     1      43.864 -17.931   5.485  1.00  0.00    -0.026 A 
HETATM   17  C   UNL     1      43.898 -17.697   4.059  1.00  0.00    -0.001 A 
HETATM   18  C   UNL     1      43.811 -18.948   3.432  1.00  0.00     0.045 A 
HETATM   19  C   UNL     1      43.971 -16.562   3.214  1.00  0.00     0.017 A 
HETATM   20  C   UNL     1      43.719 -19.111   2.044  1.00  0.00     0.072 A 
HETATM   21  N   UNL     1      43.865 -19.906   4.412  1.00  0.00    -0.365 N 
HETATM   22  C   UNL     1      43.740 -17.964   1.261  1.00  0.00     0.118 A 
HETATM   23  C   UNL     1      43.879 -16.706   1.823  1.00  0.00     0.043 A 
HETATM   24  F   UNL     1      43.635 -18.078  -0.069  1.00  0.00    -0.206 F 
HETATM   25  C   UNL     1      43.909 -19.310   5.638  1.00  0.00     0.096 A 
HETATM   26  H   UNL     1      43.881 -20.904   4.241  1.00  0.00     0.165 HD
ENDBRANCH  12  16
ENDBRANCH   8   9
ENDBRANCH   1   8
TORSDOF 3
ENDMDL
