MODEL 1
REMARK VINA RESULT:      -8.0      0.000      0.000
REMARK  9 active torsions:
REMARK  status: ('A' for Active; 'I' for Inactive)
REMARK    1  A    between atoms: C_2  and  N_3 
REMARK    2  A    between atoms: C_4  and  S_5 
REMARK    3  A    between atoms: S_5  and  C_6 
REMARK    4  A    between atoms: C_6  and  C_7 
REMARK       I    between atoms: C_7  and  N_8 
REMARK    5  A    between atoms: N_8  and  C_9 
REMARK    6  A    between atoms: C_9  and  C_10 
REMARK    7  A    between atoms: C_10  and  C_11 
REMARK    8  A    between atoms: C_20  and  C_21 
REMARK    9  A    between atoms: C_24  and  O_25 
ROOT
HETATM    1  N   UNL     1      41.932 -14.853   0.935  1.00  0.00    -0.308 N 
HETATM    2  C   UNL     1      42.499 -13.944   1.795  1.00  0.00     0.192 A 
HETATM    3  N   UNL     1      42.334 -12.728   1.341  1.00  0.00    -0.122 NA
HETATM    4  N   UNL     1      41.614 -12.820   0.187  1.00  0.00    -0.128 NA
HETATM    5  C   UNL     1      41.353 -14.094  -0.074  1.00  0.00     0.164 A 
ENDROOT
BRANCH   2   6
HETATM    6  S   UNL     1      43.297 -14.346   3.277  1.00  0.00    -0.081 SA
BRANCH   6   7
HETATM    7  C   UNL     1      41.882 -14.506   4.401  1.00  0.00     0.185 C 
BRANCH   7   8
HETATM    8  C   UNL     1      41.912 -15.815   5.166  1.00  0.00     0.227 C 
HETATM    9  N   UNL     1      42.995 -16.627   4.900  1.00  0.00    -0.360 N 
HETATM   10  H   UNL     1      43.689 -16.301   4.225  1.00  0.00     0.162 HD
HETATM   11  O   UNL     1      41.004 -16.141   5.927  1.00  0.00    -0.273 OA
BRANCH   9  12
HETATM   12  C   UNL     1      43.051 -17.994   5.374  1.00  0.00     0.127 C 
BRANCH  12  13
HETATM   13  C   UNL     1      44.381 -18.670   5.045  1.00  0.00     0.058 C 
BRANCH  13  14
HETATM   14  C   UNL     1      44.217 -19.738   3.993  1.00  0.00    -0.057 A 
HETATM   15  C   UNL     1      44.697 -21.035   4.220  1.00  0.00     0.007 A 
HETATM   16  C   UNL     1      44.576 -22.018   3.237  1.00  0.00     0.001 A 
HETATM   17  C   UNL     1      43.977 -21.714   2.017  1.00  0.00     0.000 A 
HETATM   18  C   UNL     1      43.499 -20.427   1.779  1.00  0.00     0.001 A 
HETATM   19  C   UNL     1      43.619 -19.443   2.761  1.00  0.00     0.007 A 
ENDBRANCH  13  14
ENDBRANCH  12  13
ENDBRANCH   9  12
ENDBRANCH   7   8
ENDBRANCH   6   7
ENDBRANCH   2   6
BRANCH   1  20
HETATM   20  C   UNL     1      41.958 -16.292   1.086  1.00  0.00     0.128 C 
HETATM   21  C   UNL     1      40.687 -16.866   1.685  1.00  0.00     0.027 C 
ENDBRANCH   1  20
BRANCH   5  22
HETATM   22  C   UNL     1      40.521 -14.513  -1.217  1.00  0.00     0.012 A 
HETATM   23  C   UNL     1      39.228 -13.972  -1.315  1.00  0.00     0.018 A 
HETATM   24  C   UNL     1      38.384 -14.285  -2.386  1.00  0.00     0.037 A 
HETATM   25  C   UNL     1      38.807 -15.150  -3.392  1.00  0.00     0.068 A 
HETATM   26  C   UNL     1      40.087 -15.693  -3.314  1.00  0.00     0.037 A 
HETATM   27  C   UNL     1      40.939 -15.364  -2.245  1.00  0.00     0.018 A 
BRANCH  25  28
HETATM   28  O   UNL     1      37.893 -15.369  -4.384  1.00  0.00    -0.356 OA
HETATM   29  C   UNL     1      36.716 -14.572  -4.365  1.00  0.00     0.210 C 
ENDBRANCH  25  28
ENDBRANCH   5  22
TORSDOF 9
ENDMDL
MODEL 2
REMARK VINA RESULT:      -7.9      2.594      6.876
REMARK  9 active torsions:
REMARK  status: ('A' for Active; 'I' for Inactive)
REMARK    1  A    between atoms: C_2  and  N_3 
REMARK    2  A    between atoms: C_4  and  S_5 
REMARK    3  A    between atoms: S_5  and  C_6 
REMARK    4  A    between atoms: C_6  and  C_7 
REMARK       I    between atoms: C_7  and  N_8 
REMARK    5  A    between atoms: N_8  and  C_9 
REMARK    6  A    between atoms: C_9  and  C_10 
REMARK    7  A    between atoms: C_10  and  C_11 
REMARK    8  A    between atoms: C_20  and  C_21 
REMARK    9  A    between atoms: C_24  and  O_25 
ROOT
HETATM    1  N   UNL     1      41.199 -13.967   3.641  1.00  0.00    -0.308 N 
HETATM    2  C   UNL     1      41.555 -13.287   2.502  1.00  0.00     0.192 A 
HETATM    3  N   UNL     1      42.857 -13.258   2.380  1.00  0.00    -0.122 NA
HETATM    4  N   UNL     1      43.378 -13.962   3.425  1.00  0.00    -0.128 NA
HETATM    5  C   UNL     1      42.394 -14.406   4.197  1.00  0.00     0.164 A 
ENDROOT
BRANCH   2   6
HETATM    6  S   UNL     1      40.441 -12.586   1.379  1.00  0.00    -0.081 SA
BRANCH   6   7
HETATM    7  C   UNL     1      39.632 -14.071   0.721  1.00  0.00     0.185 C 
BRANCH   7   8
HETATM    8  C   UNL     1      40.638 -15.117   0.282  1.00  0.00     0.227 C 
HETATM    9  N   UNL     1      40.625 -16.287   1.013  1.00  0.00    -0.360 N 
HETATM   10  H   UNL     1      39.956 -16.371   1.779  1.00  0.00     0.162 HD
HETATM   11  O   UNL     1      41.438 -14.906  -0.627  1.00  0.00    -0.273 OA
BRANCH   9  12
HETATM   12  C   UNL     1      41.666 -17.283   0.865  1.00  0.00     0.127 C 
BRANCH  12  13
HETATM   13  C   UNL     1      42.904 -16.960   1.700  1.00  0.00     0.058 C 
BRANCH  13  14
HETATM   14  C   UNL     1      43.471 -18.194   2.356  1.00  0.00    -0.057 A 
HETATM   15  C   UNL     1      43.520 -19.408   1.656  1.00  0.00     0.007 A 
HETATM   16  C   UNL     1      44.013 -20.560   2.270  1.00  0.00     0.001 A 
HETATM   17  C   UNL     1      44.459 -20.511   3.589  1.00  0.00     0.000 A 
HETATM   18  C   UNL     1      44.411 -19.311   4.295  1.00  0.00     0.001 A 
HETATM   19  C   UNL     1      43.918 -18.157   3.683  1.00  0.00     0.007 A 
ENDBRANCH  13  14
ENDBRANCH  12  13
ENDBRANCH   9  12
ENDBRANCH   7   8
ENDBRANCH   6   7
ENDBRANCH   2   6
BRANCH   1  20
HETATM   20  C   UNL     1      39.850 -14.160   4.126  1.00  0.00     0.128 C 
HETATM   21  C   UNL     1      39.480 -13.253   5.285  1.00  0.00     0.027 C 
ENDBRANCH   1  20
BRANCH   5  22
HETATM   22  C   UNL     1      42.636 -15.269   5.367  1.00  0.00     0.012 A 
HETATM   23  C   UNL     1      43.809 -15.050   6.109  1.00  0.00     0.018 A 
HETATM   24  C   UNL     1      44.100 -15.798   7.255  1.00  0.00     0.037 A 
HETATM   25  C   UNL     1      43.227 -16.789   7.694  1.00  0.00     0.068 A 
HETATM   26  C   UNL     1      42.056 -17.018   6.975  1.00  0.00     0.037 A 
HETATM   27  C   UNL     1      41.759 -16.255   5.833  1.00  0.00     0.018 A 
BRANCH  25  28
HETATM   28  O   UNL     1      43.621 -17.441   8.828  1.00  0.00    -0.356 OA
HETATM   29  C   UNL     1      44.339 -18.657   8.657  1.00  0.00     0.210 C 
ENDBRANCH  25  28
ENDBRANCH   5  22
TORSDOF 9
ENDMDL
MODEL 3
REMARK VINA RESULT:      -7.9      3.274      6.057
REMARK  9 active torsions:
REMARK  status: ('A' for Active; 'I' for Inactive)
REMARK    1  A    between atoms: C_2  and  N_3 
REMARK    2  A    between atoms: C_4  and  S_5 
REMARK    3  A    between atoms: S_5  and  C_6 
REMARK    4  A    between atoms: C_6  and  C_7 
REMARK       I    between atoms: C_7  and  N_8 
REMARK    5  A    between atoms: N_8  and  C_9 
REMARK    6  A    between atoms: C_9  and  C_10 
REMARK    7  A    between atoms: C_10  and  C_11 
REMARK    8  A    between atoms: C_20  and  C_21 
REMARK    9  A    between atoms: C_24  and  O_25 
ROOT
HETATM    1  N   UNL     1      41.923 -14.720   1.784  1.00  0.00    -0.308 N 
HETATM    2  C   UNL     1      42.109 -13.376   1.999  1.00  0.00     0.192 A 
HETATM    3  N   UNL     1      43.170 -13.178   2.737  1.00  0.00    -0.122 NA
HETATM    4  N   UNL     1      43.726 -14.398   2.984  1.00  0.00    -0.128 NA
HETATM    5  C   UNL     1      42.993 -15.345   2.412  1.00  0.00     0.164 A 
ENDROOT
BRANCH   2   6
HETATM    6  S   UNL     1      41.096 -12.123   1.367  1.00  0.00    -0.081 SA
BRANCH   6   7
HETATM    7  C   UNL     1      40.767 -11.154   2.865  1.00  0.00     0.185 C 
BRANCH   7   8
HETATM    8  C   UNL     1      40.057 -11.974   3.925  1.00  0.00     0.227 C 
HETATM    9  N   UNL     1      40.870 -12.491   4.910  1.00  0.00    -0.360 N 
HETATM   10  H   UNL     1      41.871 -12.292   4.865  1.00  0.00     0.162 HD
HETATM   11  O   UNL     1      38.849 -12.197   3.870  1.00  0.00    -0.273 OA
BRANCH   9  12
HETATM   12  C   UNL     1      40.383 -13.472   5.857  1.00  0.00     0.127 C 
BRANCH  12  13
HETATM   13  C   UNL     1      40.604 -14.906   5.378  1.00  0.00     0.058 C 
BRANCH  13  14
HETATM   14  C   UNL     1      41.710 -15.585   6.146  1.00  0.00    -0.057 A 
HETATM   15  C   UNL     1      42.956 -14.959   6.296  1.00  0.00     0.007 A 
HETATM   16  C   UNL     1      43.992 -15.598   6.978  1.00  0.00     0.001 A 
HETATM   17  C   UNL     1      43.795 -16.869   7.514  1.00  0.00     0.000 A 
HETATM   18  C   UNL     1      42.562 -17.501   7.368  1.00  0.00     0.001 A 
HETATM   19  C   UNL     1      41.524 -16.864   6.685  1.00  0.00     0.007 A 
ENDBRANCH  13  14
ENDBRANCH  12  13
ENDBRANCH   9  12
ENDBRANCH   7   8
ENDBRANCH   6   7
ENDBRANCH   2   6
BRANCH   1  20
HETATM   20  C   UNL     1      40.828 -15.318   1.051  1.00  0.00     0.128 C 
HETATM   21  C   UNL     1      39.609 -15.611   1.906  1.00  0.00     0.027 C 
ENDBRANCH   1  20
BRANCH   5  22
HETATM   22  C   UNL     1      43.381 -16.766   2.434  1.00  0.00     0.012 A 
HETATM   23  C   UNL     1      43.511 -17.388   3.688  1.00  0.00     0.018 A 
HETATM   24  C   UNL     1      43.840 -18.743   3.803  1.00  0.00     0.037 A 
HETATM   25  C   UNL     1      44.049 -19.519   2.666  1.00  0.00     0.068 A 
HETATM   26  C   UNL     1      43.920 -18.923   1.414  1.00  0.00     0.037 A 
HETATM   27  C   UNL     1      43.575 -17.565   1.302  1.00  0.00     0.018 A 
BRANCH  25  28
HETATM   28  O   UNL     1      44.356 -20.827   2.912  1.00  0.00    -0.356 OA
HETATM   29  C   UNL     1      44.007 -21.772   1.908  1.00  0.00     0.210 C 
ENDBRANCH  25  28
ENDBRANCH   5  22
TORSDOF 9
ENDMDL
MODEL 4
REMARK VINA RESULT:      -7.8      1.794      2.712
REMARK  9 active torsions:
REMARK  status: ('A' for Active; 'I' for Inactive)
REMARK    1  A    between atoms: C_2  and  N_3 
REMARK    2  A    between atoms: C_4  and  S_5 
REMARK    3  A    between atoms: S_5  and  C_6 
REMARK    4  A    between atoms: C_6  and  C_7 
REMARK       I    between atoms: C_7  and  N_8 
REMARK    5  A    between atoms: N_8  and  C_9 
REMARK    6  A    between atoms: C_9  and  C_10 
REMARK    7  A    between atoms: C_10  and  C_11 
REMARK    8  A    between atoms: C_20  and  C_21 
REMARK    9  A    between atoms: C_24  and  O_25 
ROOT
HETATM    1  N   UNL     1      41.144 -14.891   3.044  1.00  0.00    -0.308 N 
HETATM    2  C   UNL     1      41.926 -15.146   4.145  1.00  0.00     0.192 A 
HETATM    3  N   UNL     1      43.088 -15.617   3.774  1.00  0.00    -0.122 NA
HETATM    4  N   UNL     1      43.102 -15.639   2.411  1.00  0.00    -0.128 NA
HETATM    5  C   UNL     1      41.939 -15.198   1.948  1.00  0.00     0.164 A 
ENDROOT
BRANCH   2   6
HETATM    6  S   UNL     1      41.450 -14.864   5.784  1.00  0.00    -0.081 SA
BRANCH   6   7
HETATM    7  C   UNL     1      41.010 -16.544   6.311  1.00  0.00     0.185 C 
BRANCH   7   8
HETATM    8  C   UNL     1      42.225 -17.333   6.758  1.00  0.00     0.227 C 
HETATM    9  N   UNL     1      42.724 -18.220   5.827  1.00  0.00    -0.360 N 
HETATM   10  H   UNL     1      42.258 -18.283   4.921  1.00  0.00     0.162 HD
HETATM   11  O   UNL     1      42.691 -17.220   7.890  1.00  0.00    -0.273 OA
BRANCH   9  12
HETATM   12  C   UNL     1      43.731 -19.200   6.179  1.00  0.00     0.127 C 
BRANCH  12  13
HETATM   13  C   UNL     1      44.879 -19.243   5.171  1.00  0.00     0.058 C 
BRANCH  13  14
HETATM   14  C   UNL     1      44.556 -20.133   3.998  1.00  0.00    -0.057 A 
HETATM   15  C   UNL     1      43.961 -19.600   2.847  1.00  0.00     0.007 A 
HETATM   16  C   UNL     1      43.631 -20.426   1.771  1.00  0.00     0.001 A 
HETATM   17  C   UNL     1      43.890 -21.793   1.838  1.00  0.00     0.000 A 
HETATM   18  C   UNL     1      44.478 -22.335   2.979  1.00  0.00     0.001 A 
HETATM   19  C   UNL     1      44.809 -21.510   4.055  1.00  0.00     0.007 A 
ENDBRANCH  13  14
ENDBRANCH  12  13
ENDBRANCH   9  12
ENDBRANCH   7   8
ENDBRANCH   6   7
ENDBRANCH   2   6
BRANCH   1  20
HETATM   20  C   UNL     1      39.780 -14.407   3.068  1.00  0.00     0.128 C 
HETATM   21  C   UNL     1      39.665 -12.899   2.935  1.00  0.00     0.027 C 
ENDBRANCH   1  20
BRANCH   5  22
HETATM   22  C   UNL     1      41.675 -15.029   0.508  1.00  0.00     0.012 A 
HETATM   23  C   UNL     1      41.359 -16.178  -0.237  1.00  0.00     0.018 A 
HETATM   24  C   UNL     1      41.058 -16.106  -1.602  1.00  0.00     0.037 A 
HETATM   25  C   UNL     1      41.064 -14.882  -2.264  1.00  0.00     0.068 A 
HETATM   26  C   UNL     1      41.370 -13.730  -1.542  1.00  0.00     0.037 A 
HETATM   27  C   UNL     1      41.658 -13.804  -0.168  1.00  0.00     0.018 A 
BRANCH  25  28
HETATM   28  O   UNL     1      40.747 -14.944  -3.591  1.00  0.00    -0.356 OA
HETATM   29  C   UNL     1      39.421 -15.340  -3.920  1.00  0.00     0.210 C 
ENDBRANCH  25  28
ENDBRANCH   5  22
TORSDOF 9
ENDMDL
MODEL 5
REMARK VINA RESULT:      -7.6      6.140      9.897
REMARK  9 active torsions:
REMARK  status: ('A' for Active; 'I' for Inactive)
REMARK    1  A    between atoms: C_2  and  N_3 
REMARK    2  A    between atoms: C_4  and  S_5 
REMARK    3  A    between atoms: S_5  and  C_6 
REMARK    4  A    between atoms: C_6  and  C_7 
REMARK       I    between atoms: C_7  and  N_8 
REMARK    5  A    between atoms: N_8  and  C_9 
REMARK    6  A    between atoms: C_9  and  C_10 
REMARK    7  A    between atoms: C_10  and  C_11 
REMARK    8  A    between atoms: C_20  and  C_21 
REMARK    9  A    between atoms: C_24  and  O_25 
ROOT
HETATM    1  N   UNL     1      43.510 -15.601   5.462  1.00  0.00    -0.308 N 
HETATM    2  C   UNL     1      43.885 -14.998   6.637  1.00  0.00     0.192 A 
HETATM    3  N   UNL     1      44.411 -15.878   7.450  1.00  0.00    -0.122 NA
HETATM    4  N   UNL     1      44.428 -17.074   6.797  1.00  0.00    -0.128 NA
HETATM    5  C   UNL     1      43.895 -16.930   5.590  1.00  0.00     0.164 A 
ENDROOT
BRANCH   2   6
HETATM    6  S   UNL     1      43.706 -13.313   6.986  1.00  0.00    -0.081 SA
BRANCH   6   7
HETATM    7  C   UNL     1      45.086 -13.047   8.134  1.00  0.00     0.185 C 
BRANCH   7   8
HETATM    8  C   UNL     1      44.914 -11.775   8.942  1.00  0.00     0.227 C 
HETATM    9  N   UNL     1      43.699 -11.644   9.580  1.00  0.00    -0.360 N 
HETATM   10  H   UNL     1      43.013 -12.393   9.473  1.00  0.00     0.162 HD
HETATM   11  O   UNL     1      45.783 -10.906   8.975  1.00  0.00    -0.273 OA
BRANCH   9  12
HETATM   12  C   UNL     1      43.298 -10.397  10.198  1.00  0.00     0.127 C 
BRANCH  12  13
HETATM   13  C   UNL     1      44.068 -10.113  11.487  1.00  0.00     0.058 C 
BRANCH  13  14
HETATM   14  C   UNL     1      43.152 -10.071  12.684  1.00  0.00    -0.057 A 
HETATM   15  C   UNL     1      41.951 -10.794  12.682  1.00  0.00     0.007 A 
HETATM   16  C   UNL     1      41.085 -10.733  13.775  1.00  0.00     0.001 A 
HETATM   17  C   UNL     1      41.409  -9.946  14.878  1.00  0.00     0.000 A 
HETATM   18  C   UNL     1      42.598  -9.220  14.889  1.00  0.00     0.001 A 
HETATM   19  C   UNL     1      43.465  -9.280  13.797  1.00  0.00     0.007 A 
ENDBRANCH  13  14
ENDBRANCH  12  13
ENDBRANCH   9  12
ENDBRANCH   7   8
ENDBRANCH   6   7
ENDBRANCH   2   6
BRANCH   1  20
HETATM   20  C   UNL     1      42.853 -14.952   4.348  1.00  0.00     0.128 C 
HETATM   21  C   UNL     1      43.808 -14.259   3.394  1.00  0.00     0.027 C 
ENDBRANCH   1  20
BRANCH   5  22
HETATM   22  C   UNL     1      43.842 -18.031   4.612  1.00  0.00     0.012 A 
HETATM   23  C   UNL     1      43.022 -17.863   3.483  1.00  0.00     0.018 A 
HETATM   24  C   UNL     1      42.940 -18.841   2.486  1.00  0.00     0.037 A 
HETATM   25  C   UNL     1      43.676 -20.019   2.588  1.00  0.00     0.068 A 
HETATM   26  C   UNL     1      44.499 -20.202   3.697  1.00  0.00     0.037 A 
HETATM   27  C   UNL     1      44.590 -19.211   4.690  1.00  0.00     0.018 A 
BRANCH  25  28
HETATM   28  O   UNL     1      43.515 -20.889   1.548  1.00  0.00    -0.356 OA
HETATM   29  C   UNL     1      44.305 -22.072   1.566  1.00  0.00     0.210 C 
ENDBRANCH  25  28
ENDBRANCH   5  22
TORSDOF 9
ENDMDL
MODEL 6
REMARK VINA RESULT:      -7.5      3.662      5.962
REMARK  9 active torsions:
REMARK  status: ('A' for Active; 'I' for Inactive)
REMARK    1  A    between atoms: C_2  and  N_3 
REMARK    2  A    between atoms: C_4  and  S_5 
REMARK    3  A    between atoms: S_5  and  C_6 
REMARK    4  A    between atoms: C_6  and  C_7 
REMARK       I    between atoms: C_7  and  N_8 
REMARK    5  A    between atoms: N_8  and  C_9 
REMARK    6  A    between atoms: C_9  and  C_10 
REMARK    7  A    between atoms: C_10  and  C_11 
REMARK    8  A    between atoms: C_20  and  C_21 
REMARK    9  A    between atoms: C_24  and  O_25 
ROOT
HETATM    1  N   UNL     1      41.064 -14.410   1.763  1.00  0.00    -0.308 N 
HETATM    2  C   UNL     1      39.780 -13.923   1.730  1.00  0.00     0.192 A 
HETATM    3  N   UNL     1      38.921 -14.908   1.764  1.00  0.00    -0.122 NA
HETATM    4  N   UNL     1      39.634 -16.066   1.864  1.00  0.00    -0.128 NA
HETATM    5  C   UNL     1      40.932 -15.789   1.872  1.00  0.00     0.164 A 
ENDROOT
BRANCH   2   6
HETATM    6  S   UNL     1      39.359 -12.245   1.671  1.00  0.00    -0.081 SA
BRANCH   6   7
HETATM    7  C   UNL     1      38.803 -11.968   3.375  1.00  0.00     0.185 C 
BRANCH   7   8
HETATM    8  C   UNL     1      39.844 -12.403   4.389  1.00  0.00     0.227 C 
HETATM    9  N   UNL     1      39.696 -13.687   4.869  1.00  0.00    -0.360 N 
HETATM   10  H   UNL     1      38.918 -14.247   4.518  1.00  0.00     0.162 HD
HETATM   11  O   UNL     1      40.722 -11.638   4.785  1.00  0.00    -0.273 OA
BRANCH   9  12
HETATM   12  C   UNL     1      40.466 -14.167   5.997  1.00  0.00     0.127 C 
BRANCH  12  13
HETATM   13  C   UNL     1      40.504 -15.693   6.070  1.00  0.00     0.058 C 
BRANCH  13  14
HETATM   14  C   UNL     1      41.877 -16.198   6.432  1.00  0.00    -0.057 A 
HETATM   15  C   UNL     1      43.012 -15.418   6.169  1.00  0.00     0.007 A 
HETATM   16  C   UNL     1      44.287 -15.896   6.473  1.00  0.00     0.001 A 
HETATM   17  C   UNL     1      44.442 -17.159   7.041  1.00  0.00     0.000 A 
HETATM   18  C   UNL     1      43.321 -17.944   7.303  1.00  0.00     0.001 A 
HETATM   19  C   UNL     1      42.045 -17.468   6.999  1.00  0.00     0.007 A 
ENDBRANCH  13  14
ENDBRANCH  12  13
ENDBRANCH   9  12
ENDBRANCH   7   8
ENDBRANCH   6   7
ENDBRANCH   2   6
BRANCH   1  20
HETATM   20  C   UNL     1      42.273 -13.618   1.694  1.00  0.00     0.128 C 
HETATM   21  C   UNL     1      43.048 -13.571   2.998  1.00  0.00     0.027 C 
ENDBRANCH   1  20
BRANCH   5  22
HETATM   22  C   UNL     1      41.961 -16.829   2.050  1.00  0.00     0.012 A 
HETATM   23  C   UNL     1      41.949 -17.561   3.250  1.00  0.00     0.018 A 
HETATM   24  C   UNL     1      42.865 -18.591   3.488  1.00  0.00     0.037 A 
HETATM   25  C   UNL     1      43.822 -18.921   2.533  1.00  0.00     0.068 A 
HETATM   26  C   UNL     1      43.848 -18.210   1.335  1.00  0.00     0.037 A 
HETATM   27  C   UNL     1      42.916 -17.186   1.093  1.00  0.00     0.018 A 
BRANCH  25  28
HETATM   28  O   UNL     1      44.653 -19.948   2.882  1.00  0.00    -0.356 OA
HETATM   29  C   UNL     1      44.801 -20.216   4.271  1.00  0.00     0.210 C 
ENDBRANCH  25  28
ENDBRANCH   5  22
TORSDOF 9
ENDMDL
MODEL 7
REMARK VINA RESULT:      -7.5      2.602      7.086
REMARK  9 active torsions:
REMARK  status: ('A' for Active; 'I' for Inactive)
REMARK    1  A    between atoms: C_2  and  N_3 
REMARK    2  A    between atoms: C_4  and  S_5 
REMARK    3  A    between atoms: S_5  and  C_6 
REMARK    4  A    between atoms: C_6  and  C_7 
REMARK       I    between atoms: C_7  and  N_8 
REMARK    5  A    between atoms: N_8  and  C_9 
REMARK    6  A    between atoms: C_9  and  C_10 
REMARK    7  A    between atoms: C_10  and  C_11 
REMARK    8  A    between atoms: C_20  and  C_21 
REMARK    9  A    between atoms: C_24  and  O_25 
ROOT
HETATM    1  N   UNL     1      42.711 -15.632   4.776  1.00  0.00    -0.308 N 
HETATM    2  C   UNL     1      42.638 -14.310   4.408  1.00  0.00     0.192 A 
HETATM    3  N   UNL     1      43.243 -14.126   3.263  1.00  0.00    -0.122 NA
HETATM    4  N   UNL     1      43.689 -15.342   2.838  1.00  0.00    -0.128 NA
HETATM    5  C   UNL     1      43.373 -16.269   3.734  1.00  0.00     0.164 A 
ENDROOT
BRANCH   2   6
HETATM    6  S   UNL     1      41.842 -13.072   5.317  1.00  0.00    -0.081 SA
BRANCH   6   7
HETATM    7  C   UNL     1      40.102 -13.494   5.029  1.00  0.00     0.185 C 
BRANCH   7   8
HETATM    8  C   UNL     1      39.789 -13.631   3.551  1.00  0.00     0.227 C 
HETATM    9  N   UNL     1      39.494 -14.911   3.130  1.00  0.00    -0.360 N 
HETATM   10  H   UNL     1      39.502 -15.662   3.822  1.00  0.00     0.162 HD
HETATM   11  O   UNL     1      39.849 -12.672   2.784  1.00  0.00    -0.273 OA
BRANCH   9  12
HETATM   12  C   UNL     1      39.397 -15.241   1.723  1.00  0.00     0.127 C 
BRANCH  12  13
HETATM   13  C   UNL     1      40.710 -15.779   1.159  1.00  0.00     0.058 C 
BRANCH  13  14
HETATM   14  C   UNL     1      41.100 -15.071  -0.114  1.00  0.00    -0.057 A 
HETATM   15  C   UNL     1      41.623 -13.771  -0.070  1.00  0.00     0.007 A 
HETATM   16  C   UNL     1      41.955 -13.100  -1.248  1.00  0.00     0.001 A 
HETATM   17  C   UNL     1      41.765 -13.720  -2.481  1.00  0.00     0.000 A 
HETATM   18  C   UNL     1      41.242 -15.011  -2.537  1.00  0.00     0.001 A 
HETATM   19  C   UNL     1      40.910 -15.683  -1.360  1.00  0.00     0.007 A 
ENDBRANCH  13  14
ENDBRANCH  12  13
ENDBRANCH   9  12
ENDBRANCH   7   8
ENDBRANCH   6   7
ENDBRANCH   2   6
BRANCH   1  20
HETATM   20  C   UNL     1      42.194 -16.200   6.003  1.00  0.00     0.128 C 
HETATM   21  C   UNL     1      40.914 -16.993   5.817  1.00  0.00     0.027 C 
ENDBRANCH   1  20
BRANCH   5  22
HETATM   22  C   UNL     1      43.652 -17.700   3.522  1.00  0.00     0.012 A 
HETATM   23  C   UNL     1      43.344 -18.247   2.264  1.00  0.00     0.018 A 
HETATM   24  C   UNL     1      43.610 -19.587   1.963  1.00  0.00     0.037 A 
HETATM   25  C   UNL     1      44.192 -20.423   2.912  1.00  0.00     0.068 A 
HETATM   26  C   UNL     1      44.510 -19.899   4.163  1.00  0.00     0.037 A 
HETATM   27  C   UNL     1      44.255 -18.548   4.457  1.00  0.00     0.018 A 
BRANCH  25  28
HETATM   28  O   UNL     1      44.407 -21.706   2.494  1.00  0.00    -0.356 OA
HETATM   29  C   UNL     1      44.639 -22.683   3.501  1.00  0.00     0.210 C 
ENDBRANCH  25  28
ENDBRANCH   5  22
TORSDOF 9
ENDMDL
MODEL 8
REMARK VINA RESULT:      -7.5      5.515      9.221
REMARK  9 active torsions:
REMARK  status: ('A' for Active; 'I' for Inactive)
REMARK    1  A    between atoms: C_2  and  N_3 
REMARK    2  A    between atoms: C_4  and  S_5 
REMARK    3  A    between atoms: S_5  and  C_6 
REMARK    4  A    between atoms: C_6  and  C_7 
REMARK       I    between atoms: C_7  and  N_8 
REMARK    5  A    between atoms: N_8  and  C_9 
REMARK    6  A    between atoms: C_9  and  C_10 
REMARK    7  A    between atoms: C_10  and  C_11 
REMARK    8  A    between atoms: C_20  and  C_21 
REMARK    9  A    between atoms: C_24  and  O_25 
ROOT
HETATM    1  N   UNL     1      41.599 -15.826   4.969  1.00  0.00    -0.308 N 
HETATM    2  C   UNL     1      41.359 -14.479   4.856  1.00  0.00     0.192 A 
HETATM    3  N   UNL     1      42.075 -13.971   3.886  1.00  0.00    -0.122 NA
HETATM    4  N   UNL     1      42.770 -14.996   3.315  1.00  0.00    -0.128 NA
HETATM    5  C   UNL     1      42.493 -16.128   3.949  1.00  0.00     0.164 A 
ENDROOT
BRANCH   2   6
HETATM    6  S   UNL     1      40.254 -13.584   5.842  1.00  0.00    -0.081 SA
BRANCH   6   7
HETATM    7  C   UNL     1      41.035 -11.947   5.842  1.00  0.00     0.185 C 
BRANCH   7   8
HETATM    8  C   UNL     1      40.787 -11.201   7.138  1.00  0.00     0.227 C 
HETATM    9  N   UNL     1      41.883 -11.078   7.965  1.00  0.00    -0.360 N 
HETATM   10  H   UNL     1      42.768 -11.484   7.658  1.00  0.00     0.162 HD
HETATM   11  O   UNL     1      39.670 -10.785   7.443  1.00  0.00    -0.273 OA
BRANCH   9  12
HETATM   12  C   UNL     1      41.756 -10.596   9.325  1.00  0.00     0.127 C 
BRANCH  12  13
HETATM   13  C   UNL     1      42.921 -11.036  10.210  1.00  0.00     0.058 C 
BRANCH  13  14
HETATM   14  C   UNL     1      42.709 -10.635  11.648  1.00  0.00    -0.057 A 
HETATM   15  C   UNL     1      43.640  -9.813  12.299  1.00  0.00     0.007 A 
HETATM   16  C   UNL     1      43.465  -9.466  13.639  1.00  0.00     0.001 A 
HETATM   17  C   UNL     1      42.359  -9.939  14.343  1.00  0.00     0.000 A 
HETATM   18  C   UNL     1      41.430 -10.760  13.707  1.00  0.00     0.001 A 
HETATM   19  C   UNL     1      41.604 -11.108  12.367  1.00  0.00     0.007 A 
ENDBRANCH  13  14
ENDBRANCH  12  13
ENDBRANCH   9  12
ENDBRANCH   7   8
ENDBRANCH   6   7
ENDBRANCH   2   6
BRANCH   1  20
HETATM   20  C   UNL     1      41.022 -16.710   5.960  1.00  0.00     0.128 C 
HETATM   21  C   UNL     1      41.958 -17.032   7.111  1.00  0.00     0.027 C 
ENDBRANCH   1  20
BRANCH   5  22
HETATM   22  C   UNL     1      43.031 -17.430   3.515  1.00  0.00     0.012 A 
HETATM   23  C   UNL     1      43.926 -18.087   4.377  1.00  0.00     0.018 A 
HETATM   24  C   UNL     1      44.457 -19.342   4.063  1.00  0.00     0.037 A 
HETATM   25  C   UNL     1      44.110 -19.979   2.874  1.00  0.00     0.068 A 
HETATM   26  C   UNL     1      43.222 -19.347   2.008  1.00  0.00     0.037 A 
HETATM   27  C   UNL     1      42.678 -18.092   2.335  1.00  0.00     0.018 A 
BRANCH  25  28
HETATM   28  O   UNL     1      44.690 -21.202   2.687  1.00  0.00    -0.356 OA
HETATM   29  C   UNL     1      44.192 -21.997   1.618  1.00  0.00     0.210 C 
ENDBRANCH  25  28
ENDBRANCH   5  22
TORSDOF 9
ENDMDL
MODEL 9
REMARK VINA RESULT:      -7.5      4.434      6.091
REMARK  9 active torsions:
REMARK  status: ('A' for Active; 'I' for Inactive)
REMARK    1  A    between atoms: C_2  and  N_3 
REMARK    2  A    between atoms: C_4  and  S_5 
REMARK    3  A    between atoms: S_5  and  C_6 
REMARK    4  A    between atoms: C_6  and  C_7 
REMARK       I    between atoms: C_7  and  N_8 
REMARK    5  A    between atoms: N_8  and  C_9 
REMARK    6  A    between atoms: C_9  and  C_10 
REMARK    7  A    between atoms: C_10  and  C_11 
REMARK    8  A    between atoms: C_20  and  C_21 
REMARK    9  A    between atoms: C_24  and  O_25 
ROOT
HETATM    1  N   UNL     1      42.487 -15.183   5.989  1.00  0.00    -0.308 N 
HETATM    2  C   UNL     1      42.693 -16.480   6.395  1.00  0.00     0.192 A 
HETATM    3  N   UNL     1      41.548 -17.094   6.546  1.00  0.00    -0.122 NA
HETATM    4  N   UNL     1      40.566 -16.214   6.198  1.00  0.00    -0.128 NA
HETATM    5  C   UNL     1      41.111 -15.055   5.851  1.00  0.00     0.164 A 
ENDROOT
BRANCH   2   6
HETATM    6  S   UNL     1      44.244 -17.203   6.649  1.00  0.00    -0.081 SA
BRANCH   6   7
HETATM    7  C   UNL     1      43.766 -18.856   7.222  1.00  0.00     0.185 C 
BRANCH   7   8
HETATM    8  C   UNL     1      44.188 -19.938   6.246  1.00  0.00     0.227 C 
HETATM    9  N   UNL     1      44.809 -19.486   5.101  1.00  0.00    -0.360 N 
HETATM   10  H   UNL     1      44.943 -18.480   4.989  1.00  0.00     0.162 HD
HETATM   11  O   UNL     1      43.941 -21.125   6.449  1.00  0.00    -0.273 OA
BRANCH   9  12
HETATM   12  C   UNL     1      45.065 -20.367   3.980  1.00  0.00     0.127 C 
BRANCH  12  13
HETATM   13  C   UNL     1      43.918 -20.375   2.972  1.00  0.00     0.058 C 
BRANCH  13  14
HETATM   14  C   UNL     1      43.471 -18.977   2.625  1.00  0.00    -0.057 A 
HETATM   15  C   UNL     1      42.314 -18.439   3.206  1.00  0.00     0.007 A 
HETATM   16  C   UNL     1      41.879 -17.158   2.864  1.00  0.00     0.001 A 
HETATM   17  C   UNL     1      42.595 -16.403   1.937  1.00  0.00     0.000 A 
HETATM   18  C   UNL     1      43.745 -16.929   1.351  1.00  0.00     0.001 A 
HETATM   19  C   UNL     1      44.181 -18.210   1.692  1.00  0.00     0.007 A 
ENDBRANCH  13  14
ENDBRANCH  12  13
ENDBRANCH   9  12
ENDBRANCH   7   8
ENDBRANCH   6   7
ENDBRANCH   2   6
BRANCH   1  20
HETATM   20  C   UNL     1      43.517 -14.191   5.766  1.00  0.00     0.128 C 
HETATM   21  C   UNL     1      43.787 -13.910   4.300  1.00  0.00     0.027 C 
ENDBRANCH   1  20
BRANCH   5  22
HETATM   22  C   UNL     1      40.310 -13.924   5.348  1.00  0.00     0.012 A 
HETATM   23  C   UNL     1      39.798 -13.016   6.292  1.00  0.00     0.018 A 
HETATM   24  C   UNL     1      39.058 -11.894   5.901  1.00  0.00     0.037 A 
HETATM   25  C   UNL     1      38.807 -11.646   4.555  1.00  0.00     0.068 A 
HETATM   26  C   UNL     1      39.310 -12.531   3.604  1.00  0.00     0.037 A 
HETATM   27  C   UNL     1      40.066 -13.649   3.999  1.00  0.00     0.018 A 
BRANCH  25  28
HETATM   28  O   UNL     1      38.081 -10.517   4.304  1.00  0.00    -0.356 OA
HETATM   29  C   UNL     1      38.620  -9.285   4.769  1.00  0.00     0.210 C 
ENDBRANCH  25  28
ENDBRANCH   5  22
TORSDOF 9
ENDMDL
MODEL 10
REMARK VINA RESULT:      -7.3      2.602      6.664
REMARK  9 active torsions:
REMARK  status: ('A' for Active; 'I' for Inactive)
REMARK    1  A    between atoms: C_2  and  N_3 
REMARK    2  A    between atoms: C_4  and  S_5 
REMARK    3  A    between atoms: S_5  and  C_6 
REMARK    4  A    between atoms: C_6  and  C_7 
REMARK       I    between atoms: C_7  and  N_8 
REMARK    5  A    between atoms: N_8  and  C_9 
REMARK    6  A    between atoms: C_9  and  C_10 
REMARK    7  A    between atoms: C_10  and  C_11 
REMARK    8  A    between atoms: C_20  and  C_21 
REMARK    9  A    between atoms: C_24  and  O_25 
ROOT
HETATM    1  N   UNL     1      40.919 -13.160   3.120  1.00  0.00    -0.308 N 
HETATM    2  C   UNL     1      41.326 -12.385   2.061  1.00  0.00     0.192 A 
HETATM    3  N   UNL     1      42.583 -12.621   1.784  1.00  0.00    -0.122 NA
HETATM    4  N   UNL     1      43.011 -13.594   2.638  1.00  0.00    -0.128 NA
HETATM    5  C   UNL     1      42.020 -13.940   3.450  1.00  0.00     0.164 A 
ENDROOT
BRANCH   2   6
HETATM    6  S   UNL     1      40.317 -11.272   1.203  1.00  0.00    -0.081 SA
BRANCH   6   7
HETATM    7  C   UNL     1      40.266 -12.043  -0.438  1.00  0.00     0.185 C 
BRANCH   7   8
HETATM    8  C   UNL     1      40.068 -13.544  -0.353  1.00  0.00     0.227 C 
HETATM    9  N   UNL     1      41.225 -14.285  -0.240  1.00  0.00    -0.360 N 
HETATM   10  H   UNL     1      42.117 -13.788  -0.218  1.00  0.00     0.162 HD
HETATM   11  O   UNL     1      38.952 -14.056  -0.432  1.00  0.00    -0.273 OA
BRANCH   9  12
HETATM   12  C   UNL     1      41.218 -15.727  -0.374  1.00  0.00     0.127 C 
BRANCH  12  13
HETATM   13  C   UNL     1      40.818 -16.431   0.921  1.00  0.00     0.058 C 
BRANCH  13  14
HETATM   14  C   UNL     1      41.978 -17.176   1.531  1.00  0.00    -0.057 A 
HETATM   15  C   UNL     1      43.290 -16.897   1.126  1.00  0.00     0.007 A 
HETATM   16  C   UNL     1      44.365 -17.607   1.664  1.00  0.00     0.001 A 
HETATM   17  C   UNL     1      44.137 -18.605   2.609  1.00  0.00     0.000 A 
HETATM   18  C   UNL     1      42.836 -18.894   3.015  1.00  0.00     0.001 A 
HETATM   19  C   UNL     1      41.761 -18.185   2.478  1.00  0.00     0.007 A 
ENDBRANCH  13  14
ENDBRANCH  12  13
ENDBRANCH   9  12
ENDBRANCH   7   8
ENDBRANCH   6   7
ENDBRANCH   2   6
BRANCH   1  20
HETATM   20  C   UNL     1      39.609 -13.136   3.733  1.00  0.00     0.128 C 
HETATM   21  C   UNL     1      39.507 -12.195   4.919  1.00  0.00     0.027 C 
ENDBRANCH   1  20
BRANCH   5  22
HETATM   22  C   UNL     1      42.151 -15.027   4.437  1.00  0.00     0.012 A 
HETATM   23  C   UNL     1      43.448 -15.396   4.834  1.00  0.00     0.018 A 
HETATM   24  C   UNL     1      43.664 -16.392   5.793  1.00  0.00     0.037 A 
HETATM   25  C   UNL     1      42.589 -17.050   6.384  1.00  0.00     0.068 A 
HETATM   26  C   UNL     1      41.296 -16.695   6.008  1.00  0.00     0.037 A 
HETATM   27  C   UNL     1      41.082 -15.684   5.055  1.00  0.00     0.018 A 
BRANCH  25  28
HETATM   28  O   UNL     1      42.932 -17.995   7.309  1.00  0.00    -0.356 OA
HETATM   29  C   UNL     1      43.630 -19.140   6.835  1.00  0.00     0.210 C 
ENDBRANCH  25  28
ENDBRANCH   5  22
TORSDOF 9
ENDMDL
