MODEL 1
REMARK VINA RESULT:      -9.0      0.000      0.000
REMARK  3 active torsions:
REMARK  status: ('A' for Active; 'I' for Inactive)
REMARK    1  A    between atoms: C_7  and  C_8 
REMARK       I    between atoms: C_8  and  N_9 
REMARK    2  A    between atoms: N_9  and  C_10 
REMARK    3  A    between atoms: C_18  and  N_19 
ROOT
HETATM    1  C   UNL     1      42.915 -16.287   2.930  1.00  0.00     0.262 C 
HETATM    2  N   UNL     1      41.616 -16.369   2.480  1.00  0.00    -0.305 N 
HETATM    3  O   UNL     1      43.620 -15.283   2.969  1.00  0.00    -0.267 OA
HETATM    4  H   UNL     1      41.173 -17.284   2.464  1.00  0.00     0.170 HD
ENDROOT
BRANCH   2   5
HETATM    5  C   UNL     1      40.835 -15.307   2.075  1.00  0.00     0.163 A 
HETATM    6  N   UNL     1      40.211 -14.457   2.892  1.00  0.00    -0.155 NA
HETATM    7  N   UNL     1      39.558 -13.621   2.079  1.00  0.00    -0.275 N 
HETATM    8  H   UNL     1      39.003 -12.885   2.502  1.00  0.00     0.189 HD
HETATM    9  C   UNL     1      39.736 -13.878   0.747  1.00  0.00     0.064 A 
HETATM   10  C   UNL     1      40.577 -14.985   0.706  1.00  0.00     0.042 A 
HETATM   11  C   UNL     1      39.239 -13.240  -0.394  1.00  0.00     0.034 A 
HETATM   12  C   UNL     1      40.966 -15.501  -0.547  1.00  0.00     0.053 A 
HETATM   13  C   UNL     1      40.487 -14.864  -1.707  1.00  0.00     0.103 A 
HETATM   14  C   UNL     1      39.633 -13.753  -1.633  1.00  0.00     0.038 A 
BRANCH  13  15
HETATM   15  N   UNL     1      40.897 -15.370  -3.024  1.00  0.00    -0.116 N 
HETATM   16  O   UNL     1      40.222 -16.278  -3.529  1.00  0.00    -0.532 OA
HETATM   17  O   UNL     1      41.892 -14.858  -3.554  1.00  0.00    -0.532 OA
ENDBRANCH  13  15
ENDBRANCH   2   5
BRANCH   1  18
HETATM   18  C   UNL     1      43.470 -17.599   3.392  1.00  0.00     0.098 C 
HETATM   19  C   UNL     1      43.821 -17.734   4.682  1.00  0.00     0.109 C 
HETATM   20  N   UNL     1      44.327 -18.875   5.252  1.00  0.00    -0.364 N 
HETATM   21  C   UNL     1      44.385 -20.069   4.523  1.00  0.00     0.046 A 
HETATM   22  H   UNL     1      44.387 -18.916   6.264  1.00  0.00     0.165 HD
HETATM   23  C   UNL     1      44.074 -20.069   3.153  1.00  0.00     0.042 A 
HETATM   24  C   UNL     1      44.815 -21.257   5.118  1.00  0.00     0.030 A 
HETATM   25  C   UNL     1      44.155 -21.244   2.398  1.00  0.00     0.018 A 
HETATM   26  C   UNL     1      43.643 -18.795   2.519  1.00  0.00     0.201 C 
HETATM   27  C   UNL     1      44.562 -22.428   3.011  1.00  0.00     0.001 A 
HETATM   28  C   UNL     1      44.895 -22.434   4.367  1.00  0.00     0.002 A 
HETATM   29  O   UNL     1      43.428 -18.733   1.309  1.00  0.00    -0.286 OA
ENDBRANCH   1  18
TORSDOF 3
ENDMDL
MODEL 2
REMARK VINA RESULT:      -8.8      2.435      8.067
REMARK  3 active torsions:
REMARK  status: ('A' for Active; 'I' for Inactive)
REMARK    1  A    between atoms: C_7  and  C_8 
REMARK       I    between atoms: C_8  and  N_9 
REMARK    2  A    between atoms: N_9  and  C_10 
REMARK    3  A    between atoms: C_18  and  N_19 
ROOT
HETATM    1  C   UNL     1      41.801 -16.156   1.940  1.00  0.00     0.262 C 
HETATM    2  N   UNL     1      43.082 -16.478   2.327  1.00  0.00    -0.305 N 
HETATM    3  O   UNL     1      40.763 -16.391   2.552  1.00  0.00    -0.267 OA
HETATM    4  H   UNL     1      43.844 -16.260   1.690  1.00  0.00     0.170 HD
ENDROOT
BRANCH   2   5
HETATM    5  C   UNL     1      43.440 -17.049   3.531  1.00  0.00     0.163 A 
HETATM    6  N   UNL     1      43.487 -16.409   4.700  1.00  0.00    -0.155 NA
HETATM    7  N   UNL     1      43.906 -17.328   5.575  1.00  0.00    -0.275 N 
HETATM    8  H   UNL     1      44.019 -17.045   6.543  1.00  0.00     0.189 HD
HETATM    9  C   UNL     1      44.129 -18.563   5.030  1.00  0.00     0.064 A 
HETATM   10  C   UNL     1      43.829 -18.417   3.679  1.00  0.00     0.042 A 
HETATM   11  C   UNL     1      44.557 -19.764   5.602  1.00  0.00     0.034 A 
HETATM   12  C   UNL     1      43.950 -19.534   2.828  1.00  0.00     0.053 A 
HETATM   13  C   UNL     1      44.367 -20.756   3.388  1.00  0.00     0.103 A 
HETATM   14  C   UNL     1      44.671 -20.870   4.753  1.00  0.00     0.038 A 
BRANCH  13  15
HETATM   15  N   UNL     1      44.479 -21.939   2.525  1.00  0.00    -0.116 N 
HETATM   16  O   UNL     1      44.758 -23.021   3.062  1.00  0.00    -0.532 OA
HETATM   17  O   UNL     1      44.285 -21.789   1.311  1.00  0.00    -0.532 OA
ENDBRANCH  13  15
ENDBRANCH   2   5
BRANCH   1  18
HETATM   18  C   UNL     1      41.736 -15.458   0.616  1.00  0.00     0.098 C 
HETATM   19  C   UNL     1      41.365 -16.160  -0.468  1.00  0.00     0.109 C 
HETATM   20  N   UNL     1      41.246 -15.656  -1.739  1.00  0.00    -0.364 N 
HETATM   21  C   UNL     1      41.378 -14.282  -1.974  1.00  0.00     0.046 A 
HETATM   22  H   UNL     1      40.789 -16.230  -2.439  1.00  0.00     0.165 HD
HETATM   23  C   UNL     1      41.790 -13.429  -0.935  1.00  0.00     0.042 A 
HETATM   24  C   UNL     1      41.172 -13.745  -3.247  1.00  0.00     0.030 A 
HETATM   25  C   UNL     1      41.959 -12.059  -1.156  1.00  0.00     0.018 A 
HETATM   26  C   UNL     1      42.035 -14.011   0.411  1.00  0.00     0.201 C 
HETATM   27  C   UNL     1      41.726 -11.533  -2.426  1.00  0.00     0.001 A 
HETATM   28  C   UNL     1      41.336 -12.374  -3.470  1.00  0.00     0.002 A 
HETATM   29  O   UNL     1      42.464 -13.316   1.330  1.00  0.00    -0.286 OA
ENDBRANCH   1  18
TORSDOF 3
ENDMDL
MODEL 3
REMARK VINA RESULT:      -8.6      2.135      7.733
REMARK  3 active torsions:
REMARK  status: ('A' for Active; 'I' for Inactive)
REMARK    1  A    between atoms: C_7  and  C_8 
REMARK       I    between atoms: C_8  and  N_9 
REMARK    2  A    between atoms: N_9  and  C_10 
REMARK    3  A    between atoms: C_18  and  N_19 
ROOT
HETATM    1  C   UNL     1      41.793 -15.759   2.712  1.00  0.00     0.262 C 
HETATM    2  N   UNL     1      42.977 -16.456   2.785  1.00  0.00    -0.305 N 
HETATM    3  O   UNL     1      40.931 -15.674   3.582  1.00  0.00    -0.267 OA
HETATM    4  H   UNL     1      43.574 -16.474   1.962  1.00  0.00     0.170 HD
ENDROOT
BRANCH   2   5
HETATM    5  C   UNL     1      43.456 -17.118   3.897  1.00  0.00     0.163 A 
HETATM    6  N   UNL     1      43.622 -16.572   5.102  1.00  0.00    -0.155 NA
HETATM    7  N   UNL     1      44.127 -17.554   5.855  1.00  0.00    -0.275 N 
HETATM    8  H   UNL     1      44.339 -17.348   6.825  1.00  0.00     0.189 HD
HETATM    9  C   UNL     1      44.293 -18.740   5.194  1.00  0.00     0.064 A 
HETATM   10  C   UNL     1      43.857 -18.490   3.896  1.00  0.00     0.042 A 
HETATM   11  C   UNL     1      44.775 -19.980   5.623  1.00  0.00     0.034 A 
HETATM   12  C   UNL     1      43.889 -19.536   2.951  1.00  0.00     0.053 A 
HETATM   13  C   UNL     1      44.360 -20.795   3.368  1.00  0.00     0.103 A 
HETATM   14  C   UNL     1      44.801 -21.015   4.682  1.00  0.00     0.038 A 
BRANCH  13  15
HETATM   15  N   UNL     1      44.381 -21.906   2.407  1.00  0.00    -0.116 N 
HETATM   16  O   UNL     1      44.011 -21.672   1.247  1.00  0.00    -0.532 OA
HETATM   17  O   UNL     1      44.771 -23.011   2.810  1.00  0.00    -0.532 OA
ENDBRANCH  13  15
ENDBRANCH   2   5
BRANCH   1  18
HETATM   18  C   UNL     1      41.590 -15.064   1.401  1.00  0.00     0.098 C 
HETATM   19  C   UNL     1      41.713 -13.727   1.351  1.00  0.00     0.109 C 
HETATM   20  N   UNL     1      41.572 -12.957   0.224  1.00  0.00    -0.364 N 
HETATM   21  C   UNL     1      41.416 -13.557  -1.032  1.00  0.00     0.046 A 
HETATM   22  H   UNL     1      41.862 -11.986   0.269  1.00  0.00     0.165 HD
HETATM   23  C   UNL     1      41.245 -14.949  -1.127  1.00  0.00     0.042 A 
HETATM   24  C   UNL     1      41.360 -12.788  -2.197  1.00  0.00     0.030 A 
HETATM   25  C   UNL     1      41.057 -15.566  -2.368  1.00  0.00     0.018 A 
HETATM   26  C   UNL     1      41.279 -15.759   0.119  1.00  0.00     0.201 C 
HETATM   27  C   UNL     1      41.027 -14.788  -3.525  1.00  0.00     0.001 A 
HETATM   28  C   UNL     1      41.175 -13.402  -3.439  1.00  0.00     0.002 A 
HETATM   29  O   UNL     1      41.064 -16.970   0.090  1.00  0.00    -0.286 OA
ENDBRANCH   1  18
TORSDOF 3
ENDMDL
MODEL 4
REMARK VINA RESULT:      -8.6      2.333      2.818
REMARK  3 active torsions:
REMARK  status: ('A' for Active; 'I' for Inactive)
REMARK    1  A    between atoms: C_7  and  C_8 
REMARK       I    between atoms: C_8  and  N_9 
REMARK    2  A    between atoms: N_9  and  C_10 
REMARK    3  A    between atoms: C_18  and  N_19 
ROOT
HETATM    1  C   UNL     1      42.732 -16.070   4.683  1.00  0.00     0.262 C 
HETATM    2  N   UNL     1      42.800 -15.171   3.643  1.00  0.00    -0.305 N 
HETATM    3  O   UNL     1      42.282 -15.866   5.807  1.00  0.00    -0.267 OA
HETATM    4  H   UNL     1      43.245 -15.471   2.780  1.00  0.00     0.170 HD
ENDROOT
BRANCH   2   5
HETATM    5  C   UNL     1      42.283 -13.892   3.648  1.00  0.00     0.163 A 
HETATM    6  N   UNL     1      42.769 -12.871   4.354  1.00  0.00    -0.155 NA
HETATM    7  N   UNL     1      41.952 -11.848   4.081  1.00  0.00    -0.275 N 
HETATM    8  H   UNL     1      42.140 -10.957   4.528  1.00  0.00     0.189 HD
HETATM    9  C   UNL     1      40.944 -12.152   3.207  1.00  0.00     0.064 A 
HETATM   10  C   UNL     1      41.132 -13.495   2.897  1.00  0.00     0.042 A 
HETATM   11  C   UNL     1      39.911 -11.373   2.677  1.00  0.00     0.034 A 
HETATM   12  C   UNL     1      40.247 -14.119   1.994  1.00  0.00     0.053 A 
HETATM   13  C   UNL     1      39.208 -13.347   1.440  1.00  0.00     0.103 A 
HETATM   14  C   UNL     1      39.039 -11.996   1.779  1.00  0.00     0.038 A 
BRANCH  13  15
HETATM   15  N   UNL     1      38.287 -13.969   0.480  1.00  0.00    -0.116 N 
HETATM   16  O   UNL     1      37.186 -14.352   0.902  1.00  0.00    -0.532 OA
HETATM   17  O   UNL     1      38.662 -14.072  -0.696  1.00  0.00    -0.532 OA
ENDBRANCH  13  15
ENDBRANCH   2   5
BRANCH   1  18
HETATM   18  C   UNL     1      43.298 -17.415   4.347  1.00  0.00     0.098 C 
HETATM   19  C   UNL     1      44.099 -18.022   5.238  1.00  0.00     0.109 C 
HETATM   20  N   UNL     1      44.677 -19.256   5.078  1.00  0.00    -0.364 N 
HETATM   21  C   UNL     1      44.343 -20.060   3.980  1.00  0.00     0.046 A 
HETATM   22  H   UNL     1      45.113 -19.688   5.885  1.00  0.00     0.165 HD
HETATM   23  C   UNL     1      43.535 -19.543   2.953  1.00  0.00     0.042 A 
HETATM   24  C   UNL     1      44.855 -21.353   3.851  1.00  0.00     0.030 A 
HETATM   25  C   UNL     1      43.215 -20.317   1.833  1.00  0.00     0.018 A 
HETATM   26  C   UNL     1      43.015 -18.156   3.084  1.00  0.00     0.201 C 
HETATM   27  C   UNL     1      43.714 -21.614   1.729  1.00  0.00     0.001 A 
HETATM   28  C   UNL     1      44.534 -22.130   2.734  1.00  0.00     0.002 A 
HETATM   29  O   UNL     1      42.363 -17.638   2.178  1.00  0.00    -0.286 OA
ENDBRANCH   1  18
TORSDOF 3
ENDMDL
MODEL 5
REMARK VINA RESULT:      -8.2      2.763      3.907
REMARK  3 active torsions:
REMARK  status: ('A' for Active; 'I' for Inactive)
REMARK    1  A    between atoms: C_7  and  C_8 
REMARK       I    between atoms: C_8  and  N_9 
REMARK    2  A    between atoms: N_9  and  C_10 
REMARK    3  A    between atoms: C_18  and  N_19 
ROOT
HETATM    1  C   UNL     1      41.013 -15.738   0.779  1.00  0.00     0.262 C 
HETATM    2  N   UNL     1      41.770 -15.669  -0.369  1.00  0.00    -0.305 N 
HETATM    3  O   UNL     1      39.904 -15.245   0.962  1.00  0.00    -0.267 OA
HETATM    4  H   UNL     1      42.696 -16.088  -0.357  1.00  0.00     0.170 HD
ENDROOT
BRANCH   2   5
HETATM    5  C   UNL     1      41.373 -15.105  -1.564  1.00  0.00     0.163 A 
HETATM    6  N   UNL     1      40.650 -15.720  -2.500  1.00  0.00    -0.155 NA
HETATM    7  N   UNL     1      40.528 -14.822  -3.482  1.00  0.00    -0.275 N 
HETATM    8  H   UNL     1      40.009 -15.092  -4.311  1.00  0.00     0.189 HD
HETATM    9  C   UNL     1      41.137 -13.624  -3.226  1.00  0.00     0.064 A 
HETATM   10  C   UNL     1      41.705 -13.773  -1.965  1.00  0.00     0.042 A 
HETATM   11  C   UNL     1      41.229 -12.451  -3.983  1.00  0.00     0.034 A 
HETATM   12  C   UNL     1      42.408 -12.690  -1.399  1.00  0.00     0.053 A 
HETATM   13  C   UNL     1      42.501 -11.497  -2.140  1.00  0.00     0.103 A 
HETATM   14  C   UNL     1      41.924 -11.379  -3.414  1.00  0.00     0.038 A 
BRANCH  13  15
HETATM   15  N   UNL     1      43.209 -10.347  -1.562  1.00  0.00    -0.116 N 
HETATM   16  O   UNL     1      43.381  -9.354  -2.283  1.00  0.00    -0.532 OA
HETATM   17  O   UNL     1      43.591 -10.435  -0.387  1.00  0.00    -0.532 OA
ENDBRANCH  13  15
ENDBRANCH   2   5
BRANCH   1  18
HETATM   18  C   UNL     1      41.677 -16.496   1.886  1.00  0.00     0.098 C 
HETATM   19  C   UNL     1      41.261 -16.296   3.148  1.00  0.00     0.109 C 
HETATM   20  N   UNL     1      41.761 -16.927   4.259  1.00  0.00    -0.364 N 
HETATM   21  C   UNL     1      42.688 -17.969   4.129  1.00  0.00     0.046 A 
HETATM   22  H   UNL     1      41.252 -16.831   5.132  1.00  0.00     0.165 HD
HETATM   23  C   UNL     1      43.231 -18.269   2.869  1.00  0.00     0.042 A 
HETATM   24  C   UNL     1      43.137 -18.678   5.246  1.00  0.00     0.030 A 
HETATM   25  C   UNL     1      44.182 -19.285   2.720  1.00  0.00     0.018 A 
HETATM   26  C   UNL     1      42.769 -17.492   1.688  1.00  0.00     0.201 C 
HETATM   27  C   UNL     1      44.603 -20.000   3.841  1.00  0.00     0.001 A 
HETATM   28  C   UNL     1      44.085 -19.695   5.100  1.00  0.00     0.002 A 
HETATM   29  O   UNL     1      43.269 -17.673   0.579  1.00  0.00    -0.286 OA
ENDBRANCH   1  18
TORSDOF 3
ENDMDL
MODEL 6
REMARK VINA RESULT:      -7.9      3.106      7.930
REMARK  3 active torsions:
REMARK  status: ('A' for Active; 'I' for Inactive)
REMARK    1  A    between atoms: C_7  and  C_8 
REMARK       I    between atoms: C_8  and  N_9 
REMARK    2  A    between atoms: N_9  and  C_10 
REMARK    3  A    between atoms: C_18  and  N_19 
ROOT
HETATM    1  C   UNL     1      41.574 -14.844   5.004  1.00  0.00     0.262 C 
HETATM    2  N   UNL     1      41.220 -16.138   5.312  1.00  0.00    -0.305 N 
HETATM    3  O   UNL     1      42.589 -14.252   5.357  1.00  0.00    -0.267 OA
HETATM    4  H   UNL     1      40.319 -16.479   4.985  1.00  0.00     0.170 HD
ENDROOT
BRANCH   2   5
HETATM    5  C   UNL     1      41.996 -17.042   6.006  1.00  0.00     0.163 A 
HETATM    6  N   UNL     1      42.120 -17.088   7.333  1.00  0.00    -0.155 NA
HETATM    7  N   UNL     1      42.979 -18.086   7.561  1.00  0.00    -0.275 N 
HETATM    8  H   UNL     1      43.224 -18.292   8.524  1.00  0.00     0.189 HD
HETATM    9  C   UNL     1      43.424 -18.715   6.430  1.00  0.00     0.064 A 
HETATM   10  C   UNL     1      42.792 -18.052   5.382  1.00  0.00     0.042 A 
HETATM   11  C   UNL     1      44.304 -19.785   6.251  1.00  0.00     0.034 A 
HETATM   12  C   UNL     1      43.037 -18.477   4.060  1.00  0.00     0.053 A 
HETATM   13  C   UNL     1      43.911 -19.562   3.860  1.00  0.00     0.103 A 
HETATM   14  C   UNL     1      44.539 -20.204   4.937  1.00  0.00     0.038 A 
BRANCH  13  15
HETATM   15  N   UNL     1      44.163 -20.036   2.493  1.00  0.00    -0.116 N 
HETATM   16  O   UNL     1      44.791 -21.096   2.357  1.00  0.00    -0.532 OA
HETATM   17  O   UNL     1      43.732 -19.352   1.555  1.00  0.00    -0.532 OA
ENDBRANCH  13  15
ENDBRANCH   2   5
BRANCH   1  18
HETATM   18  C   UNL     1      40.563 -14.135   4.156  1.00  0.00     0.098 C 
HETATM   19  C   UNL     1      40.231 -12.870   4.466  1.00  0.00     0.109 C 
HETATM   20  N   UNL     1      39.336 -12.092   3.776  1.00  0.00    -0.364 N 
HETATM   21  C   UNL     1      38.787 -12.540   2.568  1.00  0.00     0.046 A 
HETATM   22  H   UNL     1      39.299 -11.101   3.993  1.00  0.00     0.165 HD
HETATM   23  C   UNL     1      39.026 -13.855   2.135  1.00  0.00     0.042 A 
HETATM   24  C   UNL     1      37.944 -11.722   1.812  1.00  0.00     0.030 A 
HETATM   25  C   UNL     1      38.462 -14.333   0.948  1.00  0.00     0.018 A 
HETATM   26  C   UNL     1      39.902 -14.730   2.958  1.00  0.00     0.201 C 
HETATM   27  C   UNL     1      37.643 -13.497   0.191  1.00  0.00     0.001 A 
HETATM   28  C   UNL     1      37.381 -12.196   0.623  1.00  0.00     0.002 A 
HETATM   29  O   UNL     1      40.082 -15.908   2.655  1.00  0.00    -0.286 OA
ENDBRANCH   1  18
TORSDOF 3
ENDMDL
MODEL 7
REMARK VINA RESULT:      -7.9      1.874      2.241
REMARK  3 active torsions:
REMARK  status: ('A' for Active; 'I' for Inactive)
REMARK    1  A    between atoms: C_7  and  C_8 
REMARK       I    between atoms: C_8  and  N_9 
REMARK    2  A    between atoms: N_9  and  C_10 
REMARK    3  A    between atoms: C_18  and  N_19 
ROOT
HETATM    1  C   UNL     1      41.976 -16.339   2.774  1.00  0.00     0.262 C 
HETATM    2  N   UNL     1      42.762 -15.474   2.046  1.00  0.00    -0.305 N 
HETATM    3  O   UNL     1      40.906 -16.083   3.319  1.00  0.00    -0.267 OA
HETATM    4  H   UNL     1      43.651 -15.819   1.693  1.00  0.00     0.170 HD
ENDROOT
BRANCH   2   5
HETATM    5  C   UNL     1      42.439 -14.174   1.717  1.00  0.00     0.163 A 
HETATM    6  N   UNL     1      42.626 -13.114   2.504  1.00  0.00    -0.155 NA
HETATM    7  N   UNL     1      42.150 -12.081   1.803  1.00  0.00    -0.275 N 
HETATM    8  H   UNL     1      42.189 -11.160   2.227  1.00  0.00     0.189 HD
HETATM    9  C   UNL     1      41.662 -12.416   0.569  1.00  0.00     0.064 A 
HETATM   10  C   UNL     1      41.839 -13.793   0.477  1.00  0.00     0.042 A 
HETATM   11  C   UNL     1      41.097 -11.638  -0.446  1.00  0.00     0.034 A 
HETATM   12  C   UNL     1      41.439 -14.455  -0.702  1.00  0.00     0.053 A 
HETATM   13  C   UNL     1      40.880 -13.687  -1.740  1.00  0.00     0.103 A 
HETATM   14  C   UNL     1      40.706 -12.300  -1.614  1.00  0.00     0.038 A 
BRANCH  13  15
HETATM   15  N   UNL     1      40.477 -14.352  -2.987  1.00  0.00    -0.116 N 
HETATM   16  O   UNL     1      39.272 -14.354  -3.276  1.00  0.00    -0.532 OA
HETATM   17  O   UNL     1      41.365 -14.869  -3.678  1.00  0.00    -0.532 OA
ENDBRANCH  13  15
ENDBRANCH   2   5
BRANCH   1  18
HETATM   18  C   UNL     1      42.552 -17.717   2.887  1.00  0.00     0.098 C 
HETATM   19  C   UNL     1      42.616 -18.483   1.785  1.00  0.00     0.109 C 
HETATM   20  N   UNL     1      43.128 -19.755   1.730  1.00  0.00    -0.364 N 
HETATM   21  C   UNL     1      43.773 -20.310   2.843  1.00  0.00     0.046 A 
HETATM   22  H   UNL     1      43.288 -20.166   0.817  1.00  0.00     0.165 HD
HETATM   23  C   UNL     1      43.758 -19.630   4.072  1.00  0.00     0.042 A 
HETATM   24  C   UNL     1      44.376 -21.568   2.773  1.00  0.00     0.030 A 
HETATM   25  C   UNL     1      44.368 -20.181   5.204  1.00  0.00     0.018 A 
HETATM   26  C   UNL     1      43.090 -18.305   4.147  1.00  0.00     0.201 C 
HETATM   27  C   UNL     1      44.988 -21.427   5.113  1.00  0.00     0.001 A 
HETATM   28  C   UNL     1      44.989 -22.120   3.902  1.00  0.00     0.002 A 
HETATM   29  O   UNL     1      42.992 -17.706   5.218  1.00  0.00    -0.286 OA
ENDBRANCH   1  18
TORSDOF 3
ENDMDL
MODEL 8
REMARK VINA RESULT:      -7.9      7.325      9.653
REMARK  3 active torsions:
REMARK  status: ('A' for Active; 'I' for Inactive)
REMARK    1  A    between atoms: C_7  and  C_8 
REMARK       I    between atoms: C_8  and  N_9 
REMARK    2  A    between atoms: N_9  and  C_10 
REMARK    3  A    between atoms: C_18  and  N_19 
ROOT
HETATM    1  C   UNL     1      40.342 -11.110   7.701  1.00  0.00     0.262 C 
HETATM    2  N   UNL     1      41.435 -11.529   6.977  1.00  0.00    -0.305 N 
HETATM    3  O   UNL     1      39.210 -10.903   7.274  1.00  0.00    -0.267 OA
HETATM    4  H   UNL     1      42.326 -11.612   7.461  1.00  0.00     0.170 HD
ENDROOT
BRANCH   2   5
HETATM    5  C   UNL     1      41.432 -11.884   5.644  1.00  0.00     0.163 A 
HETATM    6  N   UNL     1      41.555 -11.034   4.624  1.00  0.00    -0.155 NA
HETATM    7  N   UNL     1      41.469 -11.799   3.531  1.00  0.00    -0.275 N 
HETATM    8  H   UNL     1      41.533 -11.345   2.627  1.00  0.00     0.189 HD
HETATM    9  C   UNL     1      41.305 -13.133   3.790  1.00  0.00     0.064 A 
HETATM   10  C   UNL     1      41.278 -13.227   5.178  1.00  0.00     0.042 A 
HETATM   11  C   UNL     1      41.183 -14.234   2.937  1.00  0.00     0.034 A 
HETATM   12  C   UNL     1      41.129 -14.496   5.775  1.00  0.00     0.053 A 
HETATM   13  C   UNL     1      41.018 -15.618   4.932  1.00  0.00     0.103 A 
HETATM   14  C   UNL     1      41.040 -15.490   3.535  1.00  0.00     0.038 A 
BRANCH  13  15
HETATM   15  N   UNL     1      40.884 -16.953   5.531  1.00  0.00    -0.116 N 
HETATM   16  O   UNL     1      41.335 -17.917   4.896  1.00  0.00    -0.532 OA
HETATM   17  O   UNL     1      40.332 -17.037   6.637  1.00  0.00    -0.532 OA
ENDBRANCH  13  15
ENDBRANCH   2   5
BRANCH   1  18
HETATM   18  C   UNL     1      40.637 -10.889   9.153  1.00  0.00     0.098 C 
HETATM   19  C   UNL     1      39.696 -11.203  10.059  1.00  0.00     0.109 C 
HETATM   20  N   UNL     1      39.827 -11.070  11.419  1.00  0.00    -0.364 N 
HETATM   21  C   UNL     1      41.057 -10.710  11.983  1.00  0.00     0.046 A 
HETATM   22  H   UNL     1      39.125 -11.504  12.010  1.00  0.00     0.165 HD
HETATM   23  C   UNL     1      42.123 -10.328  11.152  1.00  0.00     0.042 A 
HETATM   24  C   UNL     1      41.227 -10.658  13.369  1.00  0.00     0.030 A 
HETATM   25  C   UNL     1      43.351  -9.934  11.695  1.00  0.00     0.018 A 
HETATM   26  C   UNL     1      41.927 -10.359   9.679  1.00  0.00     0.201 C 
HETATM   27  C   UNL     1      43.514  -9.910  13.080  1.00  0.00     0.001 A 
HETATM   28  C   UNL     1      42.453 -10.268  13.914  1.00  0.00     0.002 A 
HETATM   29  O   UNL     1      42.809  -9.965   8.916  1.00  0.00    -0.286 OA
ENDBRANCH   1  18
TORSDOF 3
ENDMDL
MODEL 9
REMARK VINA RESULT:      -7.9      4.116      6.022
REMARK  3 active torsions:
REMARK  status: ('A' for Active; 'I' for Inactive)
REMARK    1  A    between atoms: C_7  and  C_8 
REMARK       I    between atoms: C_8  and  N_9 
REMARK    2  A    between atoms: N_9  and  C_10 
REMARK    3  A    between atoms: C_18  and  N_19 
ROOT
HETATM    1  C   UNL     1      41.210 -15.564   5.124  1.00  0.00     0.262 C 
HETATM    2  N   UNL     1      41.289 -14.492   4.263  1.00  0.00    -0.305 N 
HETATM    3  O   UNL     1      40.494 -15.662   6.116  1.00  0.00    -0.267 OA
HETATM    4  H   UNL     1      41.967 -14.536   3.507  1.00  0.00     0.170 HD
ENDROOT
BRANCH   2   5
HETATM    5  C   UNL     1      40.502 -13.361   4.310  1.00  0.00     0.163 A 
HETATM    6  N   UNL     1      39.495 -13.093   3.477  1.00  0.00    -0.155 NA
HETATM    7  N   UNL     1      39.040 -11.897   3.866  1.00  0.00    -0.275 N 
HETATM    8  H   UNL     1      38.264 -11.494   3.353  1.00  0.00     0.189 HD
HETATM    9  C   UNL     1      39.704 -11.366   4.939  1.00  0.00     0.064 A 
HETATM   10  C   UNL     1      40.676 -12.307   5.260  1.00  0.00     0.042 A 
HETATM   11  C   UNL     1      39.529 -10.165   5.633  1.00  0.00     0.034 A 
HETATM   12  C   UNL     1      41.536 -12.057   6.349  1.00  0.00     0.053 A 
HETATM   13  C   UNL     1      41.367 -10.859   7.069  1.00  0.00     0.103 A 
HETATM   14  C   UNL     1      40.382  -9.925   6.715  1.00  0.00     0.038 A 
BRANCH  13  15
HETATM   15  N   UNL     1      42.237 -10.587   8.221  1.00  0.00    -0.116 N 
HETATM   16  O   UNL     1      41.857  -9.740   9.042  1.00  0.00    -0.532 OA
HETATM   17  O   UNL     1      43.297 -11.222   8.307  1.00  0.00    -0.532 OA
ENDBRANCH  13  15
ENDBRANCH   2   5
BRANCH   1  18
HETATM   18  C   UNL     1      42.131 -16.688   4.763  1.00  0.00     0.098 C 
HETATM   19  C   UNL     1      43.039 -17.097   5.665  1.00  0.00     0.109 C 
HETATM   20  N   UNL     1      43.935 -18.120   5.484  1.00  0.00    -0.364 N 
HETATM   21  C   UNL     1      43.867 -18.931   4.345  1.00  0.00     0.046 A 
HETATM   22  H   UNL     1      44.447 -18.455   6.293  1.00  0.00     0.165 HD
HETATM   23  C   UNL     1      42.981 -18.604   3.304  1.00  0.00     0.042 A 
HETATM   24  C   UNL     1      44.716 -20.030   4.190  1.00  0.00     0.030 A 
HETATM   25  C   UNL     1      42.919 -19.383   2.143  1.00  0.00     0.018 A 
HETATM   26  C   UNL     1      42.100 -17.418   3.462  1.00  0.00     0.201 C 
HETATM   27  C   UNL     1      43.756 -20.491   2.013  1.00  0.00     0.001 A 
HETATM   28  C   UNL     1      44.654 -20.811   3.033  1.00  0.00     0.002 A 
HETATM   29  O   UNL     1      41.361 -17.054   2.549  1.00  0.00    -0.286 OA
ENDBRANCH   1  18
TORSDOF 3
ENDMDL
MODEL 10
REMARK VINA RESULT:      -7.9      3.540      8.521
REMARK  3 active torsions:
REMARK  status: ('A' for Active; 'I' for Inactive)
REMARK    1  A    between atoms: C_7  and  C_8 
REMARK       I    between atoms: C_8  and  N_9 
REMARK    2  A    between atoms: N_9  and  C_10 
REMARK    3  A    between atoms: C_18  and  N_19 
ROOT
HETATM    1  C   UNL     1      41.162 -15.241   1.846  1.00  0.00     0.262 C 
HETATM    2  N   UNL     1      42.232 -15.799   2.507  1.00  0.00    -0.305 N 
HETATM    3  O   UNL     1      39.973 -15.376   2.120  1.00  0.00    -0.267 OA
HETATM    4  H   UNL     1      43.164 -15.635   2.134  1.00  0.00     0.170 HD
ENDROOT
BRANCH   2   5
HETATM    5  C   UNL     1      42.165 -16.543   3.667  1.00  0.00     0.163 A 
HETATM    6  N   UNL     1      41.505 -17.694   3.802  1.00  0.00    -0.155 NA
HETATM    7  N   UNL     1      41.684 -18.041   5.080  1.00  0.00    -0.275 N 
HETATM    8  H   UNL     1      41.252 -18.900   5.404  1.00  0.00     0.189 HD
HETATM    9  C   UNL     1      42.452 -17.165   5.798  1.00  0.00     0.064 A 
HETATM   10  C   UNL     1      42.790 -16.163   4.895  1.00  0.00     0.042 A 
HETATM   11  C   UNL     1      42.867 -17.177   7.133  1.00  0.00     0.034 A 
HETATM   12  C   UNL     1      43.602 -15.095   5.331  1.00  0.00     0.053 A 
HETATM   13  C   UNL     1      44.040 -15.096   6.668  1.00  0.00     0.103 A 
HETATM   14  C   UNL     1      43.676 -16.118   7.558  1.00  0.00     0.038 A 
BRANCH  13  15
HETATM   15  N   UNL     1      44.905 -14.006   7.139  1.00  0.00    -0.116 N 
HETATM   16  O   UNL     1      45.713 -13.522   6.333  1.00  0.00    -0.532 OA
HETATM   17  O   UNL     1      44.775 -13.632   8.313  1.00  0.00    -0.532 OA
ENDBRANCH  13  15
ENDBRANCH   2   5
BRANCH   1  18
HETATM   18  C   UNL     1      41.558 -14.405   0.668  1.00  0.00     0.098 C 
HETATM   19  C   UNL     1      41.415 -14.916  -0.566  1.00  0.00     0.109 C 
HETATM   20  N   UNL     1      41.719 -14.266  -1.736  1.00  0.00    -0.364 N 
HETATM   21  C   UNL     1      42.089 -12.916  -1.724  1.00  0.00     0.046 A 
HETATM   22  H   UNL     1      41.404 -14.679  -2.607  1.00  0.00     0.165 HD
HETATM   23  C   UNL     1      42.304 -12.259  -0.500  1.00  0.00     0.042 A 
HETATM   24  C   UNL     1      42.315 -12.219  -2.913  1.00  0.00     0.030 A 
HETATM   25  C   UNL     1      42.704 -10.920  -0.464  1.00  0.00     0.018 A 
HETATM   26  C   UNL     1      42.088 -13.014   0.763  1.00  0.00     0.201 C 
HETATM   27  C   UNL     1      42.903 -10.230  -1.660  1.00  0.00     0.001 A 
HETATM   28  C   UNL     1      42.712 -10.879  -2.881  1.00  0.00     0.002 A 
HETATM   29  O   UNL     1      42.332 -12.502   1.854  1.00  0.00    -0.286 OA
ENDBRANCH   1  18
TORSDOF 3
ENDMDL
