MODEL 1
REMARK VINA RESULT:      -9.2      0.000      0.000
REMARK  3 active torsions:
REMARK  status: ('A' for Active; 'I' for Inactive)
REMARK    1  A    between atoms: C_6  and  C_7 
REMARK       I    between atoms: C_7  and  N_8 
REMARK    2  A    between atoms: N_8  and  C_9 
REMARK    3  A    between atoms: C_14  and  C_15 
ROOT
HETATM    1  C   UNL     1      43.508 -14.467   6.120  1.00  0.00     0.037 A 
HETATM    2  C   UNL     1      43.733 -15.832   6.340  1.00  0.00     0.061 A 
HETATM    3  C   UNL     1      43.730 -16.670   5.220  1.00  0.00     0.065 A 
HETATM    4  C   UNL     1      43.509 -16.221   3.924  1.00  0.00     0.086 A 
HETATM    5  N   UNL     1      43.558 -17.258   3.025  1.00  0.00    -0.226 NA
HETATM    6  C   UNL     1      43.811 -18.330   3.748  1.00  0.00     0.163 A 
HETATM    7  N   UNL     1      43.922 -18.019   5.078  1.00  0.00    -0.337 N 
HETATM    8  H   UNL     1      44.115 -18.683   5.814  1.00  0.00     0.167 HD
HETATM    9  C   UNL     1      43.280 -14.855   3.711  1.00  0.00     0.036 A 
HETATM   10  C   UNL     1      43.285 -13.991   4.818  1.00  0.00     0.032 A 
ENDROOT
BRANCH   1  11
HETATM   11  N   UNL     1      43.483 -13.518   7.159  1.00  0.00    -0.321 N 
HETATM   12  C   UNL     1      44.565 -12.944   7.800  1.00  0.00     0.280 C 
HETATM   13  O   UNL     1      45.755 -13.086   7.568  1.00  0.00    -0.265 OA
HETATM   14  H   UNL     1      42.576 -13.158   7.442  1.00  0.00     0.169 HD
BRANCH  12  15
HETATM   15  C   UNL     1      44.142 -11.985   8.897  1.00  0.00     0.193 A 
HETATM   16  C   UNL     1      44.844 -11.969  10.243  1.00  0.00     0.280 A 
HETATM   17  N   UNL     1      44.398 -10.996  11.102  1.00  0.00    -0.324 N 
HETATM   18  O   UNL     1      45.699 -12.787  10.543  1.00  0.00    -0.265 OA
HETATM   19  C   UNL     1      43.363 -10.149  10.787  1.00  0.00     0.033 A 
HETATM   20  H   UNL     1      44.854 -10.956  12.005  1.00  0.00     0.169 HD
HETATM   21  C   UNL     1      42.984  -9.148  11.840  1.00  0.00     0.070 C 
HETATM   22  C   UNL     1      42.756 -10.271   9.585  1.00  0.00     0.054 A 
HETATM   23  N   UNL     1      43.130 -11.196   8.630  1.00  0.00    -0.241 NA
HETATM   24  C   UNL     1      41.619  -9.382   9.143  1.00  0.00     0.072 C 
ENDBRANCH  12  15
ENDBRANCH   1  11
BRANCH   6  25
HETATM   25  C   UNL     1      43.962 -19.661   3.256  1.00  0.00     0.120 A 
HETATM   26  O   UNL     1      44.510 -20.674   4.005  1.00  0.00    -0.319 OA
HETATM   27  C   UNL     1      44.509 -21.796   3.243  1.00  0.00     0.142 A 
HETATM   28  C   UNL     1      43.967 -21.538   2.008  1.00  0.00     0.027 A 
HETATM   29  C   UNL     1      43.617 -20.167   2.015  1.00  0.00     0.043 A 
ENDBRANCH   6  25
TORSDOF 3
ENDMDL
MODEL 2
REMARK VINA RESULT:      -8.2      5.606      9.518
REMARK  3 active torsions:
REMARK  status: ('A' for Active; 'I' for Inactive)
REMARK    1  A    between atoms: C_6  and  C_7 
REMARK       I    between atoms: C_7  and  N_8 
REMARK    2  A    between atoms: N_8  and  C_9 
REMARK    3  A    between atoms: C_14  and  C_15 
ROOT
HETATM    1  C   UNL     1      41.076 -16.148   2.784  1.00  0.00     0.037 A 
HETATM    2  C   UNL     1      40.611 -15.992   1.472  1.00  0.00     0.061 A 
HETATM    3  C   UNL     1      39.777 -14.899   1.214  1.00  0.00     0.065 A 
HETATM    4  C   UNL     1      39.388 -13.983   2.183  1.00  0.00     0.086 A 
HETATM    5  N   UNL     1      38.567 -13.019   1.652  1.00  0.00    -0.226 NA
HETATM    6  C   UNL     1      38.454 -13.326   0.375  1.00  0.00     0.163 A 
HETATM    7  N   UNL     1      39.168 -14.454   0.069  1.00  0.00    -0.337 N 
HETATM    8  H   UNL     1      39.227 -14.872  -0.849  1.00  0.00     0.167 HD
HETATM    9  C   UNL     1      39.853 -14.147   3.494  1.00  0.00     0.036 A 
HETATM   10  C   UNL     1      40.697 -15.233   3.779  1.00  0.00     0.032 A 
ENDROOT
BRANCH   1  11
HETATM   11  N   UNL     1      41.918 -17.205   3.177  1.00  0.00    -0.321 N 
HETATM   12  C   UNL     1      43.235 -17.413   2.809  1.00  0.00     0.280 C 
HETATM   13  O   UNL     1      43.958 -16.708   2.125  1.00  0.00    -0.265 OA
HETATM   14  H   UNL     1      41.552 -17.867   3.856  1.00  0.00     0.169 HD
BRANCH  12  15
HETATM   15  C   UNL     1      43.806 -18.685   3.409  1.00  0.00     0.193 A 
HETATM   16  C   UNL     1      44.204 -18.755   4.872  1.00  0.00     0.280 A 
HETATM   17  N   UNL     1      44.633 -19.993   5.282  1.00  0.00    -0.324 N 
HETATM   18  O   UNL     1      44.187 -17.777   5.601  1.00  0.00    -0.265 OA
HETATM   19  C   UNL     1      44.744 -21.059   4.422  1.00  0.00     0.033 A 
HETATM   20  H   UNL     1      44.897 -20.073   6.256  1.00  0.00     0.169 HD
HETATM   21  C   UNL     1      45.241 -22.343   5.023  1.00  0.00     0.070 C 
HETATM   22  C   UNL     1      44.421 -20.892   3.120  1.00  0.00     0.054 A 
HETATM   23  N   UNL     1      43.958 -19.700   2.595  1.00  0.00    -0.241 NA
HETATM   24  C   UNL     1      44.500 -22.003   2.102  1.00  0.00     0.072 C 
ENDBRANCH  12  15
ENDBRANCH   1  11
BRANCH   6  25
HETATM   25  C   UNL     1      37.700 -12.607  -0.600  1.00  0.00     0.120 A 
HETATM   26  O   UNL     1      37.846 -12.810  -1.951  1.00  0.00    -0.319 OA
HETATM   27  C   UNL     1      36.993 -11.969  -2.587  1.00  0.00     0.142 A 
HETATM   28  C   UNL     1      36.287 -11.220  -1.678  1.00  0.00     0.027 A 
HETATM   29  C   UNL     1      36.742 -11.628  -0.401  1.00  0.00     0.043 A 
ENDBRANCH   6  25
TORSDOF 3
ENDMDL
MODEL 3
REMARK VINA RESULT:      -8.2      5.982      9.681
REMARK  3 active torsions:
REMARK  status: ('A' for Active; 'I' for Inactive)
REMARK    1  A    between atoms: C_6  and  C_7 
REMARK       I    between atoms: C_7  and  N_8 
REMARK    2  A    between atoms: N_8  and  C_9 
REMARK    3  A    between atoms: C_14  and  C_15 
ROOT
HETATM    1  C   UNL     1      41.411 -16.197   0.833  1.00  0.00     0.037 A 
HETATM    2  C   UNL     1      41.106 -16.066   2.194  1.00  0.00     0.061 A 
HETATM    3  C   UNL     1      41.991 -16.649   3.106  1.00  0.00     0.065 A 
HETATM    4  C   UNL     1      43.133 -17.347   2.732  1.00  0.00     0.086 A 
HETATM    5  N   UNL     1      43.811 -17.813   3.832  1.00  0.00    -0.226 NA
HETATM    6  C   UNL     1      43.108 -17.407   4.869  1.00  0.00     0.163 A 
HETATM    7  N   UNL     1      42.002 -16.701   4.476  1.00  0.00    -0.337 N 
HETATM    8  H   UNL     1      41.321 -16.294   5.102  1.00  0.00     0.167 HD
HETATM    9  C   UNL     1      43.430 -17.477   1.369  1.00  0.00     0.036 A 
HETATM   10  C   UNL     1      42.560 -16.896   0.432  1.00  0.00     0.032 A 
ENDROOT
BRANCH   1  11
HETATM   11  N   UNL     1      40.603 -15.660  -0.188  1.00  0.00    -0.321 N 
HETATM   12  C   UNL     1      40.817 -14.498  -0.906  1.00  0.00     0.280 C 
HETATM   13  O   UNL     1      41.766 -13.732  -0.856  1.00  0.00    -0.265 OA
HETATM   14  H   UNL     1      39.799 -16.206  -0.483  1.00  0.00     0.169 HD
BRANCH  12  15
HETATM   15  C   UNL     1      39.707 -14.226  -1.904  1.00  0.00     0.193 A 
HETATM   16  C   UNL     1      39.559 -15.059  -3.165  1.00  0.00     0.280 A 
HETATM   17  N   UNL     1      38.462 -14.739  -3.927  1.00  0.00    -0.324 N 
HETATM   18  O   UNL     1      40.376 -15.904  -3.487  1.00  0.00    -0.265 OA
HETATM   19  C   UNL     1      37.608 -13.714  -3.601  1.00  0.00     0.033 A 
HETATM   20  H   UNL     1      38.333 -15.285  -4.770  1.00  0.00     0.169 HD
HETATM   21  C   UNL     1      36.463 -13.482  -4.546  1.00  0.00     0.070 C 
HETATM   22  C   UNL     1      37.848 -12.985  -2.488  1.00  0.00     0.054 A 
HETATM   23  N   UNL     1      38.906 -13.225  -1.631  1.00  0.00    -0.241 NA
HETATM   24  C   UNL     1      36.963 -11.847  -2.041  1.00  0.00     0.072 C 
ENDBRANCH  12  15
ENDBRANCH   1  11
BRANCH   6  25
HETATM   25  C   UNL     1      43.420 -17.643   6.242  1.00  0.00     0.120 A 
HETATM   26  O   UNL     1      42.916 -16.874   7.262  1.00  0.00    -0.319 OA
HETATM   27  C   UNL     1      43.411 -17.361   8.427  1.00  0.00     0.142 A 
HETATM   28  C   UNL     1      44.227 -18.440   8.190  1.00  0.00     0.027 A 
HETATM   29  C   UNL     1      44.235 -18.620   6.786  1.00  0.00     0.043 A 
ENDBRANCH   6  25
TORSDOF 3
ENDMDL
MODEL 4
REMARK VINA RESULT:      -8.1      4.953      9.427
REMARK  3 active torsions:
REMARK  status: ('A' for Active; 'I' for Inactive)
REMARK    1  A    between atoms: C_6  and  C_7 
REMARK       I    between atoms: C_7  and  N_8 
REMARK    2  A    between atoms: N_8  and  C_9 
REMARK    3  A    between atoms: C_14  and  C_15 
ROOT
HETATM    1  C   UNL     1      41.815 -15.575   3.400  1.00  0.00     0.037 A 
HETATM    2  C   UNL     1      40.569 -15.546   2.762  1.00  0.00     0.061 A 
HETATM    3  C   UNL     1      39.978 -14.293   2.568  1.00  0.00     0.065 A 
HETATM    4  C   UNL     1      40.556 -13.099   2.981  1.00  0.00     0.086 A 
HETATM    5  N   UNL     1      39.756 -12.027   2.667  1.00  0.00    -0.226 NA
HETATM    6  C   UNL     1      38.705 -12.545   2.064  1.00  0.00     0.163 A 
HETATM    7  N   UNL     1      38.799 -13.910   1.984  1.00  0.00    -0.337 N 
HETATM    8  H   UNL     1      38.109 -14.515   1.562  1.00  0.00     0.167 HD
HETATM    9  C   UNL     1      41.800 -13.135   3.623  1.00  0.00     0.036 A 
HETATM   10  C   UNL     1      42.418 -14.381   3.823  1.00  0.00     0.032 A 
ENDROOT
BRANCH   1  11
HETATM   11  N   UNL     1      42.515 -16.769   3.658  1.00  0.00    -0.321 N 
HETATM   12  C   UNL     1      43.526 -17.332   2.900  1.00  0.00     0.280 C 
HETATM   13  O   UNL     1      44.063 -16.894   1.895  1.00  0.00    -0.265 OA
HETATM   14  H   UNL     1      42.309 -17.254   4.526  1.00  0.00     0.169 HD
BRANCH  12  15
HETATM   15  C   UNL     1      44.016 -18.646   3.479  1.00  0.00     0.193 A 
HETATM   16  C   UNL     1      44.394 -18.768   4.945  1.00  0.00     0.280 A 
HETATM   17  N   UNL     1      44.745 -20.037   5.333  1.00  0.00    -0.324 N 
HETATM   18  O   UNL     1      44.426 -17.806   5.693  1.00  0.00    -0.265 OA
HETATM   19  C   UNL     1      44.804 -21.091   4.453  1.00  0.00     0.033 A 
HETATM   20  H   UNL     1      44.994 -20.152   6.308  1.00  0.00     0.169 HD
HETATM   21  C   UNL     1      45.219 -22.413   5.032  1.00  0.00     0.070 C 
HETATM   22  C   UNL     1      44.504 -20.879   3.152  1.00  0.00     0.054 A 
HETATM   23  N   UNL     1      44.117 -19.653   2.646  1.00  0.00    -0.241 NA
HETATM   24  C   UNL     1      44.529 -21.973   2.112  1.00  0.00     0.072 C 
ENDBRANCH  12  15
ENDBRANCH   1  11
BRANCH   6  25
HETATM   25  C   UNL     1      37.591 -11.821   1.543  1.00  0.00     0.120 A 
HETATM   26  O   UNL     1      37.188 -10.610   2.051  1.00  0.00    -0.319 OA
HETATM   27  C   UNL     1      36.109 -10.204   1.337  1.00  0.00     0.142 A 
HETATM   28  C   UNL     1      35.799 -11.125   0.366  1.00  0.00     0.027 A 
HETATM   29  C   UNL     1      36.750 -12.164   0.499  1.00  0.00     0.043 A 
ENDBRANCH   6  25
TORSDOF 3
ENDMDL
MODEL 5
REMARK VINA RESULT:      -8.0      5.061      9.590
REMARK  3 active torsions:
REMARK  status: ('A' for Active; 'I' for Inactive)
REMARK    1  A    between atoms: C_6  and  C_7 
REMARK       I    between atoms: C_7  and  N_8 
REMARK    2  A    between atoms: N_8  and  C_9 
REMARK    3  A    between atoms: C_14  and  C_15 
ROOT
HETATM    1  C   UNL     1      41.082 -16.036   3.154  1.00  0.00     0.037 A 
HETATM    2  C   UNL     1      41.093 -14.826   3.859  1.00  0.00     0.061 A 
HETATM    3  C   UNL     1      40.205 -13.831   3.436  1.00  0.00     0.065 A 
HETATM    4  C   UNL     1      39.335 -13.982   2.363  1.00  0.00     0.086 A 
HETATM    5  N   UNL     1      38.585 -12.848   2.170  1.00  0.00    -0.226 NA
HETATM    6  C   UNL     1      38.976 -12.011   3.110  1.00  0.00     0.163 A 
HETATM    7  N   UNL     1      39.953 -12.565   3.895  1.00  0.00    -0.337 N 
HETATM    8  H   UNL     1      40.399 -12.105   4.676  1.00  0.00     0.167 HD
HETATM    9  C   UNL     1      39.332 -15.194   1.660  1.00  0.00     0.036 A 
HETATM   10  C   UNL     1      40.210 -16.211   2.068  1.00  0.00     0.032 A 
ENDROOT
BRANCH   1  11
HETATM   11  N   UNL     1      41.926 -17.117   3.475  1.00  0.00    -0.321 N 
HETATM   12  C   UNL     1      43.205 -17.352   3.007  1.00  0.00     0.280 C 
HETATM   13  O   UNL     1      43.893 -16.657   2.276  1.00  0.00    -0.265 OA
HETATM   14  H   UNL     1      41.596 -17.776   4.173  1.00  0.00     0.169 HD
BRANCH  12  15
HETATM   15  C   UNL     1      43.789 -18.642   3.552  1.00  0.00     0.193 A 
HETATM   16  C   UNL     1      44.198 -18.768   5.009  1.00  0.00     0.280 A 
HETATM   17  N   UNL     1      44.636 -20.019   5.367  1.00  0.00    -0.324 N 
HETATM   18  O   UNL     1      44.179 -17.820   5.776  1.00  0.00    -0.265 OA
HETATM   19  C   UNL     1      44.749 -21.049   4.465  1.00  0.00     0.033 A 
HETATM   20  H   UNL     1      44.908 -20.135   6.336  1.00  0.00     0.169 HD
HETATM   21  C   UNL     1      45.258 -22.352   5.011  1.00  0.00     0.070 C 
HETATM   22  C   UNL     1      44.416 -20.832   3.173  1.00  0.00     0.054 A 
HETATM   23  N   UNL     1      43.942 -19.624   2.698  1.00  0.00    -0.241 NA
HETATM   24  C   UNL     1      44.495 -21.902   2.111  1.00  0.00     0.072 C 
ENDBRANCH  12  15
ENDBRANCH   1  11
BRANCH   6  25
HETATM   25  C   UNL     1      38.476 -10.691   3.323  1.00  0.00     0.120 A 
HETATM   26  O   UNL     1      37.972 -10.273   4.531  1.00  0.00    -0.319 OA
HETATM   27  C   UNL     1      37.583  -8.982   4.388  1.00  0.00     0.142 A 
HETATM   28  C   UNL     1      37.826  -8.544   3.110  1.00  0.00     0.027 A 
HETATM   29  C   UNL     1      38.398  -9.642   2.425  1.00  0.00     0.043 A 
ENDBRANCH   6  25
TORSDOF 3
ENDMDL
MODEL 6
REMARK VINA RESULT:      -8.0      6.167      8.845
REMARK  3 active torsions:
REMARK  status: ('A' for Active; 'I' for Inactive)
REMARK    1  A    between atoms: C_6  and  C_7 
REMARK       I    between atoms: C_7  and  N_8 
REMARK    2  A    between atoms: N_8  and  C_9 
REMARK    3  A    between atoms: C_14  and  C_15 
ROOT
HETATM    1  C   UNL     1      42.464 -15.701   0.945  1.00  0.00     0.037 A 
HETATM    2  C   UNL     1      42.690 -17.068   0.746  1.00  0.00     0.061 A 
HETATM    3  C   UNL     1      43.173 -17.802   1.835  1.00  0.00     0.065 A 
HETATM    4  C   UNL     1      43.442 -17.245   3.079  1.00  0.00     0.086 A 
HETATM    5  N   UNL     1      43.909 -18.194   3.956  1.00  0.00    -0.226 NA
HETATM    6  C   UNL     1      43.921 -19.320   3.272  1.00  0.00     0.163 A 
HETATM    7  N   UNL     1      43.485 -19.128   1.988  1.00  0.00    -0.337 N 
HETATM    8  H   UNL     1      43.411 -19.851   1.286  1.00  0.00     0.167 HD
HETATM    9  C   UNL     1      43.218 -15.876   3.270  1.00  0.00     0.036 A 
HETATM   10  C   UNL     1      42.728 -15.117   2.195  1.00  0.00     0.032 A 
ENDROOT
BRANCH   1  11
HETATM   11  N   UNL     1      41.983 -14.849  -0.067  1.00  0.00    -0.321 N 
HETATM   12  C   UNL     1      40.671 -14.482  -0.303  1.00  0.00     0.280 C 
HETATM   13  O   UNL     1      39.671 -14.761   0.338  1.00  0.00    -0.265 OA
HETATM   14  H   UNL     1      42.669 -14.397  -0.664  1.00  0.00     0.169 HD
BRANCH  12  15
HETATM   15  C   UNL     1      40.536 -13.573  -1.511  1.00  0.00     0.193 A 
HETATM   16  C   UNL     1      40.811 -14.083  -2.915  1.00  0.00     0.280 A 
HETATM   17  N   UNL     1      40.573 -13.164  -3.906  1.00  0.00    -0.324 N 
HETATM   18  O   UNL     1      41.251 -15.200  -3.128  1.00  0.00    -0.265 OA
HETATM   19  C   UNL     1      40.176 -11.876  -3.641  1.00  0.00     0.033 A 
HETATM   20  H   UNL     1      40.739 -13.479  -4.855  1.00  0.00     0.169 HD
HETATM   21  C   UNL     1      39.970 -10.988  -4.835  1.00  0.00     0.070 C 
HETATM   22  C   UNL     1      40.009 -11.489  -2.356  1.00  0.00     0.054 A 
HETATM   23  N   UNL     1      40.198 -12.329  -1.275  1.00  0.00    -0.241 NA
HETATM   24  C   UNL     1      39.566 -10.101  -1.964  1.00  0.00     0.072 C 
ENDBRANCH  12  15
ENDBRANCH   1  11
BRANCH   6  25
HETATM   25  C   UNL     1      44.325 -20.598   3.762  1.00  0.00     0.120 A 
HETATM   26  O   UNL     1      44.326 -21.728   2.981  1.00  0.00    -0.319 OA
HETATM   27  C   UNL     1      44.756 -22.759   3.751  1.00  0.00     0.142 A 
HETATM   28  C   UNL     1      45.041 -22.325   5.022  1.00  0.00     0.027 A 
HETATM   29  C   UNL     1      44.764 -20.938   5.030  1.00  0.00     0.043 A 
ENDBRANCH   6  25
TORSDOF 3
ENDMDL
MODEL 7
REMARK VINA RESULT:      -7.9      2.496      3.078
REMARK  3 active torsions:
REMARK  status: ('A' for Active; 'I' for Inactive)
REMARK    1  A    between atoms: C_6  and  C_7 
REMARK       I    between atoms: C_7  and  N_8 
REMARK    2  A    between atoms: N_8  and  C_9 
REMARK    3  A    between atoms: C_14  and  C_15 
ROOT
HETATM    1  C   UNL     1      41.414 -14.437   5.369  1.00  0.00     0.037 A 
HETATM    2  C   UNL     1      42.352 -15.454   5.587  1.00  0.00     0.061 A 
HETATM    3  C   UNL     1      42.402 -16.491   4.650  1.00  0.00     0.065 A 
HETATM    4  C   UNL     1      41.574 -16.562   3.537  1.00  0.00     0.086 A 
HETATM    5  N   UNL     1      41.838 -17.686   2.793  1.00  0.00    -0.226 NA
HETATM    6  C   UNL     1      42.817 -18.298   3.428  1.00  0.00     0.163 A 
HETATM    7  N   UNL     1      43.187 -17.611   4.554  1.00  0.00    -0.337 N 
HETATM    8  H   UNL     1      43.917 -17.893   5.192  1.00  0.00     0.167 HD
HETATM    9  C   UNL     1      40.635 -15.543   3.326  1.00  0.00     0.036 A 
HETATM   10  C   UNL     1      40.569 -14.487   4.249  1.00  0.00     0.032 A 
ENDROOT
BRANCH   1  11
HETATM   11  N   UNL     1      41.260 -13.339   6.236  1.00  0.00    -0.321 N 
HETATM   12  C   UNL     1      41.470 -12.003   5.947  1.00  0.00     0.280 C 
HETATM   13  O   UNL     1      41.770 -11.489   4.883  1.00  0.00    -0.265 OA
HETATM   14  H   UNL     1      40.896 -13.526   7.166  1.00  0.00     0.169 HD
BRANCH  12  15
HETATM   15  C   UNL     1      41.233 -11.110   7.152  1.00  0.00     0.193 A 
HETATM   16  C   UNL     1      39.928 -10.354   7.327  1.00  0.00     0.280 A 
HETATM   17  N   UNL     1      39.837  -9.651   8.502  1.00  0.00    -0.324 N 
HETATM   18  O   UNL     1      39.062 -10.341   6.469  1.00  0.00    -0.265 OA
HETATM   19  C   UNL     1      40.865  -9.593   9.412  1.00  0.00     0.033 A 
HETATM   20  H   UNL     1      38.973  -9.143   8.651  1.00  0.00     0.169 HD
HETATM   21  C   UNL     1      40.614  -8.769  10.642  1.00  0.00     0.070 C 
HETATM   22  C   UNL     1      42.016 -10.252   9.147  1.00  0.00     0.054 A 
HETATM   23  N   UNL     1      42.218 -11.010   8.010  1.00  0.00    -0.241 NA
HETATM   24  C   UNL     1      43.197 -10.258  10.087  1.00  0.00     0.072 C 
ENDBRANCH  12  15
ENDBRANCH   1  11
BRANCH   6  25
HETATM   25  C   UNL     1      43.444 -19.518   3.033  1.00  0.00     0.120 A 
HETATM   26  O   UNL     1      44.356 -20.175   3.822  1.00  0.00    -0.319 OA
HETATM   27  C   UNL     1      44.756 -21.284   3.151  1.00  0.00     0.142 A 
HETATM   28  C   UNL     1      44.118 -21.369   1.938  1.00  0.00     0.027 A 
HETATM   29  C   UNL     1      43.277 -20.234   1.860  1.00  0.00     0.043 A 
ENDBRANCH   6  25
TORSDOF 3
ENDMDL
MODEL 8
REMARK VINA RESULT:      -7.9      6.427      9.169
REMARK  3 active torsions:
REMARK  status: ('A' for Active; 'I' for Inactive)
REMARK    1  A    between atoms: C_6  and  C_7 
REMARK       I    between atoms: C_7  and  N_8 
REMARK    2  A    between atoms: N_8  and  C_9 
REMARK    3  A    between atoms: C_14  and  C_15 
ROOT
HETATM    1  C   UNL     1      41.403 -15.862   0.940  1.00  0.00     0.037 A 
HETATM    2  C   UNL     1      41.443 -17.262   0.953  1.00  0.00     0.061 A 
HETATM    3  C   UNL     1      42.358 -17.868   1.822  1.00  0.00     0.065 A 
HETATM    4  C   UNL     1      43.218 -17.158   2.650  1.00  0.00     0.086 A 
HETATM    5  N   UNL     1      44.006 -18.006   3.389  1.00  0.00    -0.226 NA
HETATM    6  C   UNL     1      43.637 -19.220   3.032  1.00  0.00     0.163 A 
HETATM    7  N   UNL     1      42.645 -19.181   2.088  1.00  0.00    -0.337 N 
HETATM    8  H   UNL     1      42.209 -19.992   1.672  1.00  0.00     0.167 HD
HETATM    9  C   UNL     1      43.176 -15.758   2.629  1.00  0.00     0.036 A 
HETATM   10  C   UNL     1      42.262 -15.125   1.771  1.00  0.00     0.032 A 
ENDROOT
BRANCH   1  11
HETATM   11  N   UNL     1      40.532 -15.129   0.112  1.00  0.00    -0.321 N 
HETATM   12  C   UNL     1      40.578 -15.014  -1.265  1.00  0.00     0.280 C 
HETATM   13  O   UNL     1      41.331 -15.561  -2.053  1.00  0.00    -0.265 OA
HETATM   14  H   UNL     1      39.738 -14.674   0.555  1.00  0.00     0.169 HD
BRANCH  12  15
HETATM   15  C   UNL     1      39.487 -14.106  -1.803  1.00  0.00     0.193 A 
HETATM   16  C   UNL     1      39.375 -12.660  -1.356  1.00  0.00     0.280 A 
HETATM   17  N   UNL     1      38.387 -11.948  -1.989  1.00  0.00    -0.324 N 
HETATM   18  O   UNL     1      40.078 -12.193  -0.474  1.00  0.00    -0.265 OA
HETATM   19  C   UNL     1      37.536 -12.517  -2.906  1.00  0.00     0.033 A 
HETATM   20  H   UNL     1      38.294 -10.977  -1.717  1.00  0.00     0.169 HD
HETATM   21  C   UNL     1      36.498 -11.607  -3.498  1.00  0.00     0.070 C 
HETATM   22  C   UNL     1      37.672 -13.829  -3.203  1.00  0.00     0.054 A 
HETATM   23  N   UNL     1      38.642 -14.643  -2.649  1.00  0.00    -0.241 NA
HETATM   24  C   UNL     1      36.795 -14.542  -4.203  1.00  0.00     0.072 C 
ENDBRANCH  12  15
ENDBRANCH   1  11
BRANCH   6  25
HETATM   25  C   UNL     1      44.169 -20.444   3.537  1.00  0.00     0.120 A 
HETATM   26  O   UNL     1      44.110 -21.625   2.837  1.00  0.00    -0.319 OA
HETATM   27  C   UNL     1      44.697 -22.582   3.598  1.00  0.00     0.142 A 
HETATM   28  C   UNL     1      45.143 -22.050   4.783  1.00  0.00     0.027 A 
HETATM   29  C   UNL     1      44.803 -20.677   4.745  1.00  0.00     0.043 A 
ENDBRANCH   6  25
TORSDOF 3
ENDMDL
MODEL 9
REMARK VINA RESULT:      -7.8      6.121      9.468
REMARK  3 active torsions:
REMARK  status: ('A' for Active; 'I' for Inactive)
REMARK    1  A    between atoms: C_6  and  C_7 
REMARK       I    between atoms: C_7  and  N_8 
REMARK    2  A    between atoms: N_8  and  C_9 
REMARK    3  A    between atoms: C_14  and  C_15 
ROOT
HETATM    1  C   UNL     1      41.330 -16.454   1.704  1.00  0.00     0.037 A 
HETATM    2  C   UNL     1      41.805 -15.874   0.521  1.00  0.00     0.061 A 
HETATM    3  C   UNL     1      41.024 -14.867  -0.057  1.00  0.00     0.065 A 
HETATM    4  C   UNL     1      39.818 -14.430   0.475  1.00  0.00     0.086 A 
HETATM    5  N   UNL     1      39.266 -13.438  -0.299  1.00  0.00    -0.226 NA
HETATM    6  C   UNL     1      40.118 -13.257  -1.287  1.00  0.00     0.163 A 
HETATM    7  N   UNL     1      41.193 -14.099  -1.179  1.00  0.00    -0.337 N 
HETATM    8  H   UNL     1      41.969 -14.135  -1.825  1.00  0.00     0.167 HD
HETATM    9  C   UNL     1      39.346 -15.017   1.656  1.00  0.00     0.036 A 
HETATM   10  C   UNL     1      40.114 -16.026   2.259  1.00  0.00     0.032 A 
ENDROOT
BRANCH   1  11
HETATM   11  N   UNL     1      42.017 -17.478   2.384  1.00  0.00    -0.321 N 
HETATM   12  C   UNL     1      42.921 -17.339   3.421  1.00  0.00     0.280 C 
HETATM   13  O   UNL     1      43.269 -16.324   4.001  1.00  0.00    -0.265 OA
HETATM   14  H   UNL     1      41.789 -18.437   2.138  1.00  0.00     0.169 HD
BRANCH  12  15
HETATM   15  C   UNL     1      43.483 -18.673   3.877  1.00  0.00     0.193 A 
HETATM   16  C   UNL     1      44.078 -19.657   2.885  1.00  0.00     0.280 A 
HETATM   17  N   UNL     1      44.613 -20.783   3.459  1.00  0.00    -0.324 N 
HETATM   18  O   UNL     1      44.037 -19.474   1.680  1.00  0.00    -0.265 OA
HETATM   19  C   UNL     1      44.559 -21.021   4.811  1.00  0.00     0.033 A 
HETATM   20  H   UNL     1      45.025 -21.454   2.823  1.00  0.00     0.169 HD
HETATM   21  C   UNL     1      45.177 -22.307   5.281  1.00  0.00     0.070 C 
HETATM   22  C   UNL     1      43.958 -20.115   5.616  1.00  0.00     0.054 A 
HETATM   23  N   UNL     1      43.404 -18.936   5.158  1.00  0.00    -0.241 NA
HETATM   24  C   UNL     1      43.858 -20.282   7.112  1.00  0.00     0.072 C 
ENDBRANCH  12  15
ENDBRANCH   1  11
BRANCH   6  25
HETATM   25  C   UNL     1      39.984 -12.317  -2.353  1.00  0.00     0.120 A 
HETATM   26  O   UNL     1      39.326 -11.119  -2.210  1.00  0.00    -0.319 OA
HETATM   27  C   UNL     1      39.379 -10.476  -3.403  1.00  0.00     0.142 A 
HETATM   28  C   UNL     1      40.063 -11.229  -4.325  1.00  0.00     0.027 A 
HETATM   29  C   UNL     1      40.451 -12.412  -3.652  1.00  0.00     0.043 A 
ENDBRANCH   6  25
TORSDOF 3
ENDMDL
MODEL 10
REMARK VINA RESULT:      -7.7      4.972      6.494
REMARK  3 active torsions:
REMARK  status: ('A' for Active; 'I' for Inactive)
REMARK    1  A    between atoms: C_6  and  C_7 
REMARK       I    between atoms: C_7  and  N_8 
REMARK    2  A    between atoms: N_8  and  C_9 
REMARK    3  A    between atoms: C_14  and  C_15 
ROOT
HETATM    1  C   UNL     1      42.931 -14.778   3.234  1.00  0.00     0.037 A 
HETATM    2  C   UNL     1      43.355 -15.923   2.547  1.00  0.00     0.061 A 
HETATM    3  C   UNL     1      43.553 -17.085   3.301  1.00  0.00     0.065 A 
HETATM    4  C   UNL     1      43.362 -17.152   4.675  1.00  0.00     0.086 A 
HETATM    5  N   UNL     1      43.634 -18.411   5.152  1.00  0.00    -0.226 NA
HETATM    6  C   UNL     1      43.981 -19.114   4.093  1.00  0.00     0.163 A 
HETATM    7  N   UNL     1      43.946 -18.352   2.956  1.00  0.00    -0.337 N 
HETATM    8  H   UNL     1      44.172 -18.683   2.029  1.00  0.00     0.167 HD
HETATM    9  C   UNL     1      42.942 -16.002   5.357  1.00  0.00     0.036 A 
HETATM   10  C   UNL     1      42.729 -14.824   4.623  1.00  0.00     0.032 A 
ENDROOT
BRANCH   1  11
HETATM   11  N   UNL     1      42.696 -13.545   2.596  1.00  0.00    -0.321 N 
HETATM   12  C   UNL     1      41.990 -13.324   1.428  1.00  0.00     0.280 C 
HETATM   13  O   UNL     1      41.377 -14.124   0.742  1.00  0.00    -0.265 OA
HETATM   14  H   UNL     1      43.026 -12.706   3.065  1.00  0.00     0.169 HD
BRANCH  12  15
HETATM   15  C   UNL     1      41.981 -11.859   1.031  1.00  0.00     0.193 A 
HETATM   16  C   UNL     1      41.145 -10.843   1.788  1.00  0.00     0.280 A 
HETATM   17  N   UNL     1      41.302  -9.549   1.357  1.00  0.00    -0.324 N 
HETATM   18  O   UNL     1      40.368 -11.165   2.671  1.00  0.00    -0.265 OA
HETATM   19  C   UNL     1      42.104  -9.216   0.292  1.00  0.00     0.033 A 
HETATM   20  H   UNL     1      40.763  -8.847   1.849  1.00  0.00     0.169 HD
HETATM   21  C   UNL     1      42.158  -7.758  -0.064  1.00  0.00     0.070 C 
HETATM   22  C   UNL     1      42.770 -10.195  -0.362  1.00  0.00     0.054 A 
HETATM   23  N   UNL     1      42.709 -11.529  -0.008  1.00  0.00    -0.241 NA
HETATM   24  C   UNL     1      43.682  -9.928  -1.534  1.00  0.00     0.072 C 
ENDBRANCH  12  15
ENDBRANCH   1  11
BRANCH   6  25
HETATM   25  C   UNL     1      44.350 -20.493   4.082  1.00  0.00     0.120 A 
HETATM   26  O   UNL     1      44.733 -21.169   5.215  1.00  0.00    -0.319 OA
HETATM   27  C   UNL     1      45.018 -22.445   4.854  1.00  0.00     0.142 A 
HETATM   28  C   UNL     1      44.824 -22.619   3.506  1.00  0.00     0.027 A 
HETATM   29  C   UNL     1      44.397 -21.365   3.009  1.00  0.00     0.043 A 
ENDBRANCH   6  25
TORSDOF 3
ENDMDL
