MODEL 1
REMARK VINA RESULT:      -8.9      0.000      0.000
REMARK  4 active torsions:
REMARK  status: ('A' for Active; 'I' for Inactive)
REMARK    1  A    between atoms: C_6  and  C_7 
REMARK    2  A    between atoms: C_8  and  C_9 
REMARK       I    between atoms: C_9  and  N_10 
REMARK    3  A    between atoms: N_10  and  C_11 
REMARK    4  A    between atoms: C_18  and  C_19 
REMARK       I    between atoms: C_19  and  N_20 
ROOT
HETATM    1  C   UNL     1      41.464 -16.759   1.118  1.00  0.00     0.035 A 
HETATM    2  C   UNL     1      41.585 -16.219  -0.174  1.00  0.00     0.046 A 
HETATM    3  C   UNL     1      40.845 -15.070  -0.523  1.00  0.00     0.030 A 
HETATM    4  C   UNL     1      39.991 -14.513   0.418  1.00  0.00     0.063 A 
HETATM    5  N   UNL     1      39.422 -13.435  -0.200  1.00  0.00    -0.277 N 
HETATM    6  H   UNL     1      38.742 -12.792   0.192  1.00  0.00     0.189 HD
HETATM    7  N   UNL     1      39.840 -13.233  -1.462  1.00  0.00    -0.168 NA
HETATM    8  C   UNL     1      40.720 -14.237  -1.674  1.00  0.00     0.156 A 
HETATM    9  C   UNL     1      39.831 -15.034   1.702  1.00  0.00     0.034 A 
HETATM   10  C   UNL     1      40.589 -16.167   2.033  1.00  0.00     0.032 A 
ENDROOT
BRANCH   1  11
HETATM   11  N   UNL     1      42.243 -17.898   1.411  1.00  0.00    -0.327 N 
HETATM   12  C   UNL     1      43.602 -17.937   1.643  1.00  0.00     0.227 C 
HETATM   13  O   UNL     1      44.398 -17.017   1.530  1.00  0.00    -0.273 OA
HETATM   14  H   UNL     1      41.762 -18.786   1.394  1.00  0.00     0.169 HD
BRANCH  12  15
HETATM   15  C   UNL     1      44.129 -19.293   1.959  1.00  0.00     0.087 A 
HETATM   16  C   UNL     1      44.405 -19.735   3.387  1.00  0.00     0.032 A 
HETATM   17  C   UNL     1      43.301 -20.384   2.581  1.00  0.00     0.025 A 
BRANCH  16  18
HETATM   18  C   UNL     1      44.027 -18.933   4.614  1.00  0.00    -0.051 A 
HETATM   19  C   UNL     1      42.728 -18.433   4.806  1.00  0.00     0.031 A 
HETATM   20  C   UNL     1      42.400 -17.684   5.938  1.00  0.00     0.034 A 
HETATM   21  C   UNL     1      43.366 -17.389   6.894  1.00  0.00     0.024 A 
HETATM   22 CL   UNL     1      40.788 -17.115   6.152  1.00  0.00    -0.084 Cl
HETATM   23  C   UNL     1      44.668 -17.845   6.714  1.00  0.00     0.002 A 
HETATM   24  C   UNL     1      44.990 -18.605   5.585  1.00  0.00     0.007 A 
ENDBRANCH  16  18
ENDBRANCH  12  15
ENDBRANCH   1  11
BRANCH   8  25
HETATM   25  C   UNL     1      41.427 -14.377  -2.954  1.00  0.00     0.270 C 
HETATM   26  N   UNL     1      42.596 -13.670  -3.027  1.00  0.00    -0.365 N 
HETATM   27  H   UNL     1      42.886 -13.129  -2.220  1.00  0.00     0.159 HD
HETATM   28  H   UNL     1      43.164 -13.718  -3.858  1.00  0.00     0.159 HD
HETATM   29  O   UNL     1      41.035 -15.064  -3.892  1.00  0.00    -0.266 OA
ENDBRANCH   8  25
TORSDOF 4
ENDMDL
MODEL 2
REMARK VINA RESULT:      -8.7      2.920      4.302
REMARK  4 active torsions:
REMARK  status: ('A' for Active; 'I' for Inactive)
REMARK    1  A    between atoms: C_6  and  C_7 
REMARK    2  A    between atoms: C_8  and  C_9 
REMARK       I    between atoms: C_9  and  N_10 
REMARK    3  A    between atoms: N_10  and  C_11 
REMARK    4  A    between atoms: C_18  and  C_19 
REMARK       I    between atoms: C_19  and  N_20 
ROOT
HETATM    1  C   UNL     1      42.779 -17.728   2.006  1.00  0.00     0.035 A 
HETATM    2  C   UNL     1      42.394 -17.029   3.162  1.00  0.00     0.046 A 
HETATM    3  C   UNL     1      41.454 -15.982   3.065  1.00  0.00     0.030 A 
HETATM    4  C   UNL     1      40.949 -15.650   1.816  1.00  0.00     0.063 A 
HETATM    5  N   UNL     1      40.081 -14.618   2.036  1.00  0.00    -0.277 N 
HETATM    6  H   UNL     1      39.530 -14.122   1.344  1.00  0.00     0.189 HD
HETATM    7  N   UNL     1      39.966 -14.254   3.326  1.00  0.00    -0.168 NA
HETATM    8  C   UNL     1      40.810 -15.089   3.972  1.00  0.00     0.156 A 
HETATM    9  C   UNL     1      41.325 -16.309   0.645  1.00  0.00     0.034 A 
HETATM   10  C   UNL     1      42.248 -17.357   0.767  1.00  0.00     0.032 A 
ENDROOT
BRANCH   1  11
HETATM   11  N   UNL     1      43.709 -18.776   2.171  1.00  0.00    -0.327 N 
HETATM   12  C   UNL     1      43.466 -20.128   2.054  1.00  0.00     0.227 C 
HETATM   13  O   UNL     1      42.384 -20.673   1.894  1.00  0.00    -0.273 OA
HETATM   14  H   UNL     1      44.639 -18.508   2.463  1.00  0.00     0.169 HD
BRANCH  12  15
HETATM   15  C   UNL     1      44.667 -20.985   2.257  1.00  0.00     0.087 A 
HETATM   16  C   UNL     1      45.326 -21.138   3.618  1.00  0.00     0.032 A 
HETATM   17  C   UNL     1      44.633 -22.313   2.962  1.00  0.00     0.025 A 
BRANCH  16  18
HETATM   18  C   UNL     1      44.752 -20.589   4.906  1.00  0.00    -0.051 A 
HETATM   19  C   UNL     1      44.838 -19.228   5.241  1.00  0.00     0.031 A 
HETATM   20  C   UNL     1      44.314 -18.741   6.440  1.00  0.00     0.034 A 
HETATM   21  C   UNL     1      43.714 -19.604   7.351  1.00  0.00     0.024 A 
HETATM   22 CL   UNL     1      44.414 -17.060   6.799  1.00  0.00    -0.084 Cl
HETATM   23  C   UNL     1      43.642 -20.963   7.060  1.00  0.00     0.002 A 
HETATM   24  C   UNL     1      44.157 -21.445   5.853  1.00  0.00     0.007 A 
ENDBRANCH  16  18
ENDBRANCH  12  15
ENDBRANCH   1  11
BRANCH   8  25
HETATM   25  C   UNL     1      40.977 -15.030   5.431  1.00  0.00     0.270 C 
HETATM   26  N   UNL     1      39.884 -15.452   6.136  1.00  0.00    -0.365 N 
HETATM   27  H   UNL     1      39.071 -15.773   5.624  1.00  0.00     0.159 HD
HETATM   28  H   UNL     1      39.909 -15.468   7.143  1.00  0.00     0.159 HD
HETATM   29  O   UNL     1      41.996 -14.648   5.997  1.00  0.00    -0.266 OA
ENDBRANCH   8  25
TORSDOF 4
ENDMDL
MODEL 3
REMARK VINA RESULT:      -8.2      3.373      8.008
REMARK  4 active torsions:
REMARK  status: ('A' for Active; 'I' for Inactive)
REMARK    1  A    between atoms: C_6  and  C_7 
REMARK    2  A    between atoms: C_8  and  C_9 
REMARK       I    between atoms: C_9  and  N_10 
REMARK    3  A    between atoms: N_10  and  C_11 
REMARK    4  A    between atoms: C_18  and  C_19 
REMARK       I    between atoms: C_19  and  N_20 
ROOT
HETATM    1  C   UNL     1      42.030 -17.646   2.846  1.00  0.00     0.035 A 
HETATM    2  C   UNL     1      42.494 -18.039   4.113  1.00  0.00     0.046 A 
HETATM    3  C   UNL     1      43.520 -19.001   4.214  1.00  0.00     0.030 A 
HETATM    4  C   UNL     1      44.033 -19.557   3.051  1.00  0.00     0.063 A 
HETATM    5  N   UNL     1      44.991 -20.440   3.461  1.00  0.00    -0.277 N 
HETATM    6  H   UNL     1      45.573 -21.030   2.876  1.00  0.00     0.189 HD
HETATM    7  N   UNL     1      45.158 -20.500   4.794  1.00  0.00    -0.168 NA
HETATM    8  C   UNL     1      44.254 -19.615   5.272  1.00  0.00     0.156 A 
HETATM    9  C   UNL     1      43.582 -19.206   1.778  1.00  0.00     0.034 A 
HETATM   10  C   UNL     1      42.572 -18.236   1.701  1.00  0.00     0.032 A 
ENDROOT
BRANCH   1  11
HETATM   11  N   UNL     1      41.015 -16.667   2.810  1.00  0.00    -0.327 N 
HETATM   12  C   UNL     1      41.175 -15.301   2.889  1.00  0.00     0.227 C 
HETATM   13  O   UNL     1      42.210 -14.690   3.113  1.00  0.00    -0.273 OA
HETATM   14  H   UNL     1      40.064 -17.010   2.781  1.00  0.00     0.169 HD
BRANCH  12  15
HETATM   15  C   UNL     1      39.906 -14.529   2.790  1.00  0.00     0.087 A 
HETATM   16  C   UNL     1      39.604 -13.627   1.605  1.00  0.00     0.032 A 
HETATM   17  C   UNL     1      38.790 -14.880   1.846  1.00  0.00     0.025 A 
BRANCH  16  18
HETATM   18  C   UNL     1      40.457 -13.550   0.356  1.00  0.00    -0.051 A 
HETATM   19  C   UNL     1      40.401 -14.532  -0.646  1.00  0.00     0.031 A 
HETATM   20  C   UNL     1      41.204 -14.450  -1.786  1.00  0.00     0.034 A 
HETATM   21  C   UNL     1      42.106 -13.403  -1.942  1.00  0.00     0.024 A 
HETATM   22 CL   UNL     1      41.084 -15.659  -3.007  1.00  0.00    -0.084 Cl
HETATM   23  C   UNL     1      42.204 -12.432  -0.949  1.00  0.00     0.002 A 
HETATM   24  C   UNL     1      41.389 -12.510   0.184  1.00  0.00     0.007 A 
ENDBRANCH  16  18
ENDBRANCH  12  15
ENDBRANCH   1  11
BRANCH   8  25
HETATM   25  C   UNL     1      44.115 -19.365   6.713  1.00  0.00     0.270 C 
HETATM   26  N   UNL     1      44.568 -18.139   7.113  1.00  0.00    -0.365 N 
HETATM   27  H   UNL     1      44.943 -17.509   6.414  1.00  0.00     0.159 HD
HETATM   28  H   UNL     1      44.497 -17.866   8.081  1.00  0.00     0.159 HD
HETATM   29  O   UNL     1      43.634 -20.162   7.512  1.00  0.00    -0.266 OA
ENDBRANCH   8  25
TORSDOF 4
ENDMDL
MODEL 4
REMARK VINA RESULT:      -8.1      3.113      7.149
REMARK  4 active torsions:
REMARK  status: ('A' for Active; 'I' for Inactive)
REMARK    1  A    between atoms: C_6  and  C_7 
REMARK    2  A    between atoms: C_8  and  C_9 
REMARK       I    between atoms: C_9  and  N_10 
REMARK    3  A    between atoms: N_10  and  C_11 
REMARK    4  A    between atoms: C_18  and  C_19 
REMARK       I    between atoms: C_19  and  N_20 
ROOT
HETATM    1  C   UNL     1      43.170 -18.266   2.178  1.00  0.00     0.035 A 
HETATM    2  C   UNL     1      43.427 -18.202   3.558  1.00  0.00     0.046 A 
HETATM    3  C   UNL     1      43.978 -19.320   4.219  1.00  0.00     0.030 A 
HETATM    4  C   UNL     1      44.231 -20.471   3.487  1.00  0.00     0.063 A 
HETATM    5  N   UNL     1      44.749 -21.365   4.382  1.00  0.00    -0.277 N 
HETATM    6  H   UNL     1      45.048 -22.316   4.196  1.00  0.00     0.189 HD
HETATM    7  N   UNL     1      44.869 -20.890   5.635  1.00  0.00    -0.168 NA
HETATM    8  C   UNL     1      44.395 -19.627   5.548  1.00  0.00     0.156 A 
HETATM    9  C   UNL     1      43.968 -20.577   2.121  1.00  0.00     0.034 A 
HETATM   10  C   UNL     1      43.436 -19.448   1.482  1.00  0.00     0.032 A 
ENDROOT
BRANCH   1  11
HETATM   11  N   UNL     1      42.635 -17.110   1.572  1.00  0.00    -0.327 N 
HETATM   12  C   UNL     1      41.312 -16.865   1.273  1.00  0.00     0.227 C 
HETATM   13  O   UNL     1      40.375 -17.644   1.376  1.00  0.00    -0.273 OA
HETATM   14  H   UNL     1      43.302 -16.411   1.274  1.00  0.00     0.169 HD
BRANCH  12  15
HETATM   15  C   UNL     1      41.059 -15.531   0.662  1.00  0.00     0.087 A 
HETATM   16  C   UNL     1      40.814 -14.293   1.509  1.00  0.00     0.032 A 
HETATM   17  C   UNL     1      42.063 -14.412   0.662  1.00  0.00     0.025 A 
BRANCH  16  18
HETATM   18  C   UNL     1      40.965 -14.249   3.015  1.00  0.00    -0.051 A 
HETATM   19  C   UNL     1      42.220 -14.138   3.636  1.00  0.00     0.031 A 
HETATM   20  C   UNL     1      42.340 -14.112   5.027  1.00  0.00     0.034 A 
HETATM   21  C   UNL     1      41.215 -14.224   5.836  1.00  0.00     0.024 A 
HETATM   22 CL   UNL     1      43.895 -13.945   5.749  1.00  0.00    -0.084 Cl
HETATM   23  C   UNL     1      39.961 -14.366   5.248  1.00  0.00     0.002 A 
HETATM   24  C   UNL     1      39.843 -14.380   3.855  1.00  0.00     0.007 A 
ENDBRANCH  16  18
ENDBRANCH  12  15
ENDBRANCH   1  11
BRANCH   8  25
HETATM   25  C   UNL     1      44.359 -18.741   6.718  1.00  0.00     0.270 C 
HETATM   26  N   UNL     1      43.654 -19.241   7.777  1.00  0.00    -0.365 N 
HETATM   27  H   UNL     1      43.230 -20.158   7.687  1.00  0.00     0.159 HD
HETATM   28  H   UNL     1      43.588 -18.715   8.634  1.00  0.00     0.159 HD
HETATM   29  O   UNL     1      44.909 -17.645   6.776  1.00  0.00    -0.266 OA
ENDBRANCH   8  25
TORSDOF 4
ENDMDL
MODEL 5
REMARK VINA RESULT:      -8.0      3.589      7.204
REMARK  4 active torsions:
REMARK  status: ('A' for Active; 'I' for Inactive)
REMARK    1  A    between atoms: C_6  and  C_7 
REMARK    2  A    between atoms: C_8  and  C_9 
REMARK       I    between atoms: C_9  and  N_10 
REMARK    3  A    between atoms: N_10  and  C_11 
REMARK    4  A    between atoms: C_18  and  C_19 
REMARK       I    between atoms: C_19  and  N_20 
ROOT
HETATM    1  C   UNL     1      43.471 -16.369   5.668  1.00  0.00     0.035 A 
HETATM    2  C   UNL     1      43.343 -17.137   4.498  1.00  0.00     0.046 A 
HETATM    3  C   UNL     1      44.024 -18.367   4.391  1.00  0.00     0.030 A 
HETATM    4  C   UNL     1      44.829 -18.780   5.444  1.00  0.00     0.063 A 
HETATM    5  N   UNL     1      45.348 -19.982   5.055  1.00  0.00    -0.277 N 
HETATM    6  H   UNL     1      45.985 -20.573   5.579  1.00  0.00     0.189 HD
HETATM    7  N   UNL     1      44.941 -20.398   3.843  1.00  0.00    -0.168 NA
HETATM    8  C   UNL     1      44.122 -19.409   3.422  1.00  0.00     0.156 A 
HETATM    9  C   UNL     1      44.996 -18.033   6.611  1.00  0.00     0.034 A 
HETATM   10  C   UNL     1      44.297 -16.821   6.701  1.00  0.00     0.032 A 
ENDROOT
BRANCH   1  11
HETATM   11  N   UNL     1      42.751 -15.157   5.721  1.00  0.00    -0.327 N 
HETATM   12  C   UNL     1      43.139 -13.938   5.208  1.00  0.00     0.227 C 
HETATM   13  O   UNL     1      44.220 -13.655   4.712  1.00  0.00    -0.273 OA
HETATM   14  H   UNL     1      41.884 -15.173   6.241  1.00  0.00     0.169 HD
BRANCH  12  15
HETATM   15  C   UNL     1      42.141 -12.849   5.396  1.00  0.00     0.087 A 
HETATM   16  C   UNL     1      41.056 -12.568   4.370  1.00  0.00     0.032 A 
HETATM   17  C   UNL     1      40.698 -13.094   5.743  1.00  0.00     0.025 A 
BRANCH  16  18
HETATM   18  C   UNL     1      40.776 -13.442   3.167  1.00  0.00    -0.051 A 
HETATM   19  C   UNL     1      41.346 -13.185   1.909  1.00  0.00     0.031 A 
HETATM   20  C   UNL     1      41.067 -13.995   0.807  1.00  0.00     0.034 A 
HETATM   21  C   UNL     1      40.189 -15.067   0.923  1.00  0.00     0.024 A 
HETATM   22 CL   UNL     1      41.810 -13.663  -0.711  1.00  0.00    -0.084 Cl
HETATM   23  C   UNL     1      39.585 -15.328   2.149  1.00  0.00     0.002 A 
HETATM   24  C   UNL     1      39.877 -14.521   3.254  1.00  0.00     0.007 A 
ENDBRANCH  16  18
ENDBRANCH  12  15
ENDBRANCH   1  11
BRANCH   8  25
HETATM   25  C   UNL     1      43.445 -19.477   2.119  1.00  0.00     0.270 C 
HETATM   26  N   UNL     1      43.663 -18.390   1.319  1.00  0.00    -0.365 N 
HETATM   27  H   UNL     1      44.261 -17.647   1.662  1.00  0.00     0.159 HD
HETATM   28  H   UNL     1      43.258 -18.353   0.397  1.00  0.00     0.159 HD
HETATM   29  O   UNL     1      42.746 -20.415   1.750  1.00  0.00    -0.266 OA
ENDBRANCH   8  25
TORSDOF 4
ENDMDL
MODEL 6
REMARK VINA RESULT:      -7.9      2.090      2.563
REMARK  4 active torsions:
REMARK  status: ('A' for Active; 'I' for Inactive)
REMARK    1  A    between atoms: C_6  and  C_7 
REMARK    2  A    between atoms: C_8  and  C_9 
REMARK       I    between atoms: C_9  and  N_10 
REMARK    3  A    between atoms: N_10  and  C_11 
REMARK    4  A    between atoms: C_18  and  C_19 
REMARK       I    between atoms: C_19  and  N_20 
ROOT
HETATM    1  C   UNL     1      41.427 -14.831   0.050  1.00  0.00     0.035 A 
HETATM    2  C   UNL     1      40.731 -15.109  -1.139  1.00  0.00     0.046 A 
HETATM    3  C   UNL     1      39.748 -14.208  -1.600  1.00  0.00     0.030 A 
HETATM    4  C   UNL     1      39.474 -13.075  -0.848  1.00  0.00     0.063 A 
HETATM    5  N   UNL     1      38.496 -12.411  -1.533  1.00  0.00    -0.277 N 
HETATM    6  H   UNL     1      38.049 -11.539  -1.273  1.00  0.00     0.189 HD
HETATM    7  N   UNL     1      38.115 -13.008  -2.676  1.00  0.00    -0.168 NA
HETATM    8  C   UNL     1      38.881 -14.121  -2.729  1.00  0.00     0.156 A 
HETATM    9  C   UNL     1      40.131 -12.779   0.347  1.00  0.00     0.034 A 
HETATM   10  C   UNL     1      41.115 -13.680   0.778  1.00  0.00     0.032 A 
ENDROOT
BRANCH   1  11
HETATM   11  N   UNL     1      42.409 -15.762   0.449  1.00  0.00    -0.327 N 
HETATM   12  C   UNL     1      42.208 -17.071   0.830  1.00  0.00     0.227 C 
HETATM   13  O   UNL     1      41.136 -17.635   0.999  1.00  0.00    -0.273 OA
HETATM   14  H   UNL     1      43.356 -15.412   0.517  1.00  0.00     0.169 HD
BRANCH  12  15
HETATM   15  C   UNL     1      43.456 -17.810   1.165  1.00  0.00     0.087 A 
HETATM   16  C   UNL     1      43.998 -17.871   2.584  1.00  0.00     0.032 A 
HETATM   17  C   UNL     1      43.475 -19.119   1.906  1.00  0.00     0.025 A 
BRANCH  16  18
HETATM   18  C   UNL     1      43.262 -17.347   3.799  1.00  0.00    -0.051 A 
HETATM   19  C   UNL     1      43.504 -16.066   4.321  1.00  0.00     0.031 A 
HETATM   20  C   UNL     1      42.824 -15.604   5.451  1.00  0.00     0.034 A 
HETATM   21  C   UNL     1      41.907 -16.418   6.106  1.00  0.00     0.024 A 
HETATM   22 CL   UNL     1      43.127 -14.015   6.042  1.00  0.00    -0.084 Cl
HETATM   23  C   UNL     1      41.670 -17.703   5.628  1.00  0.00     0.002 A 
HETATM   24  C   UNL     1      42.344 -18.158   4.490  1.00  0.00     0.007 A 
ENDBRANCH  16  18
ENDBRANCH  12  15
ENDBRANCH   1  11
BRANCH   8  25
HETATM   25  C   UNL     1      38.783 -15.065  -3.850  1.00  0.00     0.270 C 
HETATM   26  N   UNL     1      37.658 -14.913  -4.612  1.00  0.00    -0.365 N 
HETATM   27  H   UNL     1      37.002 -14.180  -4.367  1.00  0.00     0.159 HD
HETATM   28  H   UNL     1      37.510 -15.501  -5.417  1.00  0.00     0.159 HD
HETATM   29  O   UNL     1      39.622 -15.923  -4.110  1.00  0.00    -0.266 OA
ENDBRANCH   8  25
TORSDOF 4
ENDMDL
MODEL 7
REMARK VINA RESULT:      -7.8      2.796      4.141
REMARK  4 active torsions:
REMARK  status: ('A' for Active; 'I' for Inactive)
REMARK    1  A    between atoms: C_6  and  C_7 
REMARK    2  A    between atoms: C_8  and  C_9 
REMARK       I    between atoms: C_9  and  N_10 
REMARK    3  A    between atoms: N_10  and  C_11 
REMARK    4  A    between atoms: C_18  and  C_19 
REMARK       I    between atoms: C_19  and  N_20 
ROOT
HETATM    1  C   UNL     1      41.510 -14.818   4.906  1.00  0.00     0.035 A 
HETATM    2  C   UNL     1      41.474 -15.023   3.517  1.00  0.00     0.046 A 
HETATM    3  C   UNL     1      40.618 -14.238   2.717  1.00  0.00     0.030 A 
HETATM    4  C   UNL     1      39.808 -13.293   3.331  1.00  0.00     0.063 A 
HETATM    5  N   UNL     1      39.103 -12.704   2.319  1.00  0.00    -0.277 N 
HETATM    6  H   UNL     1      38.412 -11.967   2.402  1.00  0.00     0.189 HD
HETATM    7  N   UNL     1      39.392 -13.175   1.093  1.00  0.00    -0.168 NA
HETATM    8  C   UNL     1      40.326 -14.124   1.325  1.00  0.00     0.156 A 
HETATM    9  C   UNL     1      39.804 -13.078   4.710  1.00  0.00     0.034 A 
HETATM   10  C   UNL     1      40.674 -13.859   5.483  1.00  0.00     0.032 A 
ENDROOT
BRANCH   1  11
HETATM   11  N   UNL     1      42.400 -15.623   5.649  1.00  0.00    -0.327 N 
HETATM   12  C   UNL     1      42.133 -16.850   6.216  1.00  0.00     0.227 C 
HETATM   13  O   UNL     1      41.052 -17.418   6.276  1.00  0.00    -0.273 OA
HETATM   14  H   UNL     1      43.313 -15.230   5.831  1.00  0.00     0.169 HD
BRANCH  12  15
HETATM   15  C   UNL     1      43.295 -17.468   6.914  1.00  0.00     0.087 A 
HETATM   16  C   UNL     1      44.202 -18.475   6.226  1.00  0.00     0.032 A 
HETATM   17  C   UNL     1      44.726 -17.112   6.621  1.00  0.00     0.025 A 
BRANCH  16  18
HETATM   18  C   UNL     1      44.127 -18.821   4.755  1.00  0.00    -0.051 A 
HETATM   19  C   UNL     1      44.268 -20.140   4.291  1.00  0.00     0.031 A 
HETATM   20  C   UNL     1      44.209 -20.439   2.927  1.00  0.00     0.034 A 
HETATM   21  C   UNL     1      44.036 -19.427   1.989  1.00  0.00     0.024 A 
HETATM   22 CL   UNL     1      44.356 -22.072   2.402  1.00  0.00    -0.084 Cl
HETATM   23  C   UNL     1      43.925 -18.108   2.419  1.00  0.00     0.002 A 
HETATM   24  C   UNL     1      43.973 -17.814   3.785  1.00  0.00     0.007 A 
ENDBRANCH  16  18
ENDBRANCH  12  15
ENDBRANCH   1  11
BRANCH   8  25
HETATM   25  C   UNL     1      40.928 -14.891   0.225  1.00  0.00     0.270 C 
HETATM   26  N   UNL     1      40.600 -16.219   0.225  1.00  0.00    -0.365 N 
HETATM   27  H   UNL     1      39.980 -16.565   0.949  1.00  0.00     0.159 HD
HETATM   28  H   UNL     1      40.947 -16.824  -0.502  1.00  0.00     0.159 HD
HETATM   29  O   UNL     1      41.658 -14.412  -0.636  1.00  0.00    -0.266 OA
ENDBRANCH   8  25
TORSDOF 4
ENDMDL
MODEL 8
REMARK VINA RESULT:      -7.7      2.467      3.550
REMARK  4 active torsions:
REMARK  status: ('A' for Active; 'I' for Inactive)
REMARK    1  A    between atoms: C_6  and  C_7 
REMARK    2  A    between atoms: C_8  and  C_9 
REMARK       I    between atoms: C_9  and  N_10 
REMARK    3  A    between atoms: N_10  and  C_11 
REMARK    4  A    between atoms: C_18  and  C_19 
REMARK       I    between atoms: C_19  and  N_20 
ROOT
HETATM    1  C   UNL     1      41.193 -15.398  -0.716  1.00  0.00     0.035 A 
HETATM    2  C   UNL     1      40.430 -14.485   0.031  1.00  0.00     0.046 A 
HETATM    3  C   UNL     1      39.375 -13.784  -0.589  1.00  0.00     0.030 A 
HETATM    4  C   UNL     1      39.132 -13.997  -1.939  1.00  0.00     0.063 A 
HETATM    5  N   UNL     1      38.074 -13.191  -2.250  1.00  0.00    -0.277 N 
HETATM    6  H   UNL     1      37.627 -13.089  -3.155  1.00  0.00     0.189 HD
HETATM    7  N   UNL     1      37.595 -12.478  -1.215  1.00  0.00    -0.168 NA
HETATM    8  C   UNL     1      38.391 -12.835  -0.183  1.00  0.00     0.156 A 
HETATM    9  C   UNL     1      39.883 -14.880  -2.715  1.00  0.00     0.034 A 
HETATM   10  C   UNL     1      40.916 -15.579  -2.074  1.00  0.00     0.032 A 
ENDROOT
BRANCH   1  11
HETATM   11  N   UNL     1      42.222 -16.081  -0.034  1.00  0.00    -0.327 N 
HETATM   12  C   UNL     1      42.094 -17.207   0.750  1.00  0.00     0.227 C 
HETATM   13  O   UNL     1      41.056 -17.758   1.088  1.00  0.00    -0.273 OA
HETATM   14  H   UNL     1      43.143 -15.666  -0.081  1.00  0.00     0.169 HD
BRANCH  12  15
HETATM   15  C   UNL     1      43.377 -17.713   1.310  1.00  0.00     0.087 A 
HETATM   16  C   UNL     1      43.742 -17.532   2.774  1.00  0.00     0.032 A 
HETATM   17  C   UNL     1      43.477 -18.912   2.213  1.00  0.00     0.025 A 
BRANCH  16  18
HETATM   18  C   UNL     1      42.798 -16.986   3.825  1.00  0.00    -0.051 A 
HETATM   19  C   UNL     1      42.754 -15.620   4.150  1.00  0.00     0.031 A 
HETATM   20  C   UNL     1      41.885 -15.137   5.131  1.00  0.00     0.034 A 
HETATM   21  C   UNL     1      41.057 -16.006   5.833  1.00  0.00     0.024 A 
HETATM   22 CL   UNL     1      41.840 -13.451   5.479  1.00  0.00    -0.084 Cl
HETATM   23  C   UNL     1      41.103 -17.369   5.553  1.00  0.00     0.002 A 
HETATM   24  C   UNL     1      41.965 -17.848   4.562  1.00  0.00     0.007 A 
ENDBRANCH  16  18
ENDBRANCH  12  15
ENDBRANCH   1  11
BRANCH   8  25
HETATM   25  C   UNL     1      38.194 -12.278   1.163  1.00  0.00     0.270 C 
HETATM   26  N   UNL     1      36.892 -11.989   1.463  1.00  0.00    -0.365 N 
HETATM   27  H   UNL     1      36.180 -12.180   0.767  1.00  0.00     0.159 HD
HETATM   28  H   UNL     1      36.653 -11.622   2.370  1.00  0.00     0.159 HD
HETATM   29  O   UNL     1      39.096 -12.085   1.972  1.00  0.00    -0.266 OA
ENDBRANCH   8  25
TORSDOF 4
ENDMDL
MODEL 9
REMARK VINA RESULT:      -7.6      3.380      8.217
REMARK  4 active torsions:
REMARK  status: ('A' for Active; 'I' for Inactive)
REMARK    1  A    between atoms: C_6  and  C_7 
REMARK    2  A    between atoms: C_8  and  C_9 
REMARK       I    between atoms: C_9  and  N_10 
REMARK    3  A    between atoms: N_10  and  C_11 
REMARK    4  A    between atoms: C_18  and  C_19 
REMARK       I    between atoms: C_19  and  N_20 
ROOT
HETATM    1  C   UNL     1      40.861 -16.764   2.546  1.00  0.00     0.035 A 
HETATM    2  C   UNL     1      41.270 -16.860   3.887  1.00  0.00     0.046 A 
HETATM    3  C   UNL     1      42.277 -17.779   4.247  1.00  0.00     0.030 A 
HETATM    4  C   UNL     1      42.825 -18.590   3.263  1.00  0.00     0.063 A 
HETATM    5  N   UNL     1      43.753 -19.362   3.903  1.00  0.00    -0.277 N 
HETATM    6  H   UNL     1      44.348 -20.073   3.492  1.00  0.00     0.189 HD
HETATM    7  N   UNL     1      43.868 -19.116   5.220  1.00  0.00    -0.168 NA
HETATM    8  C   UNL     1      42.961 -18.140   5.446  1.00  0.00     0.156 A 
HETATM    9  C   UNL     1      42.428 -18.536   1.926  1.00  0.00     0.034 A 
HETATM   10  C   UNL     1      41.437 -17.604   1.589  1.00  0.00     0.032 A 
ENDROOT
BRANCH   1  11
HETATM   11  N   UNL     1      39.862 -15.813   2.247  1.00  0.00    -0.327 N 
HETATM   12  C   UNL     1      40.038 -14.463   2.037  1.00  0.00     0.227 C 
HETATM   13  O   UNL     1      41.069 -13.821   2.176  1.00  0.00    -0.273 OA
HETATM   14  H   UNL     1      38.909 -16.151   2.244  1.00  0.00     0.169 HD
BRANCH  12  15
HETATM   15  C   UNL     1      38.787 -13.726   1.707  1.00  0.00     0.087 A 
HETATM   16  C   UNL     1      38.501 -13.214   0.305  1.00  0.00     0.032 A 
HETATM   17  C   UNL     1      37.659 -14.318   0.907  1.00  0.00     0.025 A 
BRANCH  16  18
HETATM   18  C   UNL     1      39.350 -13.533  -0.907  1.00  0.00    -0.051 A 
HETATM   19  C   UNL     1      40.589 -12.911  -1.133  1.00  0.00     0.031 A 
HETATM   20  C   UNL     1      41.354 -13.209  -2.263  1.00  0.00     0.034 A 
HETATM   21  C   UNL     1      40.890 -14.114  -3.212  1.00  0.00     0.024 A 
HETATM   22 CL   UNL     1      42.881 -12.447  -2.489  1.00  0.00    -0.084 Cl
HETATM   23  C   UNL     1      39.652 -14.722  -3.028  1.00  0.00     0.002 A 
HETATM   24  C   UNL     1      38.894 -14.431  -1.890  1.00  0.00     0.007 A 
ENDBRANCH  16  18
ENDBRANCH  12  15
ENDBRANCH   1  11
BRANCH   8  25
HETATM   25  C   UNL     1      42.771 -17.566   6.785  1.00  0.00     0.270 C 
HETATM   26  N   UNL     1      43.203 -18.369   7.803  1.00  0.00    -0.365 N 
HETATM   27  H   UNL     1      43.619 -19.264   7.572  1.00  0.00     0.159 HD
HETATM   28  H   UNL     1      43.135 -18.054   8.758  1.00  0.00     0.159 HD
HETATM   29  O   UNL     1      42.277 -16.464   7.004  1.00  0.00    -0.266 OA
ENDBRANCH   8  25
TORSDOF 4
ENDMDL
MODEL 10
REMARK VINA RESULT:      -7.5      7.453     10.028
REMARK  4 active torsions:
REMARK  status: ('A' for Active; 'I' for Inactive)
REMARK    1  A    between atoms: C_6  and  C_7 
REMARK    2  A    between atoms: C_8  and  C_9 
REMARK       I    between atoms: C_9  and  N_10 
REMARK    3  A    between atoms: N_10  and  C_11 
REMARK    4  A    between atoms: C_18  and  C_19 
REMARK       I    between atoms: C_19  and  N_20 
ROOT
HETATM    1  C   UNL     1      41.627 -10.120   7.963  1.00  0.00     0.035 A 
HETATM    2  C   UNL     1      42.498 -10.919   8.723  1.00  0.00     0.046 A 
HETATM    3  C   UNL     1      42.752 -10.589  10.070  1.00  0.00     0.030 A 
HETATM    4  C   UNL     1      42.149  -9.460  10.608  1.00  0.00     0.063 A 
HETATM    5  N   UNL     1      42.579  -9.400  11.903  1.00  0.00    -0.277 N 
HETATM    6  H   UNL     1      42.340  -8.699  12.597  1.00  0.00     0.189 HD
HETATM    7  N   UNL     1      43.403 -10.400  12.263  1.00  0.00    -0.168 NA
HETATM    8  C   UNL     1      43.518 -11.142  11.139  1.00  0.00     0.156 A 
HETATM    9  C   UNL     1      41.295  -8.634   9.876  1.00  0.00     0.034 A 
HETATM   10  C   UNL     1      41.045  -8.990   8.543  1.00  0.00     0.032 A 
ENDROOT
BRANCH   1  11
HETATM   11  N   UNL     1      41.400 -10.513   6.627  1.00  0.00    -0.327 N 
HETATM   12  C   UNL     1      40.257 -11.087   6.113  1.00  0.00     0.227 C 
HETATM   13  O   UNL     1      39.274 -11.462   6.735  1.00  0.00    -0.273 OA
HETATM   14  H   UNL     1      42.181 -10.414   5.992  1.00  0.00     0.169 HD
BRANCH  12  15
HETATM   15  C   UNL     1      40.314 -11.358   4.649  1.00  0.00     0.087 A 
HETATM   16  C   UNL     1      40.876 -12.656   4.094  1.00  0.00     0.032 A 
HETATM   17  C   UNL     1      39.405 -12.329   3.947  1.00  0.00     0.025 A 
BRANCH  16  18
HETATM   18  C   UNL     1      41.269 -13.845   4.944  1.00  0.00    -0.051 A 
HETATM   19  C   UNL     1      42.581 -14.025   5.412  1.00  0.00     0.031 A 
HETATM   20  C   UNL     1      42.930 -15.135   6.185  1.00  0.00     0.034 A 
HETATM   21  C   UNL     1      41.985 -16.110   6.487  1.00  0.00     0.024 A 
HETATM   22 CL   UNL     1      44.542 -15.303   6.765  1.00  0.00    -0.084 Cl
HETATM   23  C   UNL     1      40.685 -15.973   6.011  1.00  0.00     0.002 A 
HETATM   24  C   UNL     1      40.337 -14.855   5.247  1.00  0.00     0.007 A 
ENDBRANCH  16  18
ENDBRANCH  12  15
ENDBRANCH   1  11
BRANCH   8  25
HETATM   25  C   UNL     1      44.340 -12.359  11.106  1.00  0.00     0.270 C 
HETATM   26  N   UNL     1      43.999 -13.289  12.049  1.00  0.00    -0.365 N 
HETATM   27  H   UNL     1      43.226 -13.086  12.673  1.00  0.00     0.159 HD
HETATM   28  H   UNL     1      44.491 -14.167  12.094  1.00  0.00     0.159 HD
HETATM   29  O   UNL     1      45.254 -12.558  10.313  1.00  0.00    -0.266 OA
ENDBRANCH   8  25
TORSDOF 4
ENDMDL
