MODEL 1
REMARK VINA RESULT:      -9.4      0.000      0.000
REMARK  6 active torsions:
REMARK  status: ('A' for Active; 'I' for Inactive)
REMARK    1  A    between atoms: C_4  and  C_5 
REMARK    2  A    between atoms: C_5  and  N_6 
REMARK    3  A    between atoms: C_8  and  C_9 
REMARK       I    between atoms: C_9  and  N_10 
REMARK    4  A    between atoms: N_10  and  N_11 
REMARK    5  A    between atoms: C_12  and  C_13 
REMARK    6  A    between atoms: C_14  and  O_15 
ROOT
HETATM    1  C   UNL     1      40.536 -15.190   1.161  1.00  0.00     0.273 C 
HETATM    2  N   UNL     1      40.821 -16.533   0.979  1.00  0.00    -0.243 N 
HETATM    3  O   UNL     1      40.634 -14.589   2.228  1.00  0.00    -0.266 OA
HETATM    4  H   UNL     1      40.791 -16.994   0.078  1.00  0.00     0.192 HD
ENDROOT
BRANCH   2   5
HETATM    5  N   UNL     1      41.336 -17.218   2.036  1.00  0.00    -0.183 NA
HETATM    6  C   UNL     1      42.592 -17.544   1.966  1.00  0.00     0.153 C 
BRANCH   6   7
HETATM    7  C   UNL     1      43.271 -18.231   3.094  1.00  0.00     0.027 A 
HETATM    8  C   UNL     1      43.555 -17.506   4.267  1.00  0.00     0.078 A 
HETATM    9  C   UNL     1      44.253 -18.095   5.311  1.00  0.00     0.038 A 
HETATM   10  C   UNL     1      44.675 -19.415   5.203  1.00  0.00     0.015 A 
HETATM   11  C   UNL     1      44.396 -20.171   4.056  1.00  0.00    -0.025 A 
HETATM   12  C   UNL     1      43.677 -19.596   2.973  1.00  0.00    -0.012 A 
HETATM   13  C   UNL     1      44.834 -21.504   3.990  1.00  0.00     0.012 A 
HETATM   14  C   UNL     1      43.415 -20.438   1.860  1.00  0.00     0.013 A 
HETATM   15  C   UNL     1      43.854 -21.765   1.812  1.00  0.00     0.001 A 
HETATM   16  C   UNL     1      44.568 -22.296   2.876  1.00  0.00     0.001 A 
BRANCH   8  17
HETATM   17  O   UNL     1      43.193 -16.200   4.467  1.00  0.00    -0.360 OA
HETATM   18  H   UNL     1      43.955 -15.624   4.239  1.00  0.00     0.217 HD
ENDBRANCH   8  17
ENDBRANCH   6   7
ENDBRANCH   2   5
BRANCH   1  19
HETATM   19  C   UNL     1      40.132 -14.393  -0.021  1.00  0.00     0.049 A 
HETATM   20  C   UNL     1      41.169 -13.977  -0.861  1.00  0.00     0.108 A 
HETATM   21  N   UNL     1      40.914 -13.285  -1.997  1.00  0.00    -0.361 N 
HETATM   22  C   UNL     1      39.646 -12.962  -2.337  1.00  0.00     0.090 A 
HETATM   23  C   UNL     1      38.581 -13.331  -1.518  1.00  0.00     0.018 A 
HETATM   24  C   UNL     1      38.823 -14.053  -0.351  1.00  0.00     0.020 A 
BRANCH  21  25
HETATM   25  C   UNL     1      42.041 -12.885  -2.880  1.00  0.00     0.166 C 
BRANCH  25  26
HETATM   26  C   UNL     1      42.475 -11.471  -2.592  1.00  0.00    -0.040 A 
HETATM   27  C   UNL     1      42.144 -10.436  -3.481  1.00  0.00     0.009 A 
HETATM   28  C   UNL     1      42.531  -9.122  -3.213  1.00  0.00     0.001 A 
HETATM   29  C   UNL     1      43.248  -8.825  -2.057  1.00  0.00     0.000 A 
HETATM   30  C   UNL     1      43.574  -9.841  -1.162  1.00  0.00     0.001 A 
HETATM   31  C   UNL     1      43.186 -11.155  -1.423  1.00  0.00     0.009 A 
ENDBRANCH  25  26
ENDBRANCH  21  25
ENDBRANCH   1  19
TORSDOF 6
ENDMDL
MODEL 2
REMARK VINA RESULT:      -9.3      1.169      1.531
REMARK  6 active torsions:
REMARK  status: ('A' for Active; 'I' for Inactive)
REMARK    1  A    between atoms: C_4  and  C_5 
REMARK    2  A    between atoms: C_5  and  N_6 
REMARK    3  A    between atoms: C_8  and  C_9 
REMARK       I    between atoms: C_9  and  N_10 
REMARK    4  A    between atoms: N_10  and  N_11 
REMARK    5  A    between atoms: C_12  and  C_13 
REMARK    6  A    between atoms: C_14  and  O_15 
ROOT
HETATM    1  C   UNL     1      41.300 -15.402   0.182  1.00  0.00     0.273 C 
HETATM    2  N   UNL     1      41.070 -16.750   0.398  1.00  0.00    -0.243 N 
HETATM    3  O   UNL     1      41.799 -14.634   1.000  1.00  0.00    -0.266 OA
HETATM    4  H   UNL     1      40.713 -17.377  -0.312  1.00  0.00     0.192 HD
ENDROOT
BRANCH   2   5
HETATM    5  N   UNL     1      41.513 -17.287   1.568  1.00  0.00    -0.183 NA
HETATM    6  C   UNL     1      42.724 -17.757   1.574  1.00  0.00     0.153 C 
BRANCH   6   7
HETATM    7  C   UNL     1      43.331 -18.301   2.816  1.00  0.00     0.027 A 
HETATM    8  C   UNL     1      43.532 -17.442   3.913  1.00  0.00     0.078 A 
HETATM    9  C   UNL     1      44.163 -17.896   5.062  1.00  0.00     0.038 A 
HETATM   10  C   UNL     1      44.598 -19.215   5.135  1.00  0.00     0.015 A 
HETATM   11  C   UNL     1      44.400 -20.101   4.068  1.00  0.00    -0.025 A 
HETATM   12  C   UNL     1      43.752 -19.664   2.881  1.00  0.00    -0.012 A 
HETATM   13  C   UNL     1      44.849 -21.427   4.185  1.00  0.00     0.012 A 
HETATM   14  C   UNL     1      43.569 -20.633   1.857  1.00  0.00     0.013 A 
HETATM   15  C   UNL     1      44.018 -21.950   1.993  1.00  0.00     0.001 A 
HETATM   16  C   UNL     1      44.662 -22.345   3.155  1.00  0.00     0.001 A 
BRANCH   8  17
HETATM   17  O   UNL     1      43.149 -16.126   3.936  1.00  0.00    -0.360 OA
HETATM   18  H   UNL     1      42.261 -16.065   4.351  1.00  0.00     0.217 HD
ENDBRANCH   8  17
ENDBRANCH   6   7
ENDBRANCH   2   5
BRANCH   1  19
HETATM   19  C   UNL     1      40.973 -14.841  -1.150  1.00  0.00     0.049 A 
HETATM   20  C   UNL     1      40.699 -13.471  -1.186  1.00  0.00     0.108 A 
HETATM   21  N   UNL     1      40.435 -12.840  -2.355  1.00  0.00    -0.361 N 
HETATM   22  C   UNL     1      40.412 -13.529  -3.519  1.00  0.00     0.090 A 
HETATM   23  C   UNL     1      40.652 -14.900  -3.531  1.00  0.00     0.018 A 
HETATM   24  C   UNL     1      40.935 -15.565  -2.339  1.00  0.00     0.020 A 
BRANCH  21  25
HETATM   25  C   UNL     1      40.177 -11.377  -2.355  1.00  0.00     0.166 C 
BRANCH  25  26
HETATM   26  C   UNL     1      41.313 -10.629  -1.708  1.00  0.00    -0.040 A 
HETATM   27  C   UNL     1      41.105  -9.928  -0.509  1.00  0.00     0.009 A 
HETATM   28  C   UNL     1      42.157  -9.245   0.103  1.00  0.00     0.001 A 
HETATM   29  C   UNL     1      43.426  -9.255  -0.470  1.00  0.00     0.000 A 
HETATM   30  C   UNL     1      43.648  -9.953  -1.654  1.00  0.00     0.001 A 
HETATM   31  C   UNL     1      42.600 -10.642  -2.268  1.00  0.00     0.009 A 
ENDBRANCH  25  26
ENDBRANCH  21  25
ENDBRANCH   1  19
TORSDOF 6
ENDMDL
MODEL 3
REMARK VINA RESULT:      -9.2      7.072      9.900
REMARK  6 active torsions:
REMARK  status: ('A' for Active; 'I' for Inactive)
REMARK    1  A    between atoms: C_4  and  C_5 
REMARK    2  A    between atoms: C_5  and  N_6 
REMARK    3  A    between atoms: C_8  and  C_9 
REMARK       I    between atoms: C_9  and  N_10 
REMARK    4  A    between atoms: N_10  and  N_11 
REMARK    5  A    between atoms: C_12  and  C_13 
REMARK    6  A    between atoms: C_14  and  O_15 
ROOT
HETATM    1  C   UNL     1      44.858 -13.330   7.219  1.00  0.00     0.273 C 
HETATM    2  N   UNL     1      43.644 -13.918   6.906  1.00  0.00    -0.243 N 
HETATM    3  O   UNL     1      45.884 -13.439   6.552  1.00  0.00    -0.266 OA
HETATM    4  H   UNL     1      42.796 -13.766   7.438  1.00  0.00     0.192 HD
ENDROOT
BRANCH   2   5
HETATM    5  N   UNL     1      43.553 -14.590   5.725  1.00  0.00    -0.183 NA
HETATM    6  C   UNL     1      43.010 -15.769   5.765  1.00  0.00     0.153 C 
BRANCH   6   7
HETATM    7  C   UNL     1      42.799 -16.559   4.525  1.00  0.00     0.027 A 
HETATM    8  C   UNL     1      41.891 -16.087   3.558  1.00  0.00     0.078 A 
HETATM    9  C   UNL     1      41.613 -16.834   2.423  1.00  0.00     0.038 A 
HETATM   10  C   UNL     1      42.240 -18.061   2.233  1.00  0.00     0.015 A 
HETATM   11  C   UNL     1      43.161 -18.554   3.167  1.00  0.00    -0.025 A 
HETATM   12  C   UNL     1      43.469 -17.807   4.337  1.00  0.00    -0.012 A 
HETATM   13  C   UNL     1      43.777 -19.795   2.933  1.00  0.00     0.012 A 
HETATM   14  C   UNL     1      44.431 -18.367   5.219  1.00  0.00     0.013 A 
HETATM   15  C   UNL     1      45.038 -19.602   4.968  1.00  0.00     0.001 A 
HETATM   16  C   UNL     1      44.707 -20.317   3.828  1.00  0.00     0.001 A 
BRANCH   8  17
HETATM   17  O   UNL     1      41.216 -14.899   3.657  1.00  0.00    -0.360 OA
HETATM   18  H   UNL     1      41.574 -14.397   4.422  1.00  0.00     0.217 HD
ENDBRANCH   8  17
ENDBRANCH   6   7
ENDBRANCH   2   5
BRANCH   1  19
HETATM   19  C   UNL     1      44.927 -12.460   8.416  1.00  0.00     0.049 A 
HETATM   20  C   UNL     1      43.715 -11.912   8.844  1.00  0.00     0.108 A 
HETATM   21  N   UNL     1      43.648 -11.141   9.955  1.00  0.00    -0.361 N 
HETATM   22  C   UNL     1      44.763 -10.866  10.670  1.00  0.00     0.090 A 
HETATM   23  C   UNL     1      45.999 -11.367  10.268  1.00  0.00     0.018 A 
HETATM   24  C   UNL     1      46.085 -12.171   9.133  1.00  0.00     0.020 A 
BRANCH  21  25
HETATM   25  C   UNL     1      42.335 -10.600  10.395  1.00  0.00     0.166 C 
BRANCH  25  26
HETATM   26  C   UNL     1      42.415 -10.069  11.802  1.00  0.00    -0.040 A 
HETATM   27  C   UNL     1      42.273 -10.940  12.895  1.00  0.00     0.009 A 
HETATM   28  C   UNL     1      42.360 -10.458  14.201  1.00  0.00     0.001 A 
HETATM   29  C   UNL     1      42.591  -9.104  14.433  1.00  0.00     0.000 A 
HETATM   30  C   UNL     1      42.743  -8.231  13.359  1.00  0.00     0.001 A 
HETATM   31  C   UNL     1      42.661  -8.710  12.051  1.00  0.00     0.009 A 
ENDBRANCH  25  26
ENDBRANCH  21  25
ENDBRANCH   1  19
TORSDOF 6
ENDMDL
MODEL 4
REMARK VINA RESULT:      -9.1      2.139      3.392
REMARK  6 active torsions:
REMARK  status: ('A' for Active; 'I' for Inactive)
REMARK    1  A    between atoms: C_4  and  C_5 
REMARK    2  A    between atoms: C_5  and  N_6 
REMARK    3  A    between atoms: C_8  and  C_9 
REMARK       I    between atoms: C_9  and  N_10 
REMARK    4  A    between atoms: N_10  and  N_11 
REMARK    5  A    between atoms: C_12  and  C_13 
REMARK    6  A    between atoms: C_14  and  O_15 
ROOT
HETATM    1  C   UNL     1      40.030 -14.689   2.668  1.00  0.00     0.273 C 
HETATM    2  N   UNL     1      40.454 -15.904   2.158  1.00  0.00    -0.243 N 
HETATM    3  O   UNL     1      40.109 -14.355   3.848  1.00  0.00    -0.266 OA
HETATM    4  H   UNL     1      40.434 -16.134   1.172  1.00  0.00     0.192 HD
ENDROOT
BRANCH   2   5
HETATM    5  N   UNL     1      41.090 -16.758   3.006  1.00  0.00    -0.183 NA
HETATM    6  C   UNL     1      42.352 -16.971   2.783  1.00  0.00     0.153 C 
BRANCH   6   7
HETATM    7  C   UNL     1      43.158 -17.830   3.689  1.00  0.00     0.027 A 
HETATM    8  C   UNL     1      43.571 -17.316   4.932  1.00  0.00     0.078 A 
HETATM    9  C   UNL     1      44.386 -18.061   5.771  1.00  0.00     0.038 A 
HETATM   10  C   UNL     1      44.796 -19.333   5.385  1.00  0.00     0.015 A 
HETATM   11  C   UNL     1      44.390 -19.882   4.161  1.00  0.00    -0.025 A 
HETATM   12  C   UNL     1      43.551 -19.142   3.284  1.00  0.00    -0.012 A 
HETATM   13  C   UNL     1      44.821 -21.172   3.812  1.00  0.00     0.012 A 
HETATM   14  C   UNL     1      43.166 -19.783   2.076  1.00  0.00     0.013 A 
HETATM   15  C   UNL     1      43.600 -21.070   1.746  1.00  0.00     0.001 A 
HETATM   16  C   UNL     1      44.432 -21.763   2.613  1.00  0.00     0.001 A 
BRANCH   8  17
HETATM   17  O   UNL     1      43.230 -16.074   5.399  1.00  0.00    -0.360 OA
HETATM   18  H   UNL     1      42.427 -15.768   4.923  1.00  0.00     0.217 HD
ENDBRANCH   8  17
ENDBRANCH   6   7
ENDBRANCH   2   5
BRANCH   1  19
HETATM   19  C   UNL     1      39.486 -13.684   1.723  1.00  0.00     0.049 A 
HETATM   20  C   UNL     1      40.048 -13.681   0.444  1.00  0.00     0.108 A 
HETATM   21  N   UNL     1      39.596 -12.841  -0.517  1.00  0.00    -0.361 N 
HETATM   22  C   UNL     1      38.599 -11.966  -0.254  1.00  0.00     0.090 A 
HETATM   23  C   UNL     1      38.026 -11.913   1.015  1.00  0.00     0.018 A 
HETATM   24  C   UNL     1      38.471 -12.777   2.013  1.00  0.00     0.020 A 
BRANCH  21  25
HETATM   25  C   UNL     1      40.199 -12.888  -1.875  1.00  0.00     0.166 C 
BRANCH  25  26
HETATM   26  C   UNL     1      39.669 -14.059  -2.660  1.00  0.00    -0.040 A 
HETATM   27  C   UNL     1      40.468 -15.197  -2.857  1.00  0.00     0.009 A 
HETATM   28  C   UNL     1      39.978 -16.291  -3.571  1.00  0.00     0.001 A 
HETATM   29  C   UNL     1      38.687 -16.265  -4.093  1.00  0.00     0.000 A 
HETATM   30  C   UNL     1      37.881 -15.147  -3.897  1.00  0.00     0.001 A 
HETATM   31  C   UNL     1      38.365 -14.052  -3.180  1.00  0.00     0.009 A 
ENDBRANCH  25  26
ENDBRANCH  21  25
ENDBRANCH   1  19
TORSDOF 6
ENDMDL
MODEL 5
REMARK VINA RESULT:      -9.1      7.104     10.150
REMARK  6 active torsions:
REMARK  status: ('A' for Active; 'I' for Inactive)
REMARK    1  A    between atoms: C_4  and  C_5 
REMARK    2  A    between atoms: C_5  and  N_6 
REMARK    3  A    between atoms: C_8  and  C_9 
REMARK       I    between atoms: C_9  and  N_10 
REMARK    4  A    between atoms: N_10  and  N_11 
REMARK    5  A    between atoms: C_12  and  C_13 
REMARK    6  A    between atoms: C_14  and  O_15 
ROOT
HETATM    1  C   UNL     1      45.118 -13.570   7.381  1.00  0.00     0.273 C 
HETATM    2  N   UNL     1      44.215 -14.611   7.524  1.00  0.00    -0.243 N 
HETATM    3  O   UNL     1      45.908 -13.449   6.447  1.00  0.00    -0.266 OA
HETATM    4  H   UNL     1      43.533 -14.659   8.270  1.00  0.00     0.192 HD
ENDROOT
BRANCH   2   5
HETATM    5  N   UNL     1      44.131 -15.517   6.512  1.00  0.00    -0.183 NA
HETATM    6  C   UNL     1      42.941 -15.776   6.059  1.00  0.00     0.153 C 
BRANCH   6   7
HETATM    7  C   UNL     1      42.741 -16.697   4.910  1.00  0.00     0.027 A 
HETATM    8  C   UNL     1      43.561 -17.835   4.794  1.00  0.00     0.078 A 
HETATM    9  C   UNL     1      43.453 -18.677   3.697  1.00  0.00     0.038 A 
HETATM   10  C   UNL     1      42.522 -18.398   2.702  1.00  0.00     0.015 A 
HETATM   11  C   UNL     1      41.679 -17.282   2.793  1.00  0.00    -0.025 A 
HETATM   12  C   UNL     1      41.764 -16.406   3.909  1.00  0.00    -0.012 A 
HETATM   13  C   UNL     1      40.748 -17.041   1.770  1.00  0.00     0.012 A 
HETATM   14  C   UNL     1      40.856 -15.314   3.936  1.00  0.00     0.013 A 
HETATM   15  C   UNL     1      39.932 -15.091   2.910  1.00  0.00     0.001 A 
HETATM   16  C   UNL     1      39.881 -15.952   1.825  1.00  0.00     0.001 A 
BRANCH   8  17
HETATM   17  O   UNL     1      44.513 -18.191   5.713  1.00  0.00    -0.360 OA
HETATM   18  H   UNL     1      45.258 -18.623   5.242  1.00  0.00     0.217 HD
ENDBRANCH   8  17
ENDBRANCH   6   7
ENDBRANCH   2   5
BRANCH   1  19
HETATM   19  C   UNL     1      45.106 -12.488   8.393  1.00  0.00     0.049 A 
HETATM   20  C   UNL     1      43.850 -12.124   8.884  1.00  0.00     0.108 A 
HETATM   21  N   UNL     1      43.721 -11.181   9.847  1.00  0.00    -0.361 N 
HETATM   22  C   UNL     1      44.810 -10.552  10.346  1.00  0.00     0.090 A 
HETATM   23  C   UNL     1      46.081 -10.862   9.869  1.00  0.00     0.018 A 
HETATM   24  C   UNL     1      46.234 -11.837   8.885  1.00  0.00     0.020 A 
BRANCH  21  25
HETATM   25  C   UNL     1      42.369 -10.841  10.364  1.00  0.00     0.166 C 
BRANCH  25  26
HETATM   26  C   UNL     1      42.456 -10.221  11.734  1.00  0.00    -0.040 A 
HETATM   27  C   UNL     1      42.451 -11.034  12.879  1.00  0.00     0.009 A 
HETATM   28  C   UNL     1      42.546 -10.466  14.150  1.00  0.00     0.001 A 
HETATM   29  C   UNL     1      42.649  -9.085  14.295  1.00  0.00     0.000 A 
HETATM   30  C   UNL     1      42.665  -8.268  13.167  1.00  0.00     0.001 A 
HETATM   31  C   UNL     1      42.575  -8.831  11.894  1.00  0.00     0.009 A 
ENDBRANCH  25  26
ENDBRANCH  21  25
ENDBRANCH   1  19
TORSDOF 6
ENDMDL
MODEL 6
REMARK VINA RESULT:      -8.7      1.816      3.473
REMARK  6 active torsions:
REMARK  status: ('A' for Active; 'I' for Inactive)
REMARK    1  A    between atoms: C_4  and  C_5 
REMARK    2  A    between atoms: C_5  and  N_6 
REMARK    3  A    between atoms: C_8  and  C_9 
REMARK       I    between atoms: C_9  and  N_10 
REMARK    4  A    between atoms: N_10  and  N_11 
REMARK    5  A    between atoms: C_12  and  C_13 
REMARK    6  A    between atoms: C_14  and  O_15 
ROOT
HETATM    1  C   UNL     1      41.413 -14.974   0.110  1.00  0.00     0.273 C 
HETATM    2  N   UNL     1      41.320 -16.349   0.245  1.00  0.00    -0.243 N 
HETATM    3  O   UNL     1      41.734 -14.199   1.008  1.00  0.00    -0.266 OA
HETATM    4  H   UNL     1      41.111 -16.973  -0.524  1.00  0.00     0.192 HD
ENDROOT
BRANCH   2   5
HETATM    5  N   UNL     1      41.702 -16.894   1.433  1.00  0.00    -0.183 NA
HETATM    6  C   UNL     1      42.787 -17.608   1.425  1.00  0.00     0.153 C 
BRANCH   6   7
HETATM    7  C   UNL     1      43.332 -18.190   2.679  1.00  0.00     0.027 A 
HETATM    8  C   UNL     1      43.508 -17.359   3.801  1.00  0.00     0.078 A 
HETATM    9  C   UNL     1      44.082 -17.851   4.964  1.00  0.00     0.038 A 
HETATM   10  C   UNL     1      44.485 -19.180   5.026  1.00  0.00     0.015 A 
HETATM   11  C   UNL     1      44.310 -20.040   3.934  1.00  0.00    -0.025 A 
HETATM   12  C   UNL     1      43.719 -19.564   2.731  1.00  0.00    -0.012 A 
HETATM   13  C   UNL     1      44.724 -21.378   4.041  1.00  0.00     0.012 A 
HETATM   14  C   UNL     1      43.556 -20.508   1.682  1.00  0.00     0.013 A 
HETATM   15  C   UNL     1      43.970 -21.837   1.807  1.00  0.00     0.001 A 
HETATM   16  C   UNL     1      44.558 -22.271   2.986  1.00  0.00     0.001 A 
BRANCH   8  17
HETATM   17  O   UNL     1      43.154 -16.036   3.836  1.00  0.00    -0.360 OA
HETATM   18  H   UNL     1      43.554 -15.625   4.634  1.00  0.00     0.217 HD
ENDBRANCH   8  17
ENDBRANCH   6   7
ENDBRANCH   2   5
BRANCH   1  19
HETATM   19  C   UNL     1      41.159 -14.383  -1.225  1.00  0.00     0.049 A 
HETATM   20  C   UNL     1      39.921 -14.682  -1.801  1.00  0.00     0.108 A 
HETATM   21  N   UNL     1      39.560 -14.158  -2.996  1.00  0.00    -0.361 N 
HETATM   22  C   UNL     1      40.400 -13.344  -3.674  1.00  0.00     0.090 A 
HETATM   23  C   UNL     1      41.656 -13.038  -3.153  1.00  0.00     0.018 A 
HETATM   24  C   UNL     1      42.041 -13.560  -1.920  1.00  0.00     0.020 A 
BRANCH  21  25
HETATM   25  C   UNL     1      38.223 -14.478  -3.562  1.00  0.00     0.166 C 
BRANCH  25  26
HETATM   26  C   UNL     1      37.303 -13.289  -3.476  1.00  0.00    -0.040 A 
HETATM   27  C   UNL     1      36.313 -13.088  -4.452  1.00  0.00     0.009 A 
HETATM   28  C   UNL     1      35.449 -11.996  -4.370  1.00  0.00     0.001 A 
HETATM   29  C   UNL     1      35.559 -11.094  -3.315  1.00  0.00     0.000 A 
HETATM   30  C   UNL     1      36.530 -11.285  -2.335  1.00  0.00     0.001 A 
HETATM   31  C   UNL     1      37.393 -12.379  -2.410  1.00  0.00     0.009 A 
ENDBRANCH  25  26
ENDBRANCH  21  25
ENDBRANCH   1  19
TORSDOF 6
ENDMDL
MODEL 7
REMARK VINA RESULT:      -8.7      5.999      7.852
REMARK  6 active torsions:
REMARK  status: ('A' for Active; 'I' for Inactive)
REMARK    1  A    between atoms: C_4  and  C_5 
REMARK    2  A    between atoms: C_5  and  N_6 
REMARK    3  A    between atoms: C_8  and  C_9 
REMARK       I    between atoms: C_9  and  N_10 
REMARK    4  A    between atoms: N_10  and  N_11 
REMARK    5  A    between atoms: C_12  and  C_13 
REMARK    6  A    between atoms: C_14  and  O_15 
ROOT
HETATM    1  C   UNL     1      40.361 -13.871   5.773  1.00  0.00     0.273 C 
HETATM    2  N   UNL     1      41.572 -14.351   6.242  1.00  0.00    -0.243 N 
HETATM    3  O   UNL     1      39.500 -14.553   5.223  1.00  0.00    -0.266 OA
HETATM    4  H   UNL     1      42.241 -13.783   6.746  1.00  0.00     0.192 HD
ENDROOT
BRANCH   2   5
HETATM    5  N   UNL     1      41.788 -15.694   6.175  1.00  0.00    -0.183 NA
HETATM    6  C   UNL     1      43.012 -16.079   5.975  1.00  0.00     0.153 C 
BRANCH   6   7
HETATM    7  C   UNL     1      43.370 -17.521   5.953  1.00  0.00     0.027 A 
HETATM    8  C   UNL     1      43.461 -18.222   7.170  1.00  0.00     0.078 A 
HETATM    9  C   UNL     1      43.864 -19.549   7.194  1.00  0.00     0.038 A 
HETATM   10  C   UNL     1      44.178 -20.197   6.004  1.00  0.00     0.015 A 
HETATM   11  C   UNL     1      44.083 -19.534   4.773  1.00  0.00    -0.025 A 
HETATM   12  C   UNL     1      43.667 -18.175   4.719  1.00  0.00    -0.012 A 
HETATM   13  C   UNL     1      44.402 -20.227   3.595  1.00  0.00     0.012 A 
HETATM   14  C   UNL     1      43.574 -17.586   3.429  1.00  0.00     0.013 A 
HETATM   15  C   UNL     1      43.892 -18.293   2.266  1.00  0.00     0.001 A 
HETATM   16  C   UNL     1      44.310 -19.612   2.349  1.00  0.00     0.001 A 
BRANCH   8  17
HETATM   17  O   UNL     1      43.183 -17.672   8.394  1.00  0.00    -0.360 OA
HETATM   18  H   UNL     1      43.193 -16.694   8.308  1.00  0.00     0.217 HD
ENDBRANCH   8  17
ENDBRANCH   6   7
ENDBRANCH   2   5
BRANCH   1  19
HETATM   19  C   UNL     1      40.044 -12.440   5.989  1.00  0.00     0.049 A 
HETATM   20  C   UNL     1      39.735 -12.073   7.302  1.00  0.00     0.108 A 
HETATM   21  N   UNL     1      39.477 -10.784   7.626  1.00  0.00    -0.361 N 
HETATM   22  C   UNL     1      39.493  -9.819   6.679  1.00  0.00     0.090 A 
HETATM   23  C   UNL     1      39.769 -10.139   5.352  1.00  0.00     0.018 A 
HETATM   24  C   UNL     1      40.047 -11.459   5.001  1.00  0.00     0.020 A 
BRANCH  21  25
HETATM   25  C   UNL     1      39.181 -10.430   9.039  1.00  0.00     0.166 C 
BRANCH  25  26
HETATM   26  C   UNL     1      40.404 -10.593   9.903  1.00  0.00    -0.040 A 
HETATM   27  C   UNL     1      41.668 -10.223   9.416  1.00  0.00     0.009 A 
HETATM   28  C   UNL     1      42.803 -10.358  10.216  1.00  0.00     0.001 A 
HETATM   29  C   UNL     1      42.691 -10.861  11.510  1.00  0.00     0.000 A 
HETATM   30  C   UNL     1      41.443 -11.223  12.009  1.00  0.00     0.001 A 
HETATM   31  C   UNL     1      40.304 -11.085  11.214  1.00  0.00     0.009 A 
ENDBRANCH  25  26
ENDBRANCH  21  25
ENDBRANCH   1  19
TORSDOF 6
ENDMDL
MODEL 8
REMARK VINA RESULT:      -8.4      1.737      2.200
REMARK  6 active torsions:
REMARK  status: ('A' for Active; 'I' for Inactive)
REMARK    1  A    between atoms: C_4  and  C_5 
REMARK    2  A    between atoms: C_5  and  N_6 
REMARK    3  A    between atoms: C_8  and  C_9 
REMARK       I    between atoms: C_9  and  N_10 
REMARK    4  A    between atoms: N_10  and  N_11 
REMARK    5  A    between atoms: C_12  and  C_13 
REMARK    6  A    between atoms: C_14  and  O_15 
ROOT
HETATM    1  C   UNL     1      41.777 -14.024   2.766  1.00  0.00     0.273 C 
HETATM    2  N   UNL     1      42.645 -14.928   2.177  1.00  0.00    -0.243 N 
HETATM    3  O   UNL     1      41.491 -14.000   3.960  1.00  0.00    -0.266 OA
HETATM    4  H   UNL     1      42.911 -14.892   1.201  1.00  0.00     0.192 HD
ENDROOT
BRANCH   2   5
HETATM    5  N   UNL     1      43.302 -15.796   2.994  1.00  0.00    -0.183 NA
HETATM    6  C   UNL     1      42.824 -17.002   3.070  1.00  0.00     0.153 C 
BRANCH   6   7
HETATM    7  C   UNL     1      43.504 -18.048   3.878  1.00  0.00     0.027 A 
HETATM    8  C   UNL     1      43.964 -17.725   5.168  1.00  0.00     0.078 A 
HETATM    9  C   UNL     1      44.668 -18.653   5.921  1.00  0.00     0.038 A 
HETATM   10  C   UNL     1      44.919 -19.918   5.400  1.00  0.00     0.015 A 
HETATM   11  C   UNL     1      44.461 -20.278   4.126  1.00  0.00    -0.025 A 
HETATM   12  C   UNL     1      43.733 -19.349   3.334  1.00  0.00    -0.012 A 
HETATM   13  C   UNL     1      44.730 -21.568   3.640  1.00  0.00     0.012 A 
HETATM   14  C   UNL     1      43.284 -19.803   2.065  1.00  0.00     0.013 A 
HETATM   15  C   UNL     1      43.557 -21.092   1.599  1.00  0.00     0.001 A 
HETATM   16  C   UNL     1      44.284 -21.973   2.385  1.00  0.00     0.001 A 
BRANCH   8  17
HETATM   17  O   UNL     1      43.777 -16.506   5.766  1.00  0.00    -0.360 OA
HETATM   18  H   UNL     1      44.652 -16.073   5.875  1.00  0.00     0.217 HD
ENDBRANCH   8  17
ENDBRANCH   6   7
ENDBRANCH   2   5
BRANCH   1  19
HETATM   19  C   UNL     1      41.181 -12.969   1.913  1.00  0.00     0.049 A 
HETATM   20  C   UNL     1      42.085 -12.162   1.217  1.00  0.00     0.108 A 
HETATM   21  N   UNL     1      41.654 -11.197   0.370  1.00  0.00    -0.361 N 
HETATM   22  C   UNL     1      40.331 -10.977   0.193  1.00  0.00     0.090 A 
HETATM   23  C   UNL     1      39.392 -11.737   0.885  1.00  0.00     0.018 A 
HETATM   24  C   UNL     1      39.816 -12.742   1.753  1.00  0.00     0.020 A 
BRANCH  21  25
HETATM   25  C   UNL     1      42.647 -10.378  -0.374  1.00  0.00     0.166 C 
BRANCH  25  26
HETATM   26  C   UNL     1      42.565 -10.648  -1.854  1.00  0.00    -0.040 A 
HETATM   27  C   UNL     1      42.481 -11.967  -2.329  1.00  0.00     0.009 A 
HETATM   28  C   UNL     1      42.391 -12.222  -3.698  1.00  0.00     0.001 A 
HETATM   29  C   UNL     1      42.382 -11.168  -4.607  1.00  0.00     0.000 A 
HETATM   30  C   UNL     1      42.456  -9.855  -4.150  1.00  0.00     0.001 A 
HETATM   31  C   UNL     1      42.541  -9.594  -2.782  1.00  0.00     0.009 A 
ENDBRANCH  25  26
ENDBRANCH  21  25
ENDBRANCH   1  19
TORSDOF 6
ENDMDL
MODEL 9
REMARK VINA RESULT:      -8.4      7.373      9.527
REMARK  6 active torsions:
REMARK  status: ('A' for Active; 'I' for Inactive)
REMARK    1  A    between atoms: C_4  and  C_5 
REMARK    2  A    between atoms: C_5  and  N_6 
REMARK    3  A    between atoms: C_8  and  C_9 
REMARK       I    between atoms: C_9  and  N_10 
REMARK    4  A    between atoms: N_10  and  N_11 
REMARK    5  A    between atoms: C_12  and  C_13 
REMARK    6  A    between atoms: C_14  and  O_15 
ROOT
HETATM    1  C   UNL     1      39.745 -12.126   6.781  1.00  0.00     0.273 C 
HETATM    2  N   UNL     1      40.949 -12.786   6.598  1.00  0.00    -0.243 N 
HETATM    3  O   UNL     1      38.687 -12.429   6.236  1.00  0.00    -0.266 OA
HETATM    4  H   UNL     1      41.795 -12.555   7.103  1.00  0.00     0.192 HD
ENDROOT
BRANCH   2   5
HETATM    5  N   UNL     1      40.941 -13.910   5.830  1.00  0.00    -0.183 NA
HETATM    6  C   UNL     1      42.099 -14.377   5.469  1.00  0.00     0.153 C 
BRANCH   6   7
HETATM    7  C   UNL     1      42.208 -15.637   4.688  1.00  0.00     0.027 A 
HETATM    8  C   UNL     1      41.375 -15.824   3.569  1.00  0.00     0.078 A 
HETATM    9  C   UNL     1      41.398 -17.017   2.861  1.00  0.00     0.038 A 
HETATM   10  C   UNL     1      42.254 -18.039   3.257  1.00  0.00     0.015 A 
HETATM   11  C   UNL     1      43.108 -17.881   4.357  1.00  0.00    -0.025 A 
HETATM   12  C   UNL     1      43.110 -16.667   5.097  1.00  0.00    -0.012 A 
HETATM   13  C   UNL     1      43.962 -18.935   4.719  1.00  0.00     0.012 A 
HETATM   14  C   UNL     1      44.024 -16.580   6.181  1.00  0.00     0.013 A 
HETATM   15  C   UNL     1      44.871 -17.638   6.525  1.00  0.00     0.001 A 
HETATM   16  C   UNL     1      44.836 -18.817   5.796  1.00  0.00     0.001 A 
BRANCH   8  17
HETATM   17  O   UNL     1      40.492 -14.885   3.106  1.00  0.00    -0.360 OA
HETATM   18  H   UNL     1      39.652 -15.334   2.867  1.00  0.00     0.217 HD
ENDBRANCH   8  17
ENDBRANCH   6   7
ENDBRANCH   2   5
BRANCH   1  19
HETATM   19  C   UNL     1      39.704 -11.000   7.744  1.00  0.00     0.049 A 
HETATM   20  C   UNL     1      39.747 -11.349   9.096  1.00  0.00     0.108 A 
HETATM   21  N   UNL     1      39.764 -10.402  10.064  1.00  0.00    -0.361 N 
HETATM   22  C   UNL     1      39.720  -9.089   9.743  1.00  0.00     0.090 A 
HETATM   23  C   UNL     1      39.649  -8.692   8.410  1.00  0.00     0.018 A 
HETATM   24  C   UNL     1      39.640  -9.652   7.400  1.00  0.00     0.020 A 
BRANCH  21  25
HETATM   25  C   UNL     1      39.839 -10.813  11.490  1.00  0.00     0.166 C 
BRANCH  25  26
HETATM   26  C   UNL     1      41.123 -10.341  12.120  1.00  0.00    -0.040 A 
HETATM   27  C   UNL     1      41.092  -9.569  13.293  1.00  0.00     0.009 A 
HETATM   28  C   UNL     1      42.279  -9.140  13.889  1.00  0.00     0.001 A 
HETATM   29  C   UNL     1      43.507  -9.476  13.326  1.00  0.00     0.000 A 
HETATM   30  C   UNL     1      43.553 -10.249  12.168  1.00  0.00     0.001 A 
HETATM   31  C   UNL     1      42.369 -10.684  11.571  1.00  0.00     0.009 A 
ENDBRANCH  25  26
ENDBRANCH  21  25
ENDBRANCH   1  19
TORSDOF 6
ENDMDL
MODEL 10
REMARK VINA RESULT:      -8.3      6.213      8.820
REMARK  6 active torsions:
REMARK  status: ('A' for Active; 'I' for Inactive)
REMARK    1  A    between atoms: C_4  and  C_5 
REMARK    2  A    between atoms: C_5  and  N_6 
REMARK    3  A    between atoms: C_8  and  C_9 
REMARK       I    between atoms: C_9  and  N_10 
REMARK    4  A    between atoms: N_10  and  N_11 
REMARK    5  A    between atoms: C_12  and  C_13 
REMARK    6  A    between atoms: C_14  and  O_15 
ROOT
HETATM    1  C   UNL     1      40.543 -13.303   5.267  1.00  0.00     0.273 C 
HETATM    2  N   UNL     1      40.422 -11.965   5.606  1.00  0.00    -0.243 N 
HETATM    3  O   UNL     1      40.876 -14.197   6.041  1.00  0.00    -0.266 OA
HETATM    4  H   UNL     1      40.088 -11.255   4.967  1.00  0.00     0.192 HD
ENDROOT
BRANCH   2   5
HETATM    5  N   UNL     1      40.593 -11.628   6.914  1.00  0.00    -0.183 NA
HETATM    6  C   UNL     1      41.683 -10.987   7.212  1.00  0.00     0.153 C 
BRANCH   6   7
HETATM    7  C   UNL     1      41.938 -10.510   8.596  1.00  0.00     0.027 A 
HETATM    8  C   UNL     1      41.011  -9.641   9.203  1.00  0.00     0.078 A 
HETATM    9  C   UNL     1      41.253  -9.117  10.465  1.00  0.00     0.038 A 
HETATM   10  C   UNL     1      42.420  -9.455  11.141  1.00  0.00     0.015 A 
HETATM   11  C   UNL     1      43.357 -10.329  10.573  1.00  0.00    -0.025 A 
HETATM   12  C   UNL     1      43.133 -10.885   9.284  1.00  0.00    -0.012 A 
HETATM   13  C   UNL     1      44.520 -10.650  11.293  1.00  0.00     0.012 A 
HETATM   14  C   UNL     1      44.120 -11.781   8.793  1.00  0.00     0.013 A 
HETATM   15  C   UNL     1      45.269 -12.093   9.525  1.00  0.00     0.001 A 
HETATM   16  C   UNL     1      45.471 -11.524  10.773  1.00  0.00     0.001 A 
BRANCH   8  17
HETATM   17  O   UNL     1      39.840  -9.241   8.617  1.00  0.00    -0.360 OA
HETATM   18  H   UNL     1      39.208  -8.980   9.323  1.00  0.00     0.217 HD
ENDBRANCH   8  17
ENDBRANCH   6   7
ENDBRANCH   2   5
BRANCH   1  19
HETATM   19  C   UNL     1      40.198 -13.708   3.884  1.00  0.00     0.049 A 
HETATM   20  C   UNL     1      40.359 -15.064   3.586  1.00  0.00     0.108 A 
HETATM   21  N   UNL     1      40.030 -15.558   2.369  1.00  0.00    -0.361 N 
HETATM   22  C   UNL     1      39.552 -14.742   1.402  1.00  0.00     0.090 A 
HETATM   23  C   UNL     1      39.399 -13.379   1.642  1.00  0.00     0.018 A 
HETATM   24  C   UNL     1      39.723 -12.855   2.892  1.00  0.00     0.020 A 
BRANCH  21  25
HETATM   25  C   UNL     1      40.189 -17.011   2.100  1.00  0.00     0.166 C 
BRANCH  25  26
HETATM   26  C   UNL     1      41.644 -17.401   2.096  1.00  0.00    -0.040 A 
HETATM   27  C   UNL     1      42.199 -18.071   3.198  1.00  0.00     0.009 A 
HETATM   28  C   UNL     1      43.542 -18.448   3.194  1.00  0.00     0.001 A 
HETATM   29  C   UNL     1      44.346 -18.165   2.093  1.00  0.00     0.000 A 
HETATM   30  C   UNL     1      43.806 -17.509   0.989  1.00  0.00     0.001 A 
HETATM   31  C   UNL     1      42.462 -17.134   0.987  1.00  0.00     0.009 A 
ENDBRANCH  25  26
ENDBRANCH  21  25
ENDBRANCH   1  19
TORSDOF 6
ENDMDL
