MODEL 1
REMARK VINA RESULT:      -8.6      0.000      0.000
REMARK  3 active torsions:
REMARK  status: ('A' for Active; 'I' for Inactive)
REMARK    1  A    between atoms: C_4  and  C_5 
REMARK    2  A    between atoms: C_14  and  C_15 
REMARK       I    between atoms: C_15  and  N_16 
REMARK    3  A    between atoms: N_16  and  C_17 
ROOT
HETATM    1  C   UNL     1      43.797 -15.752   4.271  1.00  0.00     0.222 A 
HETATM    2  N   UNL     1      43.001 -14.544   4.473  1.00  0.00    -0.090 N 
HETATM    3  C   UNL     1      42.297 -14.260   5.609  1.00  0.00     0.735 A 
HETATM    4  N   UNL     1      41.772 -13.067   5.479  1.00  0.00     0.030 NA
HETATM    5  N   UNL     1      42.206 -12.597   4.254  1.00  0.00     0.033 NA
HETATM    6  N   UNL     1      42.988 -13.484   3.647  1.00  0.00     0.012 NA
HETATM    7  N   UNL     1      42.282 -15.159   6.611  1.00  0.00    -0.191 N 
HETATM    8  C   UNL     1      42.977 -16.363   6.568  1.00  0.00     0.037 A 
HETATM    9  C   UNL     1      42.859 -17.224   7.804  1.00  0.00     0.070 C 
HETATM   10  C   UNL     1      43.717 -16.685   5.475  1.00  0.00     0.064 A 
HETATM   11  H   UNL     1      41.751 -14.951   7.453  1.00  0.00     0.184 HD
ENDROOT
BRANCH  10  12
HETATM   12  C   UNL     1      44.384 -18.021   5.377  1.00  0.00     0.256 C 
HETATM   13  N   UNL     1      43.707 -18.941   4.604  1.00  0.00    -0.323 N 
HETATM   14  H   UNL     1      42.810 -18.687   4.215  1.00  0.00     0.169 HD
HETATM   15  O   UNL     1      45.434 -18.211   5.979  1.00  0.00    -0.267 OA
BRANCH  13  16
HETATM   16  C   UNL     1      44.110 -20.264   4.308  1.00  0.00     0.035 A 
HETATM   17  C   UNL     1      44.515 -21.194   5.266  1.00  0.00     0.029 A 
HETATM   18  C   UNL     1      44.916 -22.479   4.885  1.00  0.00     0.002 A 
HETATM   19  C   UNL     1      44.911 -22.846   3.541  1.00  0.00     0.000 A 
HETATM   20  C   UNL     1      44.508 -21.928   2.577  1.00  0.00     0.002 A 
HETATM   21  C   UNL     1      44.113 -20.642   2.958  1.00  0.00     0.029 A 
ENDBRANCH  13  16
ENDBRANCH  10  12
BRANCH   1  22
HETATM   22  C   UNL     1      43.419 -16.389   2.971  1.00  0.00     0.083 A 
HETATM   23  O   UNL     1      42.101 -16.722   2.833  1.00  0.00    -0.317 OA
HETATM   24  C   UNL     1      41.952 -17.263   1.593  1.00  0.00     0.049 A 
HETATM   25  C   UNL     1      40.595 -17.717   1.227  1.00  0.00     0.076 C 
HETATM   26  C   UNL     1      43.160 -17.271   0.930  1.00  0.00     0.035 A 
HETATM   27  C   UNL     1      44.106 -16.702   1.815  1.00  0.00     0.038 A 
ENDBRANCH   1  22
TORSDOF 3
ENDMDL
MODEL 2
REMARK VINA RESULT:      -8.2      1.880      4.170
REMARK  3 active torsions:
REMARK  status: ('A' for Active; 'I' for Inactive)
REMARK    1  A    between atoms: C_4  and  C_5 
REMARK    2  A    between atoms: C_14  and  C_15 
REMARK       I    between atoms: C_15  and  N_16 
REMARK    3  A    between atoms: N_16  and  C_17 
ROOT
HETATM    1  C   UNL     1      41.544 -14.470   4.851  1.00  0.00     0.222 A 
HETATM    2  N   UNL     1      41.469 -13.011   4.819  1.00  0.00    -0.090 N 
HETATM    3  C   UNL     1      41.457 -12.261   3.678  1.00  0.00     0.735 A 
HETATM    4  N   UNL     1      41.301 -11.004   4.015  1.00  0.00     0.030 NA
HETATM    5  N   UNL     1      41.168 -10.999   5.391  1.00  0.00     0.033 NA
HETATM    6  N   UNL     1      41.236 -12.230   5.887  1.00  0.00     0.012 NA
HETATM    7  N   UNL     1      41.565 -12.878   2.487  1.00  0.00    -0.191 N 
HETATM    8  C   UNL     1      41.658 -14.259   2.348  1.00  0.00     0.037 A 
HETATM    9  C   UNL     1      41.742 -14.764   0.926  1.00  0.00     0.070 C 
HETATM   10  C   UNL     1      41.646 -15.058   3.447  1.00  0.00     0.064 A 
HETATM   11  H   UNL     1      41.565 -12.318   1.638  1.00  0.00     0.184 HD
ENDROOT
BRANCH  10  12
HETATM   12  C   UNL     1      41.849 -16.534   3.315  1.00  0.00     0.256 C 
HETATM   13  N   UNL     1      43.163 -16.941   3.412  1.00  0.00    -0.323 N 
HETATM   14  H   UNL     1      43.885 -16.241   3.504  1.00  0.00     0.169 HD
HETATM   15  O   UNL     1      40.878 -17.256   3.117  1.00  0.00    -0.267 OA
BRANCH  13  16
HETATM   16  C   UNL     1      43.649 -18.268   3.357  1.00  0.00     0.035 A 
HETATM   17  C   UNL     1      43.620 -19.067   2.213  1.00  0.00     0.029 A 
HETATM   18  C   UNL     1      44.107 -20.379   2.251  1.00  0.00     0.002 A 
HETATM   19  C   UNL     1      44.631 -20.900   3.431  1.00  0.00     0.000 A 
HETATM   20  C   UNL     1      44.667 -20.112   4.577  1.00  0.00     0.002 A 
HETATM   21  C   UNL     1      44.175 -18.804   4.541  1.00  0.00     0.029 A 
ENDBRANCH  13  16
ENDBRANCH  10  12
BRANCH   1  22
HETATM   22  C   UNL     1      42.638 -14.895   5.779  1.00  0.00     0.083 A 
HETATM   23  O   UNL     1      42.377 -16.002   6.538  1.00  0.00    -0.317 OA
HETATM   24  C   UNL     1      43.484 -16.240   7.293  1.00  0.00     0.049 A 
HETATM   25  C   UNL     1      43.421 -17.392   8.214  1.00  0.00     0.076 C 
HETATM   26  C   UNL     1      44.456 -15.302   7.020  1.00  0.00     0.035 A 
HETATM   27  C   UNL     1      43.914 -14.437   6.039  1.00  0.00     0.038 A 
ENDBRANCH   1  22
TORSDOF 3
ENDMDL
MODEL 3
REMARK VINA RESULT:      -8.1      2.407      3.167
REMARK  3 active torsions:
REMARK  status: ('A' for Active; 'I' for Inactive)
REMARK    1  A    between atoms: C_4  and  C_5 
REMARK    2  A    between atoms: C_14  and  C_15 
REMARK       I    between atoms: C_15  and  N_16 
REMARK    3  A    between atoms: N_16  and  C_17 
ROOT
HETATM    1  C   UNL     1      41.471 -14.317   3.694  1.00  0.00     0.222 A 
HETATM    2  N   UNL     1      41.046 -13.155   4.471  1.00  0.00    -0.090 N 
HETATM    3  C   UNL     1      40.556 -13.210   5.744  1.00  0.00     0.735 A 
HETATM    4  N   UNL     1      40.355 -11.984   6.161  1.00  0.00     0.030 NA
HETATM    5  N   UNL     1      40.778 -11.165   5.132  1.00  0.00     0.033 NA
HETATM    6  N   UNL     1      41.235 -11.875   4.106  1.00  0.00     0.012 NA
HETATM    7  N   UNL     1      40.399 -14.410   6.333  1.00  0.00    -0.191 N 
HETATM    8  C   UNL     1      40.744 -15.612   5.723  1.00  0.00     0.037 A 
HETATM    9  C   UNL     1      40.522 -16.851   6.558  1.00  0.00     0.070 C 
HETATM   10  C   UNL     1      41.264 -15.615   4.468  1.00  0.00     0.064 A 
HETATM   11  H   UNL     1      40.025 -14.452   7.278  1.00  0.00     0.184 HD
ENDROOT
BRANCH  10  12
HETATM   12  C   UNL     1      41.541 -16.906   3.764  1.00  0.00     0.256 C 
HETATM   13  N   UNL     1      42.807 -17.410   3.971  1.00  0.00    -0.323 N 
HETATM   14  H   UNL     1      43.464 -16.870   4.517  1.00  0.00     0.169 HD
HETATM   15  O   UNL     1      40.668 -17.403   3.061  1.00  0.00    -0.267 OA
BRANCH  13  16
HETATM   16  C   UNL     1      43.336 -18.619   3.463  1.00  0.00     0.035 A 
HETATM   17  C   UNL     1      43.077 -19.113   2.185  1.00  0.00     0.029 A 
HETATM   18  C   UNL     1      43.627 -20.330   1.768  1.00  0.00     0.002 A 
HETATM   19  C   UNL     1      44.446 -21.060   2.625  1.00  0.00     0.000 A 
HETATM   20  C   UNL     1      44.713 -20.577   3.902  1.00  0.00     0.002 A 
HETATM   21  C   UNL     1      44.159 -19.364   4.320  1.00  0.00     0.029 A 
ENDBRANCH  13  16
ENDBRANCH  10  12
BRANCH   1  22
HETATM   22  C   UNL     1      40.815 -14.287   2.350  1.00  0.00     0.083 A 
HETATM   23  O   UNL     1      39.449 -14.253   2.355  1.00  0.00    -0.317 OA
HETATM   24  C   UNL     1      39.044 -14.210   1.057  1.00  0.00     0.049 A 
HETATM   25  C   UNL     1      37.587 -14.185   0.819  1.00  0.00     0.076 C 
HETATM   26  C   UNL     1      40.138 -14.207   0.218  1.00  0.00     0.035 A 
HETATM   27  C   UNL     1      41.281 -14.251   1.051  1.00  0.00     0.038 A 
ENDBRANCH   1  22
TORSDOF 3
ENDMDL
MODEL 4
REMARK VINA RESULT:      -7.8      2.143      6.169
REMARK  3 active torsions:
REMARK  status: ('A' for Active; 'I' for Inactive)
REMARK    1  A    between atoms: C_4  and  C_5 
REMARK    2  A    between atoms: C_14  and  C_15 
REMARK       I    between atoms: C_15  and  N_16 
REMARK    3  A    between atoms: N_16  and  C_17 
ROOT
HETATM    1  C   UNL     1      42.227 -18.304   3.669  1.00  0.00     0.222 A 
HETATM    2  N   UNL     1      43.177 -19.240   3.073  1.00  0.00    -0.090 N 
HETATM    3  C   UNL     1      44.387 -19.566   3.615  1.00  0.00     0.735 A 
HETATM    4  N   UNL     1      44.938 -20.489   2.865  1.00  0.00     0.030 NA
HETATM    5  N   UNL     1      44.018 -20.761   1.870  1.00  0.00     0.033 NA
HETATM    6  N   UNL     1      42.921 -20.023   2.012  1.00  0.00     0.012 NA
HETATM    7  N   UNL     1      44.778 -18.965   4.754  1.00  0.00    -0.191 N 
HETATM    8  C   UNL     1      43.994 -18.041   5.438  1.00  0.00     0.037 A 
HETATM    9  C   UNL     1      44.595 -17.501   6.715  1.00  0.00     0.070 C 
HETATM   10  C   UNL     1      42.769 -17.701   4.961  1.00  0.00     0.064 A 
HETATM   11  H   UNL     1      45.683 -19.202   5.153  1.00  0.00     0.184 HD
ENDROOT
BRANCH  10  12
HETATM   12  C   UNL     1      41.963 -16.633   5.632  1.00  0.00     0.256 C 
HETATM   13  N   UNL     1      42.063 -15.389   5.047  1.00  0.00    -0.323 N 
HETATM   14  H   UNL     1      42.694 -15.265   4.267  1.00  0.00     0.169 HD
HETATM   15  O   UNL     1      41.308 -16.915   6.629  1.00  0.00    -0.267 OA
BRANCH  13  16
HETATM   16  C   UNL     1      41.395 -14.206   5.441  1.00  0.00     0.035 A 
HETATM   17  C   UNL     1      40.010 -14.045   5.424  1.00  0.00     0.029 A 
HETATM   18  C   UNL     1      39.431 -12.832   5.815  1.00  0.00     0.002 A 
HETATM   19  C   UNL     1      40.233 -11.773   6.229  1.00  0.00     0.000 A 
HETATM   20  C   UNL     1      41.616 -11.922   6.252  1.00  0.00     0.002 A 
HETATM   21  C   UNL     1      42.195 -13.131   5.857  1.00  0.00     0.029 A 
ENDBRANCH  13  16
ENDBRANCH  10  12
BRANCH   1  22
HETATM   22  C   UNL     1      41.807 -17.297   2.646  1.00  0.00     0.083 A 
HETATM   23  O   UNL     1      40.558 -16.766   2.811  1.00  0.00    -0.317 OA
HETATM   24  C   UNL     1      40.369 -15.867   1.807  1.00  0.00     0.049 A 
HETATM   25  C   UNL     1      39.065 -15.175   1.776  1.00  0.00     0.076 C 
HETATM   26  C   UNL     1      41.487 -15.809   1.004  1.00  0.00     0.035 A 
HETATM   27  C   UNL     1      42.418 -16.726   1.547  1.00  0.00     0.038 A 
ENDBRANCH   1  22
TORSDOF 3
ENDMDL
MODEL 5
REMARK VINA RESULT:      -7.7      2.845      6.027
REMARK  3 active torsions:
REMARK  status: ('A' for Active; 'I' for Inactive)
REMARK    1  A    between atoms: C_4  and  C_5 
REMARK    2  A    between atoms: C_14  and  C_15 
REMARK       I    between atoms: C_15  and  N_16 
REMARK    3  A    between atoms: N_16  and  C_17 
ROOT
HETATM    1  C   UNL     1      42.064 -15.872   3.764  1.00  0.00     0.222 A 
HETATM    2  N   UNL     1      42.929 -15.426   4.853  1.00  0.00    -0.090 N 
HETATM    3  C   UNL     1      43.084 -14.125   5.236  1.00  0.00     0.735 A 
HETATM    4  N   UNL     1      43.864 -14.097   6.289  1.00  0.00     0.030 NA
HETATM    5  N   UNL     1      44.150 -15.417   6.578  1.00  0.00     0.033 NA
HETATM    6  N   UNL     1      43.553 -16.239   5.723  1.00  0.00     0.012 NA
HETATM    7  N   UNL     1      42.441 -13.160   4.553  1.00  0.00    -0.191 N 
HETATM    8  C   UNL     1      41.591 -13.419   3.482  1.00  0.00     0.037 A 
HETATM    9  C   UNL     1      40.938 -12.205   2.864  1.00  0.00     0.070 C 
HETATM   10  C   UNL     1      41.376 -14.697   3.076  1.00  0.00     0.064 A 
HETATM   11  H   UNL     1      42.564 -12.190   4.833  1.00  0.00     0.184 HD
ENDROOT
BRANCH  10  12
HETATM   12  C   UNL     1      40.547 -14.979   1.863  1.00  0.00     0.256 C 
HETATM   13  N   UNL     1      41.086 -14.516   0.682  1.00  0.00    -0.323 N 
HETATM   14  H   UNL     1      41.945 -13.985   0.712  1.00  0.00     0.169 HD
HETATM   15  O   UNL     1      39.476 -15.561   1.993  1.00  0.00    -0.267 OA
BRANCH  13  16
HETATM   16  C   UNL     1      40.545 -14.663  -0.617  1.00  0.00     0.035 A 
HETATM   17  C   UNL     1      39.430 -13.968  -1.085  1.00  0.00     0.029 A 
HETATM   18  C   UNL     1      38.948 -14.188  -2.380  1.00  0.00     0.002 A 
HETATM   19  C   UNL     1      39.581 -15.101  -3.219  1.00  0.00     0.000 A 
HETATM   20  C   UNL     1      40.695 -15.799  -2.764  1.00  0.00     0.002 A 
HETATM   21  C   UNL     1      41.173 -15.584  -1.468  1.00  0.00     0.029 A 
ENDBRANCH  13  16
ENDBRANCH  10  12
BRANCH   1  22
HETATM   22  C   UNL     1      42.837 -16.762   2.843  1.00  0.00     0.083 A 
HETATM   23  O   UNL     1      42.567 -18.098   2.941  1.00  0.00    -0.317 OA
HETATM   24  C   UNL     1      43.343 -18.733   2.020  1.00  0.00     0.049 A 
HETATM   25  C   UNL     1      43.229 -20.203   1.959  1.00  0.00     0.076 C 
HETATM   26  C   UNL     1      44.103 -17.815   1.326  1.00  0.00     0.035 A 
HETATM   27  C   UNL     1      43.773 -16.543   1.851  1.00  0.00     0.038 A 
ENDBRANCH   1  22
TORSDOF 3
ENDMDL
MODEL 6
REMARK VINA RESULT:      -7.6      2.550      5.903
REMARK  3 active torsions:
REMARK  status: ('A' for Active; 'I' for Inactive)
REMARK    1  A    between atoms: C_4  and  C_5 
REMARK    2  A    between atoms: C_14  and  C_15 
REMARK       I    between atoms: C_15  and  N_16 
REMARK    3  A    between atoms: N_16  and  C_17 
ROOT
HETATM    1  C   UNL     1      43.446 -16.717   5.220  1.00  0.00     0.222 A 
HETATM    2  N   UNL     1      43.574 -17.569   6.401  1.00  0.00    -0.090 N 
HETATM    3  C   UNL     1      43.766 -18.920   6.365  1.00  0.00     0.735 A 
HETATM    4  N   UNL     1      43.918 -19.346   7.595  1.00  0.00     0.030 NA
HETATM    5  N   UNL     1      43.862 -18.219   8.391  1.00  0.00     0.033 NA
HETATM    6  N   UNL     1      43.685 -17.121   7.663  1.00  0.00     0.012 NA
HETATM    7  N   UNL     1      43.801 -19.544   5.173  1.00  0.00    -0.191 N 
HETATM    8  C   UNL     1      43.681 -18.878   3.958  1.00  0.00     0.037 A 
HETATM    9  C   UNL     1      43.776 -19.751   2.728  1.00  0.00     0.070 C 
HETATM   10  C   UNL     1      43.517 -17.530   3.932  1.00  0.00     0.064 A 
HETATM   11  H   UNL     1      43.935 -20.552   5.147  1.00  0.00     0.184 HD
ENDROOT
BRANCH  10  12
HETATM   12  C   UNL     1      43.284 -16.818   2.637  1.00  0.00     0.256 C 
HETATM   13  N   UNL     1      41.959 -16.567   2.353  1.00  0.00    -0.323 N 
HETATM   14  H   UNL     1      41.250 -16.916   2.983  1.00  0.00     0.169 HD
HETATM   15  O   UNL     1      44.245 -16.533   1.930  1.00  0.00    -0.267 OA
BRANCH  13  16
HETATM   16  C   UNL     1      41.443 -15.888   1.224  1.00  0.00     0.035 A 
HETATM   17  C   UNL     1      41.526 -16.366  -0.084  1.00  0.00     0.029 A 
HETATM   18  C   UNL     1      41.005 -15.620  -1.147  1.00  0.00     0.002 A 
HETATM   19  C   UNL     1      40.393 -14.392  -0.910  1.00  0.00     0.000 A 
HETATM   20  C   UNL     1      40.303 -13.906   0.391  1.00  0.00     0.002 A 
HETATM   21  C   UNL     1      40.829 -14.648   1.452  1.00  0.00     0.029 A 
ENDBRANCH  13  16
ENDBRANCH  10  12
BRANCH   1  22
HETATM   22  C   UNL     1      42.223 -15.866   5.347  1.00  0.00     0.083 A 
HETATM   23  O   UNL     1      42.341 -14.583   4.890  1.00  0.00    -0.317 OA
HETATM   24  C   UNL     1      41.134 -13.980   5.070  1.00  0.00     0.049 A 
HETATM   25  C   UNL     1      41.033 -12.566   4.658  1.00  0.00     0.076 C 
HETATM   26  C   UNL     1      40.239 -14.867   5.630  1.00  0.00     0.035 A 
HETATM   27  C   UNL     1      40.938 -16.085   5.804  1.00  0.00     0.038 A 
ENDBRANCH   1  22
TORSDOF 3
ENDMDL
MODEL 7
REMARK VINA RESULT:      -7.5      2.505      4.653
REMARK  3 active torsions:
REMARK  status: ('A' for Active; 'I' for Inactive)
REMARK    1  A    between atoms: C_4  and  C_5 
REMARK    2  A    between atoms: C_14  and  C_15 
REMARK       I    between atoms: C_15  and  N_16 
REMARK    3  A    between atoms: N_16  and  C_17 
ROOT
HETATM    1  C   UNL     1      40.249 -14.797   3.085  1.00  0.00     0.222 A 
HETATM    2  N   UNL     1      39.932 -13.392   2.837  1.00  0.00    -0.090 N 
HETATM    3  C   UNL     1      40.010 -12.784   1.618  1.00  0.00     0.735 A 
HETATM    4  N   UNL     1      39.579 -11.553   1.745  1.00  0.00     0.030 NA
HETATM    5  N   UNL     1      39.187 -11.427   3.064  1.00  0.00     0.033 NA
HETATM    6  N   UNL     1      39.369 -12.562   3.731  1.00  0.00     0.012 NA
HETATM    7  N   UNL     1      40.448 -13.491   0.560  1.00  0.00    -0.191 N 
HETATM    8  C   UNL     1      40.802 -14.835   0.633  1.00  0.00     0.037 A 
HETATM    9  C   UNL     1      41.241 -15.461  -0.670  1.00  0.00     0.070 C 
HETATM   10  C   UNL     1      40.716 -15.499   1.814  1.00  0.00     0.064 A 
HETATM   11  H   UNL     1      40.515 -13.035  -0.346  1.00  0.00     0.184 HD
ENDROOT
BRANCH  10  12
HETATM   12  C   UNL     1      41.191 -16.914   1.926  1.00  0.00     0.256 C 
HETATM   13  N   UNL     1      42.477 -17.049   2.403  1.00  0.00    -0.323 N 
HETATM   14  H   UNL     1      43.020 -16.217   2.586  1.00  0.00     0.169 HD
HETATM   15  O   UNL     1      40.445 -17.824   1.582  1.00  0.00    -0.267 OA
BRANCH  13  16
HETATM   16  C   UNL     1      43.175 -18.256   2.641  1.00  0.00     0.035 A 
HETATM   17  C   UNL     1      43.338 -19.267   1.694  1.00  0.00     0.029 A 
HETATM   18  C   UNL     1      44.028 -20.441   2.019  1.00  0.00     0.002 A 
HETATM   19  C   UNL     1      44.564 -20.609   3.293  1.00  0.00     0.000 A 
HETATM   20  C   UNL     1      44.410 -19.607   4.245  1.00  0.00     0.002 A 
HETATM   21  C   UNL     1      43.715 -18.438   3.922  1.00  0.00     0.029 A 
ENDBRANCH  13  16
ENDBRANCH  10  12
BRANCH   1  22
HETATM   22  C   UNL     1      41.200 -14.901   4.234  1.00  0.00     0.083 A 
HETATM   23  O   UNL     1      41.051 -16.000   5.033  1.00  0.00    -0.317 OA
HETATM   24  C   UNL     1      42.008 -15.928   5.998  1.00  0.00     0.049 A 
HETATM   25  C   UNL     1      42.025 -17.016   6.996  1.00  0.00     0.076 C 
HETATM   26  C   UNL     1      42.776 -14.797   5.821  1.00  0.00     0.035 A 
HETATM   27  C   UNL     1      42.261 -14.137   4.681  1.00  0.00     0.038 A 
ENDBRANCH   1  22
TORSDOF 3
ENDMDL
MODEL 8
REMARK VINA RESULT:      -7.4      2.749      5.203
REMARK  3 active torsions:
REMARK  status: ('A' for Active; 'I' for Inactive)
REMARK    1  A    between atoms: C_4  and  C_5 
REMARK    2  A    between atoms: C_14  and  C_15 
REMARK       I    between atoms: C_15  and  N_16 
REMARK    3  A    between atoms: N_16  and  C_17 
ROOT
HETATM    1  C   UNL     1      39.914 -13.893   4.633  1.00  0.00     0.222 A 
HETATM    2  N   UNL     1      39.425 -12.541   4.895  1.00  0.00    -0.090 N 
HETATM    3  C   UNL     1      38.876 -11.719   3.954  1.00  0.00     0.735 A 
HETATM    4  N   UNL     1      38.474 -10.623   4.549  1.00  0.00     0.030 NA
HETATM    5  N   UNL     1      38.744 -10.806   5.892  1.00  0.00     0.033 NA
HETATM    6  N   UNL     1      39.296 -11.994   6.116  1.00  0.00     0.012 NA
HETATM    7  N   UNL     1      38.809 -12.140   2.677  1.00  0.00    -0.191 N 
HETATM    8  C   UNL     1      39.244 -13.394   2.262  1.00  0.00     0.037 A 
HETATM    9  C   UNL     1      39.057 -13.693   0.793  1.00  0.00     0.070 C 
HETATM   10  C   UNL     1      39.772 -14.265   3.161  1.00  0.00     0.064 A 
HETATM   11  H   UNL     1      38.408 -11.524   1.974  1.00  0.00     0.184 HD
ENDROOT
BRANCH  10  12
HETATM   12  C   UNL     1      40.337 -15.574   2.708  1.00  0.00     0.256 C 
HETATM   13  N   UNL     1      41.705 -15.682   2.838  1.00  0.00    -0.323 N 
HETATM   14  H   UNL     1      42.229 -14.882   3.163  1.00  0.00     0.169 HD
HETATM   15  O   UNL     1      39.582 -16.426   2.252  1.00  0.00    -0.267 OA
BRANCH  13  16
HETATM   16  C   UNL     1      42.505 -16.805   2.523  1.00  0.00     0.035 A 
HETATM   17  C   UNL     1      43.082 -17.032   1.273  1.00  0.00     0.029 A 
HETATM   18  C   UNL     1      43.845 -18.181   1.041  1.00  0.00     0.002 A 
HETATM   19  C   UNL     1      44.042 -19.111   2.058  1.00  0.00     0.000 A 
HETATM   20  C   UNL     1      43.473 -18.895   3.309  1.00  0.00     0.002 A 
HETATM   21  C   UNL     1      42.705 -17.750   3.540  1.00  0.00     0.029 A 
ENDBRANCH  13  16
ENDBRANCH  10  12
BRANCH   1  22
HETATM   22  C   UNL     1      41.300 -14.037   5.176  1.00  0.00     0.083 A 
HETATM   23  O   UNL     1      41.553 -15.192   5.863  1.00  0.00    -0.317 OA
HETATM   24  C   UNL     1      42.855 -15.148   6.256  1.00  0.00     0.049 A 
HETATM   25  C   UNL     1      43.349 -16.298   7.039  1.00  0.00     0.076 C 
HETATM   26  C   UNL     1      43.444 -13.981   5.819  1.00  0.00     0.035 A 
HETATM   27  C   UNL     1      42.445 -13.266   5.117  1.00  0.00     0.038 A 
ENDBRANCH   1  22
TORSDOF 3
ENDMDL
MODEL 9
REMARK VINA RESULT:      -7.4      2.864      5.196
REMARK  3 active torsions:
REMARK  status: ('A' for Active; 'I' for Inactive)
REMARK    1  A    between atoms: C_4  and  C_5 
REMARK    2  A    between atoms: C_14  and  C_15 
REMARK       I    between atoms: C_15  and  N_16 
REMARK    3  A    between atoms: N_16  and  C_17 
ROOT
HETATM    1  C   UNL     1      40.698 -15.257   2.163  1.00  0.00     0.222 A 
HETATM    2  N   UNL     1      40.714 -14.632   0.842  1.00  0.00    -0.090 N 
HETATM    3  C   UNL     1      41.493 -15.044  -0.201  1.00  0.00     0.735 A 
HETATM    4  N   UNL     1      41.195 -14.316  -1.249  1.00  0.00     0.030 NA
HETATM    5  N   UNL     1      40.177 -13.474  -0.843  1.00  0.00     0.033 NA
HETATM    6  N   UNL     1      39.853 -13.686   0.429  1.00  0.00     0.012 NA
HETATM    7  N   UNL     1      42.348 -16.066  -0.015  1.00  0.00    -0.191 N 
HETATM    8  C   UNL     1      42.463 -16.758   1.187  1.00  0.00     0.037 A 
HETATM    9  C   UNL     1      43.458 -17.895   1.188  1.00  0.00     0.070 C 
HETATM   10  C   UNL     1      41.691 -16.411   2.249  1.00  0.00     0.064 A 
HETATM   11  H   UNL     1      42.935 -16.367  -0.789  1.00  0.00     0.184 HD
ENDROOT
BRANCH  10  12
HETATM   12  C   UNL     1      41.880 -17.080   3.574  1.00  0.00     0.256 C 
HETATM   13  N   UNL     1      43.039 -16.728   4.232  1.00  0.00    -0.323 N 
HETATM   14  H   UNL     1      43.693 -16.110   3.773  1.00  0.00     0.169 HD
HETATM   15  O   UNL     1      41.037 -17.879   3.966  1.00  0.00    -0.267 OA
BRANCH  13  16
HETATM   16  C   UNL     1      43.464 -17.173   5.506  1.00  0.00     0.035 A 
HETATM   17  C   UNL     1      44.483 -18.104   5.712  1.00  0.00     0.029 A 
HETATM   18  C   UNL     1      44.828 -18.504   7.007  1.00  0.00     0.002 A 
HETATM   19  C   UNL     1      44.162 -17.972   8.108  1.00  0.00     0.000 A 
HETATM   20  C   UNL     1      43.145 -17.041   7.915  1.00  0.00     0.002 A 
HETATM   21  C   UNL     1      42.796 -16.646   6.620  1.00  0.00     0.029 A 
ENDBRANCH  13  16
ENDBRANCH  10  12
BRANCH   1  22
HETATM   22  C   UNL     1      40.875 -14.209   3.215  1.00  0.00     0.083 A 
HETATM   23  O   UNL     1      39.848 -14.083   4.108  1.00  0.00    -0.317 OA
HETATM   24  C   UNL     1      40.198 -13.106   4.988  1.00  0.00     0.049 A 
HETATM   25  C   UNL     1      39.219 -12.784   6.045  1.00  0.00     0.076 C 
HETATM   26  C   UNL     1      41.445 -12.609   4.673  1.00  0.00     0.035 A 
HETATM   27  C   UNL     1      41.885 -13.323   3.534  1.00  0.00     0.038 A 
ENDBRANCH   1  22
TORSDOF 3
ENDMDL
MODEL 10
REMARK VINA RESULT:      -7.3      2.715      6.214
REMARK  3 active torsions:
REMARK  status: ('A' for Active; 'I' for Inactive)
REMARK    1  A    between atoms: C_4  and  C_5 
REMARK    2  A    between atoms: C_14  and  C_15 
REMARK       I    between atoms: C_15  and  N_16 
REMARK    3  A    between atoms: N_16  and  C_17 
ROOT
HETATM    1  C   UNL     1      42.720 -16.892   4.589  1.00  0.00     0.222 A 
HETATM    2  N   UNL     1      43.506 -17.867   5.341  1.00  0.00    -0.090 N 
HETATM    3  C   UNL     1      44.319 -17.559   6.394  1.00  0.00     0.735 A 
HETATM    4  N   UNL     1      44.802 -18.677   6.880  1.00  0.00     0.030 NA
HETATM    5  N   UNL     1      44.230 -19.688   6.132  1.00  0.00     0.033 NA
HETATM    6  N   UNL     1      43.407 -19.200   5.209  1.00  0.00     0.012 NA
HETATM    7  N   UNL     1      44.461 -16.271   6.757  1.00  0.00    -0.191 N 
HETATM    8  C   UNL     1      43.792 -15.223   6.133  1.00  0.00     0.037 A 
HETATM    9  C   UNL     1      44.059 -13.851   6.706  1.00  0.00     0.070 C 
HETATM   10  C   UNL     1      42.947 -15.473   5.100  1.00  0.00     0.064 A 
HETATM   11  H   UNL     1      45.074 -16.042   7.536  1.00  0.00     0.184 HD
ENDROOT
BRANCH  10  12
HETATM   12  C   UNL     1      42.303 -14.345   4.356  1.00  0.00     0.256 C 
HETATM   13  N   UNL     1      40.924 -14.356   4.384  1.00  0.00    -0.323 N 
HETATM   14  H   UNL     1      40.451 -15.126   4.836  1.00  0.00     0.169 HD
HETATM   15  O   UNL     1      43.011 -13.529   3.778  1.00  0.00    -0.267 OA
BRANCH  13  16
HETATM   16  C   UNL     1      40.053 -13.407   3.800  1.00  0.00     0.035 A 
HETATM   17  C   UNL     1      39.547 -12.292   4.469  1.00  0.00     0.029 A 
HETATM   18  C   UNL     1      38.674 -11.411   3.821  1.00  0.00     0.002 A 
HETATM   19  C   UNL     1      38.305 -11.635   2.497  1.00  0.00     0.000 A 
HETATM   20  C   UNL     1      38.806 -12.742   1.819  1.00  0.00     0.002 A 
HETATM   21  C   UNL     1      39.673 -13.625   2.468  1.00  0.00     0.029 A 
ENDBRANCH  13  16
ENDBRANCH  10  12
BRANCH   1  22
HETATM   22  C   UNL     1      42.971 -17.069   3.125  1.00  0.00     0.083 A 
HETATM   23  O   UNL     1      41.968 -16.652   2.294  1.00  0.00    -0.317 OA
HETATM   24  C   UNL     1      42.386 -16.874   1.018  1.00  0.00     0.049 A 
HETATM   25  C   UNL     1      41.444 -16.510  -0.059  1.00  0.00     0.076 C 
HETATM   26  C   UNL     1      43.651 -17.421   1.021  1.00  0.00     0.035 A 
HETATM   27  C   UNL     1      44.032 -17.542   2.378  1.00  0.00     0.038 A 
ENDBRANCH   1  22
TORSDOF 3
ENDMDL
