MODEL 1
REMARK VINA RESULT:      -9.3      0.000      0.000
REMARK  6 active torsions:
REMARK  status: ('A' for Active; 'I' for Inactive)
REMARK    1  A    between atoms: C_2  and  O_3 
REMARK    2  A    between atoms: C_2  and  C_4 
REMARK    3  A    between atoms: C_6  and  N_7 
REMARK       I    between atoms: N_7  and  C_8 
REMARK    4  A    between atoms: C_8  and  C_9 
REMARK    5  A    between atoms: C_14  and  C_15 
REMARK    6  A    between atoms: C_23  and  C_24 
ROOT
HETATM    1  C   UNL     1      40.568 -13.873   5.298  1.00  0.00     0.148 A 
HETATM    2  N   UNL     1      40.661 -13.856   3.945  1.00  0.00    -0.165 NA
HETATM    3  N   UNL     1      41.414 -14.942   3.679  1.00  0.00    -0.240 N 
HETATM    4  C   UNL     1      41.871 -15.588   4.786  1.00  0.00     0.123 A 
HETATM    5  N   UNL     1      42.645 -16.682   4.675  1.00  0.00    -0.366 N 
HETATM    6  C   UNL     1      43.516 -16.865   3.520  1.00  0.00     0.118 C 
HETATM    7  C   UNL     1      43.048 -16.117   2.251  1.00  0.00     0.066 C 
HETATM    8  C   UNL     1      41.684 -15.402   2.334  1.00  0.00     0.221 C 
HETATM    9  C   UNL     1      41.329 -14.937   5.858  1.00  0.00     0.089 A 
HETATM   10  H   UNL     1      43.008 -17.116   5.526  1.00  0.00     0.161 HD
ENDROOT
BRANCH   1  11
HETATM   11  C   UNL     1      39.749 -12.914   6.060  1.00  0.00     0.276 C 
HETATM   12  N   UNL     1      40.506 -12.107   6.885  1.00  0.00    -0.322 N 
HETATM   13  H   UNL     1      41.499 -12.331   6.879  1.00  0.00     0.169 HD
HETATM   14  O   UNL     1      38.530 -12.880   5.922  1.00  0.00    -0.266 OA
BRANCH  12  15
HETATM   15  C   UNL     1      40.072 -11.021   7.666  1.00  0.00     0.035 A 
HETATM   16  C   UNL     1      40.098 -11.015   9.065  1.00  0.00     0.039 A 
HETATM   17  C   UNL     1      39.621  -9.914   9.798  1.00  0.00    -0.028 A 
HETATM   18  C   UNL     1      39.113  -8.810   9.104  1.00  0.00     0.010 A 
HETATM   19  C   UNL     1      39.090  -8.802   7.710  1.00  0.00     0.003 A 
HETATM   20  C   UNL     1      39.564  -9.905   6.996  1.00  0.00     0.029 A 
BRANCH  17  21
HETATM   21  C   UNL     1      39.628  -9.962  11.311  1.00  0.00     0.147 C 
HETATM   22  C   UNL     1      40.290 -11.227  11.840  1.00  0.00     0.044 C 
BRANCH  21  23
HETATM   23  O   UNL     1      38.295  -9.892  11.815  1.00  0.00    -0.391 OA
HETATM   24  H   UNL     1      37.799  -9.320  11.204  1.00  0.00     0.210 HD
ENDBRANCH  21  23
ENDBRANCH  17  21
ENDBRANCH  12  15
ENDBRANCH   1  11
BRANCH   8  25
HETATM   25  C   UNL     1      40.544 -16.267   1.846  1.00  0.00     0.409 C 
HETATM   26  F   UNL     1      39.423 -15.548   1.611  1.00  0.00    -0.169 F 
HETATM   27  F   UNL     1      40.878 -16.843   0.662  1.00  0.00    -0.169 F 
HETATM   28  F   UNL     1      40.221 -17.266   2.689  1.00  0.00    -0.169 F 
ENDBRANCH   8  25
BRANCH   6  29
HETATM   29  C   UNL     1      43.752 -18.350   3.304  1.00  0.00    -0.035 A 
HETATM   30  C   UNL     1      44.414 -19.139   4.260  1.00  0.00     0.012 A 
HETATM   31  C   UNL     1      44.664 -20.492   4.024  1.00  0.00     0.043 A 
HETATM   32  C   UNL     1      44.256 -21.064   2.827  1.00  0.00     0.116 A 
HETATM   33  F   UNL     1      44.513 -22.357   2.592  1.00  0.00    -0.206 F 
HETATM   34  C   UNL     1      43.594 -20.311   1.866  1.00  0.00     0.043 A 
HETATM   35  C   UNL     1      43.337 -18.959   2.105  1.00  0.00     0.012 A 
ENDBRANCH   6  29
TORSDOF 6
ENDMDL
MODEL 2
REMARK VINA RESULT:      -9.3      1.816      2.314
REMARK  6 active torsions:
REMARK  status: ('A' for Active; 'I' for Inactive)
REMARK    1  A    between atoms: C_2  and  O_3 
REMARK    2  A    between atoms: C_2  and  C_4 
REMARK    3  A    between atoms: C_6  and  N_7 
REMARK       I    between atoms: N_7  and  C_8 
REMARK    4  A    between atoms: C_8  and  C_9 
REMARK    5  A    between atoms: C_14  and  C_15 
REMARK    6  A    between atoms: C_23  and  C_24 
ROOT
HETATM    1  C   UNL     1      41.740 -11.989   5.998  1.00  0.00     0.148 A 
HETATM    2  N   UNL     1      41.128 -11.992   4.788  1.00  0.00    -0.165 NA
HETATM    3  N   UNL     1      41.636 -13.091   4.195  1.00  0.00    -0.240 N 
HETATM    4  C   UNL     1      42.593 -13.726   4.924  1.00  0.00     0.123 A 
HETATM    5  N   UNL     1      43.198 -14.831   4.453  1.00  0.00    -0.366 N 
HETATM    6  C   UNL     1      43.355 -15.041   3.019  1.00  0.00     0.118 C 
HETATM    7  C   UNL     1      42.306 -14.307   2.154  1.00  0.00     0.066 C 
HETATM    8  C   UNL     1      41.179 -13.574   2.910  1.00  0.00     0.221 C 
HETATM    9  C   UNL     1      42.677 -13.054   6.110  1.00  0.00     0.089 A 
HETATM   10  H   UNL     1      43.944 -15.257   5.007  1.00  0.00     0.161 HD
ENDROOT
BRANCH   1  11
HETATM   11  C   UNL     1      41.429 -11.009   7.053  1.00  0.00     0.276 C 
HETATM   12  N   UNL     1      40.438 -11.447   7.910  1.00  0.00    -0.322 N 
HETATM   13  H   UNL     1      40.044 -12.349   7.653  1.00  0.00     0.169 HD
HETATM   14  O   UNL     1      42.029  -9.940   7.116  1.00  0.00    -0.266 OA
BRANCH  12  15
HETATM   15  C   UNL     1      39.971 -10.823   9.080  1.00  0.00     0.035 A 
HETATM   16  C   UNL     1      40.306 -11.248  10.370  1.00  0.00     0.039 A 
HETATM   17  C   UNL     1      39.785 -10.608  11.508  1.00  0.00    -0.028 A 
HETATM   18  C   UNL     1      38.915  -9.524  11.333  1.00  0.00     0.010 A 
HETATM   19  C   UNL     1      38.581  -9.087  10.052  1.00  0.00     0.003 A 
HETATM   20  C   UNL     1      39.104  -9.737   8.931  1.00  0.00     0.029 A 
BRANCH  17  21
HETATM   21  C   UNL     1      40.139 -11.123  12.886  1.00  0.00     0.147 C 
HETATM   22  C   UNL     1      41.607 -10.901  13.220  1.00  0.00     0.044 C 
BRANCH  21  23
HETATM   23  O   UNL     1      39.848 -12.516  12.983  1.00  0.00    -0.391 OA
HETATM   24  H   UNL     1      39.659 -12.693  13.921  1.00  0.00     0.210 HD
ENDBRANCH  21  23
ENDBRANCH  17  21
ENDBRANCH  12  15
ENDBRANCH   1  11
BRANCH   8  25
HETATM   25  C   UNL     1      39.947 -14.432   3.089  1.00  0.00     0.409 C 
HETATM   26  F   UNL     1      39.551 -14.492   4.381  1.00  0.00    -0.169 F 
HETATM   27  F   UNL     1      38.907 -13.895   2.400  1.00  0.00    -0.169 F 
HETATM   28  F   UNL     1      40.097 -15.696   2.648  1.00  0.00    -0.169 F 
ENDBRANCH   8  25
BRANCH   6  29
HETATM   29  C   UNL     1      43.443 -16.533   2.741  1.00  0.00    -0.035 A 
HETATM   30  C   UNL     1      43.404 -17.480   3.778  1.00  0.00     0.012 A 
HETATM   31  C   UNL     1      43.535 -18.844   3.507  1.00  0.00     0.043 A 
HETATM   32  C   UNL     1      43.708 -19.268   2.198  1.00  0.00     0.116 A 
HETATM   33  F   UNL     1      43.852 -20.574   1.940  1.00  0.00    -0.206 F 
HETATM   34  C   UNL     1      43.743 -18.355   1.151  1.00  0.00     0.043 A 
HETATM   35  C   UNL     1      43.606 -16.991   1.420  1.00  0.00     0.012 A 
ENDBRANCH   6  29
TORSDOF 6
ENDMDL
MODEL 3
REMARK VINA RESULT:      -8.9      5.810      9.782
REMARK  6 active torsions:
REMARK  status: ('A' for Active; 'I' for Inactive)
REMARK    1  A    between atoms: C_2  and  O_3 
REMARK    2  A    between atoms: C_2  and  C_4 
REMARK    3  A    between atoms: C_6  and  N_7 
REMARK       I    between atoms: N_7  and  C_8 
REMARK    4  A    between atoms: C_8  and  C_9 
REMARK    5  A    between atoms: C_14  and  C_15 
REMARK    6  A    between atoms: C_23  and  C_24 
ROOT
HETATM    1  C   UNL     1      41.877 -15.238   1.287  1.00  0.00     0.148 A 
HETATM    2  N   UNL     1      41.252 -14.078   1.606  1.00  0.00    -0.165 NA
HETATM    3  N   UNL     1      40.491 -13.835   0.520  1.00  0.00    -0.240 N 
HETATM    4  C   UNL     1      40.668 -14.725  -0.495  1.00  0.00     0.123 A 
HETATM    5  N   UNL     1      39.984 -14.602  -1.646  1.00  0.00    -0.366 N 
HETATM    6  C   UNL     1      39.549 -13.292  -2.118  1.00  0.00     0.118 C 
HETATM    7  C   UNL     1      39.370 -12.243  -0.997  1.00  0.00     0.066 C 
HETATM    8  C   UNL     1      39.543 -12.744   0.451  1.00  0.00     0.221 C 
HETATM    9  C   UNL     1      41.545 -15.663  -0.029  1.00  0.00     0.089 A 
HETATM   10  H   UNL     1      40.174 -15.260  -2.403  1.00  0.00     0.161 HD
ENDROOT
BRANCH   1  11
HETATM   11  C   UNL     1      42.759 -15.959   2.222  1.00  0.00     0.276 C 
HETATM   12  N   UNL     1      42.478 -17.309   2.283  1.00  0.00    -0.322 N 
HETATM   13  H   UNL     1      41.680 -17.587   1.717  1.00  0.00     0.169 HD
HETATM   14  O   UNL     1      43.637 -15.366   2.841  1.00  0.00    -0.266 OA
BRANCH  12  15
HETATM   15  C   UNL     1      43.183 -18.307   2.981  1.00  0.00     0.035 A 
HETATM   16  C   UNL     1      43.634 -19.492   2.390  1.00  0.00     0.039 A 
HETATM   17  C   UNL     1      44.305 -20.472   3.142  1.00  0.00    -0.028 A 
HETATM   18  C   UNL     1      44.522 -20.244   4.506  1.00  0.00     0.010 A 
HETATM   19  C   UNL     1      44.085 -19.063   5.103  1.00  0.00     0.003 A 
HETATM   20  C   UNL     1      43.415 -18.101   4.343  1.00  0.00     0.029 A 
BRANCH  17  21
HETATM   21  C   UNL     1      44.741 -21.759   2.476  1.00  0.00     0.147 C 
HETATM   22  C   UNL     1      43.957 -22.037   1.201  1.00  0.00     0.044 C 
BRANCH  21  23
HETATM   23  O   UNL     1      44.577 -22.859   3.369  1.00  0.00    -0.391 OA
HETATM   24  H   UNL     1      45.330 -23.455   3.214  1.00  0.00     0.210 HD
ENDBRANCH  21  23
ENDBRANCH  17  21
ENDBRANCH  12  15
ENDBRANCH   1  11
BRANCH   8  25
HETATM   25  C   UNL     1      38.233 -13.159   1.082  1.00  0.00     0.409 C 
HETATM   26  F   UNL     1      37.956 -12.447   2.198  1.00  0.00    -0.169 F 
HETATM   27  F   UNL     1      37.211 -12.921   0.219  1.00  0.00    -0.169 F 
HETATM   28  F   UNL     1      38.174 -14.465   1.405  1.00  0.00    -0.169 F 
ENDBRANCH   8  25
BRANCH   6  29
HETATM   29  C   UNL     1      38.323 -13.463  -2.999  1.00  0.00    -0.035 A 
HETATM   30  C   UNL     1      37.545 -12.364  -3.402  1.00  0.00     0.012 A 
HETATM   31  C   UNL     1      36.394 -12.544  -4.172  1.00  0.00     0.043 A 
HETATM   32  C   UNL     1      36.012 -13.826  -4.541  1.00  0.00     0.116 A 
HETATM   33  F   UNL     1      34.898 -14.002  -5.263  1.00  0.00    -0.206 F 
HETATM   34  C   UNL     1      36.765 -14.931  -4.163  1.00  0.00     0.043 A 
HETATM   35  C   UNL     1      37.920 -14.751  -3.398  1.00  0.00     0.012 A 
ENDBRANCH   6  29
TORSDOF 6
ENDMDL
MODEL 4
REMARK VINA RESULT:      -8.8      6.160      9.922
REMARK  6 active torsions:
REMARK  status: ('A' for Active; 'I' for Inactive)
REMARK    1  A    between atoms: C_2  and  O_3 
REMARK    2  A    between atoms: C_2  and  C_4 
REMARK    3  A    between atoms: C_6  and  N_7 
REMARK       I    between atoms: N_7  and  C_8 
REMARK    4  A    between atoms: C_8  and  C_9 
REMARK    5  A    between atoms: C_14  and  C_15 
REMARK    6  A    between atoms: C_23  and  C_24 
ROOT
HETATM    1  C   UNL     1      41.424 -15.431   1.101  1.00  0.00     0.148 A 
HETATM    2  N   UNL     1      40.470 -15.589   0.150  1.00  0.00    -0.165 NA
HETATM    3  N   UNL     1      40.632 -14.498  -0.625  1.00  0.00    -0.240 N 
HETATM    4  C   UNL     1      41.569 -13.623  -0.168  1.00  0.00     0.123 A 
HETATM    5  N   UNL     1      41.830 -12.483  -0.832  1.00  0.00    -0.366 N 
HETATM    6  C   UNL     1      40.797 -11.832  -1.630  1.00  0.00     0.118 C 
HETATM    7  C   UNL     1      39.695 -12.788  -2.139  1.00  0.00     0.066 C 
HETATM    8  C   UNL     1      39.899 -14.290  -1.855  1.00  0.00     0.221 C 
HETATM    9  C   UNL     1      42.120 -14.201   0.940  1.00  0.00     0.089 A 
HETATM   10  H   UNL     1      42.507 -11.828  -0.437  1.00  0.00     0.161 HD
ENDROOT
BRANCH   1  11
HETATM   11  C   UNL     1      41.699 -16.440   2.138  1.00  0.00     0.276 C 
HETATM   12  N   UNL     1      42.889 -17.109   1.927  1.00  0.00    -0.322 N 
HETATM   13  H   UNL     1      43.363 -16.839   1.068  1.00  0.00     0.169 HD
HETATM   14  O   UNL     1      40.919 -16.612   3.070  1.00  0.00    -0.266 OA
BRANCH  12  15
HETATM   15  C   UNL     1      43.511 -18.050   2.767  1.00  0.00     0.035 A 
HETATM   16  C   UNL     1      43.860 -19.340   2.356  1.00  0.00     0.039 A 
HETATM   17  C   UNL     1      44.452 -20.255   3.245  1.00  0.00    -0.028 A 
HETATM   18  C   UNL     1      44.691 -19.852   4.565  1.00  0.00     0.010 A 
HETATM   19  C   UNL     1      44.355 -18.566   4.983  1.00  0.00     0.003 A 
HETATM   20  C   UNL     1      43.764 -17.671   4.088  1.00  0.00     0.029 A 
BRANCH  17  21
HETATM   21  C   UNL     1      44.777 -21.656   2.774  1.00  0.00     0.147 C 
HETATM   22  C   UNL     1      44.028 -22.019   1.500  1.00  0.00     0.044 C 
BRANCH  21  23
HETATM   23  O   UNL     1      44.454 -22.606   3.788  1.00  0.00    -0.391 OA
HETATM   24  H   UNL     1      44.156 -23.410   3.327  1.00  0.00     0.210 HD
ENDBRANCH  21  23
ENDBRANCH  17  21
ENDBRANCH  12  15
ENDBRANCH   1  11
BRANCH   8  25
HETATM   25  C   UNL     1      40.588 -15.007  -2.994  1.00  0.00     0.409 C 
HETATM   26  F   UNL     1      40.497 -16.353  -2.879  1.00  0.00    -0.169 F 
HETATM   27  F   UNL     1      39.988 -14.687  -4.170  1.00  0.00    -0.169 F 
HETATM   28  F   UNL     1      41.891 -14.695  -3.123  1.00  0.00    -0.169 F 
ENDBRANCH   8  25
BRANCH   6  29
HETATM   29  C   UNL     1      41.457 -11.017  -2.729  1.00  0.00    -0.035 A 
HETATM   30  C   UNL     1      41.923  -9.711  -2.501  1.00  0.00     0.012 A 
HETATM   31  C   UNL     1      42.483  -8.958  -3.535  1.00  0.00     0.043 A 
HETATM   32  C   UNL     1      42.578  -9.507  -4.806  1.00  0.00     0.116 A 
HETATM   33  F   UNL     1      43.098  -8.780  -5.803  1.00  0.00    -0.206 F 
HETATM   34  C   UNL     1      42.132 -10.798  -5.060  1.00  0.00     0.043 A 
HETATM   35  C   UNL     1      41.577 -11.554  -4.024  1.00  0.00     0.012 A 
ENDBRANCH   6  29
TORSDOF 6
ENDMDL
MODEL 5
REMARK VINA RESULT:      -8.8      3.635      5.323
REMARK  6 active torsions:
REMARK  status: ('A' for Active; 'I' for Inactive)
REMARK    1  A    between atoms: C_2  and  O_3 
REMARK    2  A    between atoms: C_2  and  C_4 
REMARK    3  A    between atoms: C_6  and  N_7 
REMARK       I    between atoms: N_7  and  C_8 
REMARK    4  A    between atoms: C_8  and  C_9 
REMARK    5  A    between atoms: C_14  and  C_15 
REMARK    6  A    between atoms: C_23  and  C_24 
ROOT
HETATM    1  C   UNL     1      43.429 -14.604   5.644  1.00  0.00     0.148 A 
HETATM    2  N   UNL     1      43.136 -15.871   5.260  1.00  0.00    -0.165 NA
HETATM    3  N   UNL     1      42.653 -15.706   4.013  1.00  0.00    -0.240 N 
HETATM    4  C   UNL     1      42.544 -14.406   3.625  1.00  0.00     0.123 A 
HETATM    5  N   UNL     1      42.066 -14.087   2.409  1.00  0.00    -0.366 N 
HETATM    6  C   UNL     1      41.110 -14.956   1.733  1.00  0.00     0.118 C 
HETATM    7  C   UNL     1      41.180 -16.436   2.172  1.00  0.00     0.066 C 
HETATM    8  C   UNL     1      42.314 -16.814   3.147  1.00  0.00     0.221 C 
HETATM    9  C   UNL     1      43.055 -13.660   4.648  1.00  0.00     0.089 A 
HETATM   10  H   UNL     1      41.955 -13.101   2.168  1.00  0.00     0.161 HD
ENDROOT
BRANCH   1  11
HETATM   11  C   UNL     1      44.080 -14.283   6.926  1.00  0.00     0.276 C 
HETATM   12  N   UNL     1      43.961 -12.950   7.263  1.00  0.00    -0.322 N 
HETATM   13  H   UNL     1      43.491 -12.389   6.557  1.00  0.00     0.169 HD
HETATM   14  O   UNL     1      44.642 -15.156   7.581  1.00  0.00    -0.266 OA
BRANCH  12  15
HETATM   15  C   UNL     1      44.365 -12.321   8.455  1.00  0.00     0.035 A 
HETATM   16  C   UNL     1      43.471 -11.863   9.428  1.00  0.00     0.039 A 
HETATM   17  C   UNL     1      43.927 -11.212  10.588  1.00  0.00    -0.028 A 
HETATM   18  C   UNL     1      45.304 -11.026  10.761  1.00  0.00     0.010 A 
HETATM   19  C   UNL     1      46.204 -11.487   9.801  1.00  0.00     0.003 A 
HETATM   20  C   UNL     1      45.735 -12.128   8.652  1.00  0.00     0.029 A 
BRANCH  17  21
HETATM   21  C   UNL     1      42.926 -10.693  11.599  1.00  0.00     0.147 C 
HETATM   22  C   UNL     1      43.596  -9.901  12.713  1.00  0.00     0.044 C 
BRANCH  21  23
HETATM   23  O   UNL     1      42.198 -11.776  12.175  1.00  0.00    -0.391 OA
HETATM   24  H   UNL     1      42.395 -12.560  11.633  1.00  0.00     0.210 HD
ENDBRANCH  21  23
ENDBRANCH  17  21
ENDBRANCH  12  15
ENDBRANCH   1  11
BRANCH   8  25
HETATM   25  C   UNL     1      43.551 -17.309   2.433  1.00  0.00     0.409 C 
HETATM   26  F   UNL     1      43.254 -17.933   1.269  1.00  0.00    -0.169 F 
HETATM   27  F   UNL     1      44.346 -16.258   2.106  1.00  0.00    -0.169 F 
HETATM   28  F   UNL     1      44.301 -18.152   3.168  1.00  0.00    -0.169 F 
ENDBRANCH   8  25
BRANCH   6  29
HETATM   29  C   UNL     1      41.230 -14.756   0.231  1.00  0.00    -0.035 A 
HETATM   30  C   UNL     1      41.561 -13.507  -0.323  1.00  0.00     0.012 A 
HETATM   31  C   UNL     1      41.620 -13.330  -1.707  1.00  0.00     0.043 A 
HETATM   32  C   UNL     1      41.346 -14.401  -2.545  1.00  0.00     0.116 A 
HETATM   33  F   UNL     1      41.384 -14.228  -3.873  1.00  0.00    -0.206 F 
HETATM   34  C   UNL     1      41.023 -15.649  -2.026  1.00  0.00     0.043 A 
HETATM   35  C   UNL     1      40.970 -15.828  -0.642  1.00  0.00     0.012 A 
ENDBRANCH   6  29
TORSDOF 6
ENDMDL
MODEL 6
REMARK VINA RESULT:      -8.6      5.735     10.035
REMARK  6 active torsions:
REMARK  status: ('A' for Active; 'I' for Inactive)
REMARK    1  A    between atoms: C_2  and  O_3 
REMARK    2  A    between atoms: C_2  and  C_4 
REMARK    3  A    between atoms: C_6  and  N_7 
REMARK       I    between atoms: N_7  and  C_8 
REMARK    4  A    between atoms: C_8  and  C_9 
REMARK    5  A    between atoms: C_14  and  C_15 
REMARK    6  A    between atoms: C_23  and  C_24 
ROOT
HETATM    1  C   UNL     1      41.527 -16.145   1.102  1.00  0.00     0.148 A 
HETATM    2  N   UNL     1      41.337 -15.649  -0.146  1.00  0.00    -0.165 NA
HETATM    3  N   UNL     1      40.314 -14.788   0.023  1.00  0.00    -0.240 N 
HETATM    4  C   UNL     1      39.794 -14.779   1.281  1.00  0.00     0.123 A 
HETATM    5  N   UNL     1      38.760 -13.978   1.594  1.00  0.00    -0.366 N 
HETATM    6  C   UNL     1      37.785 -13.589   0.582  1.00  0.00     0.118 C 
HETATM    7  C   UNL     1      38.328 -13.620  -0.864  1.00  0.00     0.066 C 
HETATM    8  C   UNL     1      39.832 -13.921  -1.031  1.00  0.00     0.221 C 
HETATM    9  C   UNL     1      40.566 -15.632   2.017  1.00  0.00     0.089 A 
HETATM   10  H   UNL     1      38.366 -14.030   2.535  1.00  0.00     0.161 HD
ENDROOT
BRANCH   1  11
HETATM   11  C   UNL     1      42.619 -17.074   1.439  1.00  0.00     0.276 C 
HETATM   12  N   UNL     1      42.530 -17.553   2.731  1.00  0.00    -0.322 N 
HETATM   13  H   UNL     1      41.759 -17.155   3.262  1.00  0.00     0.169 HD
HETATM   14  O   UNL     1      43.480 -17.358   0.612  1.00  0.00    -0.266 OA
BRANCH  12  15
HETATM   15  C   UNL     1      43.333 -18.529   3.348  1.00  0.00     0.035 A 
HETATM   16  C   UNL     1      43.730 -19.713   2.718  1.00  0.00     0.039 A 
HETATM   17  C   UNL     1      44.507 -20.672   3.392  1.00  0.00    -0.028 A 
HETATM   18  C   UNL     1      44.885 -20.424   4.717  1.00  0.00     0.010 A 
HETATM   19  C   UNL     1      44.501 -19.243   5.351  1.00  0.00     0.003 A 
HETATM   20  C   UNL     1      43.725 -18.302   4.670  1.00  0.00     0.029 A 
BRANCH  17  21
HETATM   21  C   UNL     1      44.883 -21.959   2.690  1.00  0.00     0.147 C 
HETATM   22  C   UNL     1      44.105 -22.153   1.396  1.00  0.00     0.044 C 
BRANCH  21  23
HETATM   23  O   UNL     1      44.645 -23.076   3.545  1.00  0.00    -0.391 OA
HETATM   24  H   UNL     1      45.146 -23.822   3.171  1.00  0.00     0.210 HD
ENDBRANCH  21  23
ENDBRANCH  17  21
ENDBRANCH  12  15
ENDBRANCH   1  11
BRANCH   8  25
HETATM   25  C   UNL     1      40.672 -12.666  -1.091  1.00  0.00     0.409 C 
HETATM   26  F   UNL     1      41.431 -12.613  -2.210  1.00  0.00    -0.169 F 
HETATM   27  F   UNL     1      39.865 -11.573  -1.130  1.00  0.00    -0.169 F 
HETATM   28  F   UNL     1      41.491 -12.508  -0.034  1.00  0.00    -0.169 F 
ENDBRANCH   8  25
BRANCH   6  29
HETATM   29  C   UNL     1      37.162 -12.260   0.975  1.00  0.00    -0.035 A 
HETATM   30  C   UNL     1      35.967 -11.804   0.392  1.00  0.00     0.012 A 
HETATM   31  C   UNL     1      35.436 -10.558   0.731  1.00  0.00     0.043 A 
HETATM   32  C   UNL     1      36.097  -9.759   1.652  1.00  0.00     0.116 A 
HETATM   33  F   UNL     1      35.598  -8.556   1.963  1.00  0.00    -0.206 F 
HETATM   34  C   UNL     1      37.276 -10.186   2.249  1.00  0.00     0.043 A 
HETATM   35  C   UNL     1      37.806 -11.435   1.917  1.00  0.00     0.012 A 
ENDBRANCH   6  29
TORSDOF 6
ENDMDL
MODEL 7
REMARK VINA RESULT:      -8.4      5.034      7.807
REMARK  6 active torsions:
REMARK  status: ('A' for Active; 'I' for Inactive)
REMARK    1  A    between atoms: C_2  and  O_3 
REMARK    2  A    between atoms: C_2  and  C_4 
REMARK    3  A    between atoms: C_6  and  N_7 
REMARK       I    between atoms: N_7  and  C_8 
REMARK    4  A    between atoms: C_8  and  C_9 
REMARK    5  A    between atoms: C_14  and  C_15 
REMARK    6  A    between atoms: C_23  and  C_24 
ROOT
HETATM    1  C   UNL     1      41.438 -13.529   1.217  1.00  0.00     0.148 A 
HETATM    2  N   UNL     1      40.989 -13.696   2.486  1.00  0.00    -0.165 NA
HETATM    3  N   UNL     1      41.437 -14.926   2.807  1.00  0.00    -0.240 N 
HETATM    4  C   UNL     1      42.064 -15.575   1.787  1.00  0.00     0.123 A 
HETATM    5  N   UNL     1      42.552 -16.816   1.958  1.00  0.00    -0.366 N 
HETATM    6  C   UNL     1      41.944 -17.732   2.915  1.00  0.00     0.118 C 
HETATM    7  C   UNL     1      41.193 -17.032   4.070  1.00  0.00     0.066 C 
HETATM    8  C   UNL     1      41.297 -15.495   4.130  1.00  0.00     0.221 C 
HETATM    9  C   UNL     1      42.102 -14.695   0.743  1.00  0.00     0.089 A 
HETATM   10  H   UNL     1      42.976 -17.291   1.159  1.00  0.00     0.161 HD
ENDROOT
BRANCH   1  11
HETATM   11  C   UNL     1      41.270 -12.275   0.463  1.00  0.00     0.276 C 
HETATM   12  N   UNL     1      42.389 -11.943  -0.273  1.00  0.00    -0.322 N 
HETATM   13  H   UNL     1      43.169 -12.583  -0.143  1.00  0.00     0.169 HD
HETATM   14  O   UNL     1      40.218 -11.645   0.519  1.00  0.00    -0.266 OA
BRANCH  12  15
HETATM   15  C   UNL     1      42.540 -10.882  -1.184  1.00  0.00     0.035 A 
HETATM   16  C   UNL     1      42.291 -10.998  -2.555  1.00  0.00     0.039 A 
HETATM   17  C   UNL     1      42.489  -9.914  -3.428  1.00  0.00    -0.028 A 
HETATM   18  C   UNL     1      42.944  -8.699  -2.901  1.00  0.00     0.010 A 
HETATM   19  C   UNL     1      43.187  -8.569  -1.534  1.00  0.00     0.003 A 
HETATM   20  C   UNL     1      42.989  -9.658  -0.681  1.00  0.00     0.029 A 
BRANCH  17  21
HETATM   21  C   UNL     1      42.249 -10.092  -4.911  1.00  0.00     0.147 C 
HETATM   22  C   UNL     1      40.765 -10.133  -5.249  1.00  0.00     0.044 C 
BRANCH  21  23
HETATM   23  O   UNL     1      42.861 -11.295  -5.371  1.00  0.00    -0.391 OA
HETATM   24  H   UNL     1      43.812 -11.104  -5.459  1.00  0.00     0.210 HD
ENDBRANCH  21  23
ENDBRANCH  17  21
ENDBRANCH  12  15
ENDBRANCH   1  11
BRANCH   8  25
HETATM   25  C   UNL     1      42.426 -15.023   5.017  1.00  0.00     0.409 C 
HETATM   26  F   UNL     1      42.244 -13.752   5.444  1.00  0.00    -0.169 F 
HETATM   27  F   UNL     1      42.486 -15.793   6.135  1.00  0.00    -0.169 F 
HETATM   28  F   UNL     1      43.639 -15.088   4.434  1.00  0.00    -0.169 F 
ENDBRANCH   8  25
BRANCH   6  29
HETATM   29  C   UNL     1      42.989 -18.733   3.381  1.00  0.00    -0.035 A 
HETATM   30  C   UNL     1      43.529 -19.695   2.510  1.00  0.00     0.012 A 
HETATM   31  C   UNL     1      44.452 -20.637   2.967  1.00  0.00     0.043 A 
HETATM   32  C   UNL     1      44.839 -20.624   4.300  1.00  0.00     0.116 A 
HETATM   33  F   UNL     1      45.711 -21.539   4.743  1.00  0.00    -0.206 F 
HETATM   34  C   UNL     1      44.328 -19.681   5.182  1.00  0.00     0.043 A 
HETATM   35  C   UNL     1      43.409 -18.734   4.723  1.00  0.00     0.012 A 
ENDBRANCH   6  29
TORSDOF 6
ENDMDL
MODEL 8
REMARK VINA RESULT:      -8.3      6.318      9.451
REMARK  6 active torsions:
REMARK  status: ('A' for Active; 'I' for Inactive)
REMARK    1  A    between atoms: C_2  and  O_3 
REMARK    2  A    between atoms: C_2  and  C_4 
REMARK    3  A    between atoms: C_6  and  N_7 
REMARK       I    between atoms: N_7  and  C_8 
REMARK    4  A    between atoms: C_8  and  C_9 
REMARK    5  A    between atoms: C_14  and  C_15 
REMARK    6  A    between atoms: C_23  and  C_24 
ROOT
HETATM    1  C   UNL     1      41.075 -15.372   0.924  1.00  0.00     0.148 A 
HETATM    2  N   UNL     1      39.862 -14.987   0.456  1.00  0.00    -0.165 NA
HETATM    3  N   UNL     1      40.162 -13.943  -0.342  1.00  0.00    -0.240 N 
HETATM    4  C   UNL     1      41.478 -13.596  -0.335  1.00  0.00     0.123 A 
HETATM    5  N   UNL     1      41.924 -12.566  -1.075  1.00  0.00    -0.366 N 
HETATM    6  C   UNL     1      41.049 -11.442  -1.390  1.00  0.00     0.118 C 
HETATM    7  C   UNL     1      39.543 -11.788  -1.375  1.00  0.00     0.066 C 
HETATM    8  C   UNL     1      39.179 -13.272  -1.164  1.00  0.00     0.221 C 
HETATM    9  C   UNL     1      42.108 -14.511   0.460  1.00  0.00     0.089 A 
HETATM   10  H   UNL     1      42.909 -12.304  -1.011  1.00  0.00     0.161 HD
ENDROOT
BRANCH   1  11
HETATM   11  C   UNL     1      41.267 -16.556   1.779  1.00  0.00     0.276 C 
HETATM   12  N   UNL     1      42.568 -17.018   1.762  1.00  0.00    -0.322 N 
HETATM   13  H   UNL     1      43.176 -16.506   1.127  1.00  0.00     0.169 HD
HETATM   14  O   UNL     1      40.333 -17.026   2.422  1.00  0.00    -0.266 OA
BRANCH  12  15
HETATM   15  C   UNL     1      43.128 -18.052   2.534  1.00  0.00     0.035 A 
HETATM   16  C   UNL     1      43.233 -18.005   3.928  1.00  0.00     0.039 A 
HETATM   17  C   UNL     1      43.831 -19.053   4.650  1.00  0.00    -0.028 A 
HETATM   18  C   UNL     1      44.325 -20.159   3.948  1.00  0.00     0.010 A 
HETATM   19  C   UNL     1      44.217 -20.220   2.560  1.00  0.00     0.003 A 
HETATM   20  C   UNL     1      43.624 -19.169   1.857  1.00  0.00     0.029 A 
BRANCH  17  21
HETATM   21  C   UNL     1      43.964 -18.946   6.154  1.00  0.00     0.147 C 
HETATM   22  C   UNL     1      45.219 -18.190   6.565  1.00  0.00     0.044 C 
BRANCH  21  23
HETATM   23  O   UNL     1      43.994 -20.246   6.741  1.00  0.00    -0.391 OA
HETATM   24  H   UNL     1      44.927 -20.436   6.942  1.00  0.00     0.210 HD
ENDBRANCH  21  23
ENDBRANCH  17  21
ENDBRANCH  12  15
ENDBRANCH   1  11
BRANCH   8  25
HETATM   25  C   UNL     1      39.000 -14.016  -2.468  1.00  0.00     0.409 C 
HETATM   26  F   UNL     1      37.794 -14.624  -2.548  1.00  0.00    -0.169 F 
HETATM   27  F   UNL     1      39.053 -13.143  -3.507  1.00  0.00    -0.169 F 
HETATM   28  F   UNL     1      39.944 -14.950  -2.694  1.00  0.00    -0.169 F 
ENDBRANCH   8  25
BRANCH   6  29
HETATM   29  C   UNL     1      41.516 -10.795  -2.684  1.00  0.00    -0.035 A 
HETATM   30  C   UNL     1      41.967 -11.562  -3.772  1.00  0.00     0.012 A 
HETATM   31  C   UNL     1      42.438 -10.949  -4.935  1.00  0.00     0.043 A 
HETATM   32  C   UNL     1      42.463  -9.564  -5.015  1.00  0.00     0.116 A 
HETATM   33  F   UNL     1      42.932  -8.975  -6.123  1.00  0.00    -0.206 F 
HETATM   34  C   UNL     1      42.017  -8.780  -3.959  1.00  0.00     0.043 A 
HETATM   35  C   UNL     1      41.540  -9.393  -2.798  1.00  0.00     0.012 A 
ENDBRANCH   6  29
TORSDOF 6
ENDMDL
MODEL 9
REMARK VINA RESULT:      -8.2      4.723      7.767
REMARK  6 active torsions:
REMARK  status: ('A' for Active; 'I' for Inactive)
REMARK    1  A    between atoms: C_2  and  O_3 
REMARK    2  A    between atoms: C_2  and  C_4 
REMARK    3  A    between atoms: C_6  and  N_7 
REMARK       I    between atoms: N_7  and  C_8 
REMARK    4  A    between atoms: C_8  and  C_9 
REMARK    5  A    between atoms: C_14  and  C_15 
REMARK    6  A    between atoms: C_23  and  C_24 
ROOT
HETATM    1  C   UNL     1      39.386 -14.518   1.676  1.00  0.00     0.148 A 
HETATM    2  N   UNL     1      40.176 -13.883   2.578  1.00  0.00    -0.165 NA
HETATM    3  N   UNL     1      40.869 -14.895   3.138  1.00  0.00    -0.240 N 
HETATM    4  C   UNL     1      40.500 -16.131   2.705  1.00  0.00     0.123 A 
HETATM    5  N   UNL     1      41.096 -17.236   3.185  1.00  0.00    -0.366 N 
HETATM    6  C   UNL     1      41.652 -17.257   4.533  1.00  0.00     0.118 C 
HETATM    7  C   UNL     1      42.052 -15.866   5.074  1.00  0.00     0.066 C 
HETATM    8  C   UNL     1      41.938 -14.684   4.090  1.00  0.00     0.221 C 
HETATM    9  C   UNL     1      39.553 -15.929   1.741  1.00  0.00     0.089 A 
HETATM   10  H   UNL     1      40.764 -18.150   2.872  1.00  0.00     0.161 HD
ENDROOT
BRANCH   1  11
HETATM   11  C   UNL     1      38.500 -13.803   0.741  1.00  0.00     0.276 C 
HETATM   12  N   UNL     1      38.781 -14.089  -0.580  1.00  0.00    -0.322 N 
HETATM   13  H   UNL     1      39.582 -14.704  -0.705  1.00  0.00     0.169 HD
HETATM   14  O   UNL     1      37.619 -13.057   1.156  1.00  0.00    -0.266 OA
BRANCH  12  15
HETATM   15  C   UNL     1      38.074 -13.674  -1.723  1.00  0.00     0.035 A 
HETATM   16  C   UNL     1      37.542 -12.390  -1.878  1.00  0.00     0.039 A 
HETATM   17  C   UNL     1      36.814 -12.035  -3.028  1.00  0.00    -0.028 A 
HETATM   18  C   UNL     1      36.628 -12.995  -4.030  1.00  0.00     0.010 A 
HETATM   19  C   UNL     1      37.161 -14.276  -3.890  1.00  0.00     0.003 A 
HETATM   20  C   UNL     1      37.878 -14.613  -2.739  1.00  0.00     0.029 A 
BRANCH  17  21
HETATM   21  C   UNL     1      36.218 -10.649  -3.140  1.00  0.00     0.147 C 
HETATM   22  C   UNL     1      34.812 -10.582  -2.562  1.00  0.00     0.044 C 
BRANCH  21  23
HETATM   23  O   UNL     1      36.177 -10.237  -4.506  1.00  0.00    -0.391 OA
HETATM   24  H   UNL     1      36.850 -10.763  -4.973  1.00  0.00     0.210 HD
ENDBRANCH  21  23
ENDBRANCH  17  21
ENDBRANCH  12  15
ENDBRANCH   1  11
BRANCH   8  25
HETATM   25  C   UNL     1      43.233 -14.409   3.360  1.00  0.00     0.409 C 
HETATM   26  F   UNL     1      43.078 -13.495   2.374  1.00  0.00    -0.169 F 
HETATM   27  F   UNL     1      44.144 -13.885   4.221  1.00  0.00    -0.169 F 
HETATM   28  F   UNL     1      43.794 -15.505   2.817  1.00  0.00    -0.169 F 
ENDBRANCH   8  25
BRANCH   6  29
HETATM   29  C   UNL     1      42.771 -18.284   4.595  1.00  0.00    -0.035 A 
HETATM   30  C   UNL     1      43.365 -18.799   3.430  1.00  0.00     0.012 A 
HETATM   31  C   UNL     1      44.358 -19.777   3.504  1.00  0.00     0.043 A 
HETATM   32  C   UNL     1      44.763 -20.248   4.745  1.00  0.00     0.116 A 
HETATM   33  F   UNL     1      45.702 -21.200   4.817  1.00  0.00    -0.206 F 
HETATM   34  C   UNL     1      44.199 -19.752   5.914  1.00  0.00     0.043 A 
HETATM   35  C   UNL     1      43.210 -18.769   5.840  1.00  0.00     0.012 A 
ENDBRANCH   6  29
TORSDOF 6
ENDMDL
MODEL 10
REMARK VINA RESULT:      -8.2      5.386     11.288
REMARK  6 active torsions:
REMARK  status: ('A' for Active; 'I' for Inactive)
REMARK    1  A    between atoms: C_2  and  O_3 
REMARK    2  A    between atoms: C_2  and  C_4 
REMARK    3  A    between atoms: C_6  and  N_7 
REMARK       I    between atoms: N_7  and  C_8 
REMARK    4  A    between atoms: C_8  and  C_9 
REMARK    5  A    between atoms: C_14  and  C_15 
REMARK    6  A    between atoms: C_23  and  C_24 
ROOT
HETATM    1  C   UNL     1      41.815 -10.900   7.862  1.00  0.00     0.148 A 
HETATM    2  N   UNL     1      42.882 -10.904   8.699  1.00  0.00    -0.165 NA
HETATM    3  N   UNL     1      42.451 -10.170   9.744  1.00  0.00    -0.240 N 
HETATM    4  C   UNL     1      41.211  -9.634   9.575  1.00  0.00     0.123 A 
HETATM    5  N   UNL     1      40.656  -8.869  10.531  1.00  0.00    -0.366 N 
HETATM    6  C   UNL     1      41.488  -8.083  11.434  1.00  0.00     0.118 C 
HETATM    7  C   UNL     1      42.917  -8.642  11.625  1.00  0.00     0.066 C 
HETATM    8  C   UNL     1      43.223  -9.997  10.956  1.00  0.00     0.221 C 
HETATM    9  C   UNL     1      40.756 -10.100   8.375  1.00  0.00     0.089 A 
HETATM   10  H   UNL     1      39.743  -8.446  10.353  1.00  0.00     0.161 HD
ENDROOT
BRANCH   1  11
HETATM   11  C   UNL     1      41.778 -11.663   6.603  1.00  0.00     0.276 C 
HETATM   12  N   UNL     1      42.579 -12.787   6.639  1.00  0.00    -0.322 N 
HETATM   13  H   UNL     1      43.107 -12.886   7.503  1.00  0.00     0.169 HD
HETATM   14  O   UNL     1      41.080 -11.293   5.664  1.00  0.00    -0.266 OA
BRANCH  12  15
HETATM   15  C   UNL     1      42.701 -13.792   5.663  1.00  0.00     0.035 A 
HETATM   16  C   UNL     1      42.270 -15.109   5.853  1.00  0.00     0.039 A 
HETATM   17  C   UNL     1      42.445 -16.085   4.855  1.00  0.00    -0.028 A 
HETATM   18  C   UNL     1      43.062 -15.717   3.653  1.00  0.00     0.010 A 
HETATM   19  C   UNL     1      43.486 -14.405   3.450  1.00  0.00     0.003 A 
HETATM   20  C   UNL     1      43.309 -13.448   4.453  1.00  0.00     0.029 A 
BRANCH  17  21
HETATM   21  C   UNL     1      42.004 -17.509   5.114  1.00  0.00     0.147 C 
HETATM   22  C   UNL     1      42.730 -18.504   4.219  1.00  0.00     0.044 C 
BRANCH  21  23
HETATM   23  O   UNL     1      40.599 -17.638   4.904  1.00  0.00    -0.391 OA
HETATM   24  H   UNL     1      40.338 -16.902   4.323  1.00  0.00     0.210 HD
ENDBRANCH  21  23
ENDBRANCH  17  21
ENDBRANCH  12  15
ENDBRANCH   1  11
BRANCH   8  25
HETATM   25  C   UNL     1      42.995 -11.167  11.885  1.00  0.00     0.409 C 
HETATM   26  F   UNL     1      43.814 -12.208  11.605  1.00  0.00    -0.169 F 
HETATM   27  F   UNL     1      43.272 -10.801  13.163  1.00  0.00    -0.169 F 
HETATM   28  F   UNL     1      41.730 -11.630  11.877  1.00  0.00    -0.169 F 
ENDBRANCH   8  25
BRANCH   6  29
HETATM   29  C   UNL     1      40.738  -7.861  12.737  1.00  0.00    -0.035 A 
HETATM   30  C   UNL     1      41.368  -8.004  13.985  1.00  0.00     0.012 A 
HETATM   31  C   UNL     1      40.651  -7.844  15.173  1.00  0.00     0.043 A 
HETATM   32  C   UNL     1      39.298  -7.542  15.119  1.00  0.00     0.116 A 
HETATM   33  F   UNL     1      38.605  -7.407  16.257  1.00  0.00    -0.206 F 
HETATM   34  C   UNL     1      38.650  -7.388  13.900  1.00  0.00     0.043 A 
HETATM   35  C   UNL     1      39.368  -7.542  12.712  1.00  0.00     0.012 A 
ENDBRANCH   6  29
TORSDOF 6
ENDMDL
