MODEL 1
REMARK VINA RESULT:      -7.8      0.000      0.000
REMARK  7 active torsions:
REMARK  status: ('A' for Active; 'I' for Inactive)
REMARK    1  A    between atoms: C_2  and  C_3 
REMARK    2  A    between atoms: C_3  and  N_4 
REMARK    3  A    between atoms: C_7  and  C_8 
REMARK       I    between atoms: C_8  and  N_9 
REMARK    4  A    between atoms: N_9  and  C_10 
REMARK    5  A    between atoms: C_11  and  O_12 
REMARK    6  A    between atoms: C_16  and  C_17 
REMARK       I    between atoms: C_17  and  N_18 
REMARK    7  A    between atoms: C_23  and  C_24 
ROOT
HETATM    1  C   UNL     1      41.044 -16.699   2.556  1.00  0.00     0.259 C 
HETATM    2  N   UNL     1      41.142 -15.397   2.112  1.00  0.00    -0.320 N 
HETATM    3  O   UNL     1      40.286 -17.552   2.108  1.00  0.00    -0.267 OA
HETATM    4  H   UNL     1      41.609 -14.716   2.702  1.00  0.00     0.169 HD
ENDROOT
BRANCH   2   5
HETATM    5  C   UNL     1      40.608 -14.891   0.905  1.00  0.00     0.069 A 
HETATM    6  C   UNL     1      39.473 -14.059   0.974  1.00  0.00     0.095 A 
HETATM    7  C   UNL     1      38.944 -13.522  -0.204  1.00  0.00     0.040 A 
HETATM    8  C   UNL     1      39.537 -13.808  -1.438  1.00  0.00     0.020 A 
HETATM    9  C   UNL     1      40.664 -14.632  -1.509  1.00  0.00     0.034 A 
HETATM   10  C   UNL     1      41.211 -15.143  -0.332  1.00  0.00     0.049 A 
BRANCH   6  11
HETATM   11  O   UNL     1      38.974 -13.838   2.235  1.00  0.00    -0.354 OA
HETATM   12  C   UNL     1      38.949 -12.489   2.688  1.00  0.00     0.210 C 
ENDBRANCH   6  11
BRANCH   9  13
HETATM   13  C   UNL     1      41.309 -14.847  -2.827  1.00  0.00     0.251 C 
HETATM   14  N   UNL     1      42.220 -13.950  -3.330  1.00  0.00    -0.361 N 
HETATM   15  C   UNL     1      42.887 -12.851  -2.666  1.00  0.00     0.149 C 
HETATM   16  H   UNL     1      42.544 -14.201  -4.256  1.00  0.00     0.162 HD
HETATM   17  O   UNL     1      41.023 -15.849  -3.478  1.00  0.00    -0.268 OA
ENDBRANCH   9  13
ENDBRANCH   2   5
BRANCH   1  18
HETATM   18  C   UNL     1      41.926 -16.997   3.659  1.00  0.00     0.076 C 
HETATM   19  C   UNL     1      41.791 -16.553   4.991  1.00  0.00     0.158 C 
HETATM   20  N   UNL     1      42.726 -17.053   5.798  1.00  0.00    -0.183 NA
HETATM   21  N   UNL     1      43.420 -17.896   5.000  1.00  0.00    -0.268 N 
HETATM   22  C   UNL     1      43.051 -17.809   3.674  1.00  0.00     0.052 C 
BRANCH  21  23
HETATM   23  C   UNL     1      44.396 -18.802   5.601  1.00  0.00     0.106 C 
HETATM   24  C   UNL     1      45.381 -18.028   6.476  1.00  0.00     0.034 C 
BRANCH  23  25
HETATM   25  C   UNL     1      43.743 -19.957   6.388  1.00  0.00     0.022 C 
HETATM   26  C   UNL     1      44.304 -21.324   6.014  1.00  0.00     0.007 C 
ENDBRANCH  23  25
ENDBRANCH  21  23
BRANCH  22  27
HETATM   27  C   UNL     1      43.772 -18.503   2.516  1.00  0.00     0.038 A 
HETATM   28  C   UNL     1      44.374 -19.878   2.676  1.00  0.00     0.011 A 
HETATM   29  C   UNL     1      43.138 -19.712   1.863  1.00  0.00     0.011 A 
ENDBRANCH  22  27
ENDBRANCH   1  18
TORSDOF 7
ENDMDL
MODEL 2
REMARK VINA RESULT:      -7.3      2.385      3.337
REMARK  7 active torsions:
REMARK  status: ('A' for Active; 'I' for Inactive)
REMARK    1  A    between atoms: C_2  and  C_3 
REMARK    2  A    between atoms: C_3  and  N_4 
REMARK    3  A    between atoms: C_7  and  C_8 
REMARK       I    between atoms: C_8  and  N_9 
REMARK    4  A    between atoms: N_9  and  C_10 
REMARK    5  A    between atoms: C_11  and  O_12 
REMARK    6  A    between atoms: C_16  and  C_17 
REMARK       I    between atoms: C_17  and  N_18 
REMARK    7  A    between atoms: C_23  and  C_24 
ROOT
HETATM    1  C   UNL     1      42.033 -16.681   3.985  1.00  0.00     0.259 C 
HETATM    2  N   UNL     1      42.707 -15.481   3.907  1.00  0.00    -0.320 N 
HETATM    3  O   UNL     1      40.826 -16.833   3.833  1.00  0.00    -0.267 OA
HETATM    4  H   UNL     1      43.647 -15.424   4.289  1.00  0.00     0.169 HD
ENDROOT
BRANCH   2   5
HETATM    5  C   UNL     1      42.197 -14.276   3.371  1.00  0.00     0.069 A 
HETATM    6  C   UNL     1      41.523 -13.393   4.237  1.00  0.00     0.095 A 
HETATM    7  C   UNL     1      41.035 -12.182   3.737  1.00  0.00     0.040 A 
HETATM    8  C   UNL     1      41.214 -11.850   2.390  1.00  0.00     0.020 A 
HETATM    9  C   UNL     1      41.884 -12.725   1.529  1.00  0.00     0.034 A 
HETATM   10  C   UNL     1      42.399 -13.920   2.033  1.00  0.00     0.049 A 
BRANCH   6  11
HETATM   11  O   UNL     1      41.407 -13.812   5.541  1.00  0.00    -0.354 OA
HETATM   12  C   UNL     1      40.088 -13.973   6.049  1.00  0.00     0.210 C 
ENDBRANCH   6  11
BRANCH   9  13
HETATM   13  C   UNL     1      42.123 -12.303   0.127  1.00  0.00     0.251 C 
HETATM   14  N   UNL     1      41.425 -12.862  -0.914  1.00  0.00    -0.361 N 
HETATM   15  C   UNL     1      40.247 -13.703  -0.883  1.00  0.00     0.149 C 
HETATM   16  H   UNL     1      41.722 -12.511  -1.817  1.00  0.00     0.162 HD
HETATM   17  O   UNL     1      42.961 -11.434  -0.103  1.00  0.00    -0.268 OA
ENDBRANCH   9  13
ENDBRANCH   2   5
BRANCH   1  18
HETATM   18  C   UNL     1      42.889 -17.801   4.299  1.00  0.00     0.076 C 
HETATM   19  C   UNL     1      43.165 -18.318   5.581  1.00  0.00     0.158 C 
HETATM   20  N   UNL     1      43.938 -19.403   5.543  1.00  0.00    -0.183 NA
HETATM   21  N   UNL     1      44.091 -19.640   4.221  1.00  0.00    -0.268 N 
HETATM   22  C   UNL     1      43.576 -18.636   3.429  1.00  0.00     0.052 C 
BRANCH  21  23
HETATM   23  C   UNL     1      44.703 -20.895   3.791  1.00  0.00     0.106 C 
HETATM   24  C   UNL     1      45.148 -21.719   4.999  1.00  0.00     0.034 C 
BRANCH  23  25
HETATM   25  C   UNL     1      43.793 -21.722   2.859  1.00  0.00     0.022 C 
HETATM   26  C   UNL     1      44.450 -22.047   1.522  1.00  0.00     0.007 C 
ENDBRANCH  23  25
ENDBRANCH  21  23
BRANCH  22  27
HETATM   27  C   UNL     1      43.755 -18.535   1.913  1.00  0.00     0.038 A 
HETATM   28  C   UNL     1      42.911 -17.598   1.083  1.00  0.00     0.011 A 
HETATM   29  C   UNL     1      44.347 -17.276   1.316  1.00  0.00     0.011 A 
ENDBRANCH  22  27
ENDBRANCH   1  18
TORSDOF 7
ENDMDL
MODEL 3
REMARK VINA RESULT:      -7.2      0.963      2.428
REMARK  7 active torsions:
REMARK  status: ('A' for Active; 'I' for Inactive)
REMARK    1  A    between atoms: C_2  and  C_3 
REMARK    2  A    between atoms: C_3  and  N_4 
REMARK    3  A    between atoms: C_7  and  C_8 
REMARK       I    between atoms: C_8  and  N_9 
REMARK    4  A    between atoms: N_9  and  C_10 
REMARK    5  A    between atoms: C_11  and  O_12 
REMARK    6  A    between atoms: C_16  and  C_17 
REMARK       I    between atoms: C_17  and  N_18 
REMARK    7  A    between atoms: C_23  and  C_24 
ROOT
HETATM    1  C   UNL     1      41.372 -17.390   1.928  1.00  0.00     0.259 C 
HETATM    2  N   UNL     1      41.332 -16.014   1.864  1.00  0.00    -0.320 N 
HETATM    3  O   UNL     1      40.747 -18.158   1.204  1.00  0.00    -0.267 OA
HETATM    4  H   UNL     1      41.681 -15.479   2.653  1.00  0.00     0.169 HD
ENDROOT
BRANCH   2   5
HETATM    5  C   UNL     1      40.803 -15.248   0.799  1.00  0.00     0.069 A 
HETATM    6  C   UNL     1      39.800 -14.303   1.091  1.00  0.00     0.095 A 
HETATM    7  C   UNL     1      39.282 -13.513   0.060  1.00  0.00     0.040 A 
HETATM    8  C   UNL     1      39.756 -13.660  -1.248  1.00  0.00     0.020 A 
HETATM    9  C   UNL     1      40.752 -14.597  -1.539  1.00  0.00     0.034 A 
HETATM   10  C   UNL     1      41.291 -15.364  -0.506  1.00  0.00     0.049 A 
BRANCH   6  11
HETATM   11  O   UNL     1      39.411 -14.235   2.408  1.00  0.00    -0.354 OA
HETATM   12  C   UNL     1      39.379 -12.942   3.002  1.00  0.00     0.210 C 
ENDBRANCH   6  11
BRANCH   9  13
HETATM   13  C   UNL     1      41.283 -14.668  -2.922  1.00  0.00     0.251 C 
HETATM   14  N   UNL     1      42.207 -13.761  -3.379  1.00  0.00    -0.361 N 
HETATM   15  C   UNL     1      42.991 -12.797  -2.636  1.00  0.00     0.149 C 
HETATM   16  H   UNL     1      42.446 -13.902  -4.353  1.00  0.00     0.162 HD
HETATM   17  O   UNL     1      40.886 -15.557  -3.672  1.00  0.00    -0.268 OA
ENDBRANCH   9  13
ENDBRANCH   2   5
BRANCH   1  18
HETATM   18  C   UNL     1      42.225 -17.892   2.979  1.00  0.00     0.076 C 
HETATM   19  C   UNL     1      43.484 -18.508   2.822  1.00  0.00     0.158 C 
HETATM   20  N   UNL     1      44.063 -18.801   3.986  1.00  0.00    -0.183 NA
HETATM   21  N   UNL     1      43.211 -18.291   4.904  1.00  0.00    -0.268 N 
HETATM   22  C   UNL     1      42.032 -17.837   4.352  1.00  0.00     0.052 C 
BRANCH  21  23
HETATM   23  C   UNL     1      43.629 -18.227   6.303  1.00  0.00     0.106 C 
HETATM   24  C   UNL     1      43.914 -19.627   6.844  1.00  0.00     0.034 C 
BRANCH  23  25
HETATM   25  C   UNL     1      44.831 -17.287   6.530  1.00  0.00     0.022 C 
HETATM   26  C   UNL     1      44.416 -15.844   6.793  1.00  0.00     0.007 C 
ENDBRANCH  23  25
ENDBRANCH  21  23
BRANCH  22  27
HETATM   27  C   UNL     1      40.811 -17.374   5.150  1.00  0.00     0.038 A 
HETATM   28  C   UNL     1      40.944 -16.868   6.567  1.00  0.00     0.011 A 
HETATM   29  C   UNL     1      40.647 -15.904   5.471  1.00  0.00     0.011 A 
ENDBRANCH  22  27
ENDBRANCH   1  18
TORSDOF 7
ENDMDL
MODEL 4
REMARK VINA RESULT:      -7.1      1.663      2.699
REMARK  7 active torsions:
REMARK  status: ('A' for Active; 'I' for Inactive)
REMARK    1  A    between atoms: C_2  and  C_3 
REMARK    2  A    between atoms: C_3  and  N_4 
REMARK    3  A    between atoms: C_7  and  C_8 
REMARK       I    between atoms: C_8  and  N_9 
REMARK    4  A    between atoms: N_9  and  C_10 
REMARK    5  A    between atoms: C_11  and  O_12 
REMARK    6  A    between atoms: C_16  and  C_17 
REMARK       I    between atoms: C_17  and  N_18 
REMARK    7  A    between atoms: C_23  and  C_24 
ROOT
HETATM    1  C   UNL     1      41.669 -16.932   2.456  1.00  0.00     0.259 C 
HETATM    2  N   UNL     1      42.405 -15.896   1.922  1.00  0.00    -0.320 N 
HETATM    3  O   UNL     1      40.460 -17.093   2.323  1.00  0.00    -0.267 OA
HETATM    4  H   UNL     1      43.334 -15.718   2.291  1.00  0.00     0.169 HD
ENDROOT
BRANCH   2   5
HETATM    5  C   UNL     1      41.972 -15.005   0.913  1.00  0.00     0.069 A 
HETATM    6  C   UNL     1      42.162 -13.624   1.116  1.00  0.00     0.095 A 
HETATM    7  C   UNL     1      41.769 -12.725   0.119  1.00  0.00     0.040 A 
HETATM    8  C   UNL     1      41.194 -13.193  -1.067  1.00  0.00     0.020 A 
HETATM    9  C   UNL     1      41.006 -14.563  -1.271  1.00  0.00     0.034 A 
HETATM   10  C   UNL     1      41.425 -15.463  -0.291  1.00  0.00     0.049 A 
BRANCH   6  11
HETATM   11  O   UNL     1      42.740 -13.272   2.311  1.00  0.00    -0.354 OA
HETATM   12  C   UNL     1      41.893 -12.671   3.283  1.00  0.00     0.210 C 
ENDBRANCH   6  11
BRANCH   9  13
HETATM   13  C   UNL     1      40.466 -15.024  -2.573  1.00  0.00     0.251 C 
HETATM   14  N   UNL     1      39.123 -14.953  -2.853  1.00  0.00    -0.361 N 
HETATM   15  C   UNL     1      38.073 -14.256  -2.141  1.00  0.00     0.149 C 
HETATM   16  H   UNL     1      38.892 -15.343  -3.759  1.00  0.00     0.162 HD
HETATM   17  O   UNL     1      41.237 -15.475  -3.416  1.00  0.00    -0.268 OA
ENDBRANCH   9  13
ENDBRANCH   2   5
BRANCH   1  18
HETATM   18  C   UNL     1      42.456 -17.849   3.245  1.00  0.00     0.076 C 
HETATM   19  C   UNL     1      43.125 -19.001   2.782  1.00  0.00     0.158 C 
HETATM   20  N   UNL     1      43.829 -19.607   3.738  1.00  0.00    -0.183 NA
HETATM   21  N   UNL     1      43.684 -18.793   4.806  1.00  0.00    -0.268 N 
HETATM   22  C   UNL     1      42.771 -17.782   4.595  1.00  0.00     0.052 C 
BRANCH  21  23
HETATM   23  C   UNL     1      44.508 -19.022   5.992  1.00  0.00     0.106 C 
HETATM   24  C   UNL     1      45.249 -17.745   6.387  1.00  0.00     0.034 C 
BRANCH  23  25
HETATM   25  C   UNL     1      43.707 -19.590   7.182  1.00  0.00     0.022 C 
HETATM   26  C   UNL     1      43.620 -21.112   7.167  1.00  0.00     0.007 C 
ENDBRANCH  23  25
ENDBRANCH  21  23
BRANCH  22  27
HETATM   27  C   UNL     1      42.266 -16.816   5.669  1.00  0.00     0.038 A 
HETATM   28  C   UNL     1      41.029 -15.978   5.453  1.00  0.00     0.011 A 
HETATM   29  C   UNL     1      40.976 -17.126   6.400  1.00  0.00     0.011 A 
ENDBRANCH  22  27
ENDBRANCH   1  18
TORSDOF 7
ENDMDL
MODEL 5
REMARK VINA RESULT:      -7.1      2.301      7.853
REMARK  7 active torsions:
REMARK  status: ('A' for Active; 'I' for Inactive)
REMARK    1  A    between atoms: C_2  and  C_3 
REMARK    2  A    between atoms: C_3  and  N_4 
REMARK    3  A    between atoms: C_7  and  C_8 
REMARK       I    between atoms: C_8  and  N_9 
REMARK    4  A    between atoms: N_9  and  C_10 
REMARK    5  A    between atoms: C_11  and  O_12 
REMARK    6  A    between atoms: C_16  and  C_17 
REMARK       I    between atoms: C_17  and  N_18 
REMARK    7  A    between atoms: C_23  and  C_24 
ROOT
HETATM    1  C   UNL     1      41.581 -17.075   0.992  1.00  0.00     0.259 C 
HETATM    2  N   UNL     1      42.921 -17.288   1.235  1.00  0.00    -0.320 N 
HETATM    3  O   UNL     1      40.664 -17.806   1.351  1.00  0.00    -0.267 OA
HETATM    4  H   UNL     1      43.603 -16.768   0.691  1.00  0.00     0.169 HD
ENDROOT
BRANCH   2   5
HETATM    5  C   UNL     1      43.459 -18.209   2.163  1.00  0.00     0.069 A 
HETATM    6  C   UNL     1      43.754 -17.752   3.462  1.00  0.00     0.095 A 
HETATM    7  C   UNL     1      44.260 -18.651   4.407  1.00  0.00     0.040 A 
HETATM    8  C   UNL     1      44.471 -19.991   4.064  1.00  0.00     0.020 A 
HETATM    9  C   UNL     1      44.178 -20.446   2.775  1.00  0.00     0.034 A 
HETATM   10  C   UNL     1      43.644 -19.558   1.841  1.00  0.00     0.049 A 
BRANCH   6  11
HETATM   11  O   UNL     1      43.504 -16.421   3.696  1.00  0.00    -0.354 OA
HETATM   12  C   UNL     1      42.870 -16.093   4.927  1.00  0.00     0.210 C 
ENDBRANCH   6  11
BRANCH   9  13
HETATM   13  C   UNL     1      44.341 -21.889   2.474  1.00  0.00     0.251 C 
HETATM   14  N   UNL     1      44.724 -22.782   3.445  1.00  0.00    -0.361 N 
HETATM   15  C   UNL     1      44.795 -22.601   4.879  1.00  0.00     0.149 C 
HETATM   16  H   UNL     1      44.838 -23.723   3.088  1.00  0.00     0.162 HD
HETATM   17  O   UNL     1      44.127 -22.292   1.333  1.00  0.00    -0.268 OA
ENDBRANCH   9  13
ENDBRANCH   2   5
BRANCH   1  18
HETATM   18  C   UNL     1      41.319 -15.882   0.223  1.00  0.00     0.076 C 
HETATM   19  C   UNL     1      41.273 -15.777  -1.183  1.00  0.00     0.158 C 
HETATM   20  N   UNL     1      40.939 -14.555  -1.598  1.00  0.00    -0.183 NA
HETATM   21  N   UNL     1      40.682 -13.888  -0.451  1.00  0.00    -0.268 N 
HETATM   22  C   UNL     1      41.010 -14.608   0.678  1.00  0.00     0.052 C 
BRANCH  21  23
HETATM   23  C   UNL     1      40.065 -12.565  -0.522  1.00  0.00     0.106 C 
HETATM   24  C   UNL     1      40.958 -11.595  -1.296  1.00  0.00     0.034 C 
BRANCH  23  25
HETATM   25  C   UNL     1      38.638 -12.596  -1.108  1.00  0.00     0.022 C 
HETATM   26  C   UNL     1      37.702 -13.524  -0.344  1.00  0.00     0.007 C 
ENDBRANCH  23  25
ENDBRANCH  21  23
BRANCH  22  27
HETATM   27  C   UNL     1      41.000 -14.055   2.105  1.00  0.00     0.038 A 
HETATM   28  C   UNL     1      39.889 -13.156   2.592  1.00  0.00     0.011 A 
HETATM   29  C   UNL     1      39.966 -14.558   3.090  1.00  0.00     0.011 A 
ENDBRANCH  22  27
ENDBRANCH   1  18
TORSDOF 7
ENDMDL
MODEL 6
REMARK VINA RESULT:      -7.1      3.142      5.777
REMARK  7 active torsions:
REMARK  status: ('A' for Active; 'I' for Inactive)
REMARK    1  A    between atoms: C_2  and  C_3 
REMARK    2  A    between atoms: C_3  and  N_4 
REMARK    3  A    between atoms: C_7  and  C_8 
REMARK       I    between atoms: C_8  and  N_9 
REMARK    4  A    between atoms: N_9  and  C_10 
REMARK    5  A    between atoms: C_11  and  O_12 
REMARK    6  A    between atoms: C_16  and  C_17 
REMARK       I    between atoms: C_17  and  N_18 
REMARK    7  A    between atoms: C_23  and  C_24 
ROOT
HETATM    1  C   UNL     1      42.456 -15.636   4.211  1.00  0.00     0.259 C 
HETATM    2  N   UNL     1      41.108 -15.414   4.397  1.00  0.00    -0.320 N 
HETATM    3  O   UNL     1      43.302 -14.771   4.009  1.00  0.00    -0.267 OA
HETATM    4  H   UNL     1      40.469 -16.198   4.307  1.00  0.00     0.169 HD
ENDROOT
BRANCH   2   5
HETATM    5  C   UNL     1      40.502 -14.166   4.668  1.00  0.00     0.069 A 
HETATM    6  C   UNL     1      39.907 -13.467   3.599  1.00  0.00     0.095 A 
HETATM    7  C   UNL     1      39.276 -12.244   3.847  1.00  0.00     0.040 A 
HETATM    8  C   UNL     1      39.236 -11.720   5.143  1.00  0.00     0.020 A 
HETATM    9  C   UNL     1      39.825 -12.413   6.205  1.00  0.00     0.034 A 
HETATM   10  C   UNL     1      40.428 -13.647   5.965  1.00  0.00     0.049 A 
BRANCH   6  11
HETATM   11  O   UNL     1      39.997 -14.073   2.369  1.00  0.00    -0.354 OA
HETATM   12  C   UNL     1      38.775 -14.461   1.753  1.00  0.00     0.210 C 
ENDBRANCH   6  11
BRANCH   9  13
HETATM   13  C   UNL     1      39.694 -11.862   7.576  1.00  0.00     0.251 C 
HETATM   14  N   UNL     1      40.716 -11.157   8.163  1.00  0.00    -0.361 N 
HETATM   15  C   UNL     1      41.919 -10.618   7.565  1.00  0.00     0.149 C 
HETATM   16  H   UNL     1      40.504 -10.881   9.114  1.00  0.00     0.162 HD
HETATM   17  O   UNL     1      38.648 -12.041   8.196  1.00  0.00    -0.268 OA
ENDBRANCH   9  13
ENDBRANCH   2   5
BRANCH   1  18
HETATM   18  C   UNL     1      42.819 -17.033   4.248  1.00  0.00     0.076 C 
HETATM   19  C   UNL     1      42.543 -18.003   3.262  1.00  0.00     0.158 C 
HETATM   20  N   UNL     1      43.068 -19.193   3.550  1.00  0.00    -0.183 NA
HETATM   21  N   UNL     1      43.762 -18.970   4.687  1.00  0.00    -0.268 N 
HETATM   22  C   UNL     1      43.548 -17.713   5.213  1.00  0.00     0.052 C 
BRANCH  21  23
HETATM   23  C   UNL     1      44.663 -20.007   5.186  1.00  0.00     0.106 C 
HETATM   24  C   UNL     1      44.034 -20.743   6.369  1.00  0.00     0.034 C 
BRANCH  23  25
HETATM   25  C   UNL     1      45.109 -20.997   4.089  1.00  0.00     0.022 C 
HETATM   26  C   UNL     1      44.733 -22.440   4.403  1.00  0.00     0.007 C 
ENDBRANCH  23  25
ENDBRANCH  21  23
BRANCH  22  27
HETATM   27  C   UNL     1      44.051 -17.235   6.577  1.00  0.00     0.038 A 
HETATM   28  C   UNL     1      43.431 -16.046   7.270  1.00  0.00     0.011 A 
HETATM   29  C   UNL     1      43.174 -17.415   7.798  1.00  0.00     0.011 A 
ENDBRANCH  22  27
ENDBRANCH   1  18
TORSDOF 7
ENDMDL
MODEL 7
REMARK VINA RESULT:      -7.0      2.780      7.908
REMARK  7 active torsions:
REMARK  status: ('A' for Active; 'I' for Inactive)
REMARK    1  A    between atoms: C_2  and  C_3 
REMARK    2  A    between atoms: C_3  and  N_4 
REMARK    3  A    between atoms: C_7  and  C_8 
REMARK       I    between atoms: C_8  and  N_9 
REMARK    4  A    between atoms: N_9  and  C_10 
REMARK    5  A    between atoms: C_11  and  O_12 
REMARK    6  A    between atoms: C_16  and  C_17 
REMARK       I    between atoms: C_17  and  N_18 
REMARK    7  A    between atoms: C_23  and  C_24 
ROOT
HETATM    1  C   UNL     1      42.566 -15.043   3.415  1.00  0.00     0.259 C 
HETATM    2  N   UNL     1      42.326 -15.930   4.443  1.00  0.00    -0.320 N 
HETATM    3  O   UNL     1      43.668 -14.635   3.065  1.00  0.00    -0.267 OA
HETATM    4  H   UNL     1      41.382 -16.009   4.808  1.00  0.00     0.169 HD
ENDROOT
BRANCH   2   5
HETATM    5  C   UNL     1      43.294 -16.736   5.085  1.00  0.00     0.069 A 
HETATM    6  C   UNL     1      43.966 -16.208   6.205  1.00  0.00     0.095 A 
HETATM    7  C   UNL     1      44.907 -16.996   6.875  1.00  0.00     0.040 A 
HETATM    8  C   UNL     1      45.177 -18.297   6.438  1.00  0.00     0.020 A 
HETATM    9  C   UNL     1      44.511 -18.824   5.327  1.00  0.00     0.034 A 
HETATM   10  C   UNL     1      43.550 -18.049   4.676  1.00  0.00     0.049 A 
BRANCH   6  11
HETATM   11  O   UNL     1      43.621 -14.924   6.554  1.00  0.00    -0.354 OA
HETATM   12  C   UNL     1      44.684 -14.045   6.901  1.00  0.00     0.210 C 
ENDBRANCH   6  11
BRANCH   9  13
HETATM   13  C   UNL     1      44.768 -20.233   4.943  1.00  0.00     0.251 C 
HETATM   14  N   UNL     1      44.445 -21.271   5.781  1.00  0.00    -0.361 N 
HETATM   15  C   UNL     1      43.633 -21.264   6.980  1.00  0.00     0.149 C 
HETATM   16  H   UNL     1      44.717 -22.173   5.409  1.00  0.00     0.162 HD
HETATM   17  O   UNL     1      45.280 -20.473   3.851  1.00  0.00    -0.268 OA
ENDBRANCH   9  13
ENDBRANCH   2   5
BRANCH   1  18
HETATM   18  C   UNL     1      41.364 -14.584   2.760  1.00  0.00     0.076 C 
HETATM   19  C   UNL     1      40.527 -13.528   3.176  1.00  0.00     0.158 C 
HETATM   20  N   UNL     1      39.528 -13.297   2.325  1.00  0.00    -0.183 NA
HETATM   21  N   UNL     1      39.771 -14.151   1.307  1.00  0.00    -0.268 N 
HETATM   22  C   UNL     1      40.799 -15.032   1.574  1.00  0.00     0.052 C 
BRANCH  21  23
HETATM   23  C   UNL     1      38.999 -14.025   0.072  1.00  0.00     0.106 C 
HETATM   24  C   UNL     1      37.507 -13.906   0.381  1.00  0.00     0.034 C 
BRANCH  23  25
HETATM   25  C   UNL     1      39.476 -12.861  -0.821  1.00  0.00     0.022 C 
HETATM   26  C   UNL     1      38.369 -11.861  -1.135  1.00  0.00     0.007 C 
ENDBRANCH  23  25
ENDBRANCH  21  23
BRANCH  22  27
HETATM   27  C   UNL     1      41.185 -16.223   0.694  1.00  0.00     0.038 A 
HETATM   28  C   UNL     1      42.366 -17.100   1.035  1.00  0.00     0.011 A 
HETATM   29  C   UNL     1      40.986 -17.630   1.218  1.00  0.00     0.011 A 
ENDBRANCH  22  27
ENDBRANCH   1  18
TORSDOF 7
ENDMDL
MODEL 8
REMARK VINA RESULT:      -6.6      2.966      5.408
REMARK  7 active torsions:
REMARK  status: ('A' for Active; 'I' for Inactive)
REMARK    1  A    between atoms: C_2  and  C_3 
REMARK    2  A    between atoms: C_3  and  N_4 
REMARK    3  A    between atoms: C_7  and  C_8 
REMARK       I    between atoms: C_8  and  N_9 
REMARK    4  A    between atoms: N_9  and  C_10 
REMARK    5  A    between atoms: C_11  and  O_12 
REMARK    6  A    between atoms: C_16  and  C_17 
REMARK       I    between atoms: C_17  and  N_18 
REMARK    7  A    between atoms: C_23  and  C_24 
ROOT
HETATM    1  C   UNL     1      42.873 -15.378   4.132  1.00  0.00     0.259 C 
HETATM    2  N   UNL     1      41.556 -15.316   4.534  1.00  0.00    -0.320 N 
HETATM    3  O   UNL     1      43.497 -14.475   3.584  1.00  0.00    -0.267 OA
HETATM    4  H   UNL     1      41.070 -16.182   4.745  1.00  0.00     0.169 HD
ENDROOT
BRANCH   2   5
HETATM    5  C   UNL     1      40.779 -14.140   4.650  1.00  0.00     0.069 A 
HETATM    6  C   UNL     1      40.022 -13.728   3.536  1.00  0.00     0.095 A 
HETATM    7  C   UNL     1      39.223 -12.585   3.635  1.00  0.00     0.040 A 
HETATM    8  C   UNL     1      39.175 -11.858   4.830  1.00  0.00     0.020 A 
HETATM    9  C   UNL     1      39.925 -12.267   5.937  1.00  0.00     0.034 A 
HETATM   10  C   UNL     1      40.699 -13.424   5.849  1.00  0.00     0.049 A 
BRANCH   6  11
HETATM   11  O   UNL     1      40.136 -14.516   2.416  1.00  0.00    -0.354 OA
HETATM   12  C   UNL     1      40.421 -13.852   1.190  1.00  0.00     0.210 C 
ENDBRANCH   6  11
BRANCH   9  13
HETATM   13  C   UNL     1      39.787 -11.515   7.208  1.00  0.00     0.251 C 
HETATM   14  N   UNL     1      40.583 -10.431   7.485  1.00  0.00    -0.361 N 
HETATM   15  C   UNL     1      41.459  -9.687   6.606  1.00  0.00     0.149 C 
HETATM   16  H   UNL     1      40.410 -10.044   8.406  1.00  0.00     0.162 HD
HETATM   17  O   UNL     1      38.942 -11.870   8.026  1.00  0.00    -0.268 OA
ENDBRANCH   9  13
ENDBRANCH   2   5
BRANCH   1  18
HETATM   18  C   UNL     1      43.493 -16.656   4.391  1.00  0.00     0.076 C 
HETATM   19  C   UNL     1      44.212 -17.027   5.546  1.00  0.00     0.158 C 
HETATM   20  N   UNL     1      44.604 -18.300   5.521  1.00  0.00    -0.183 NA
HETATM   21  N   UNL     1      44.061 -18.780   4.381  1.00  0.00    -0.268 N 
HETATM   22  C   UNL     1      43.481 -17.799   3.605  1.00  0.00     0.052 C 
BRANCH  21  23
HETATM   23  C   UNL     1      44.094 -20.219   4.129  1.00  0.00     0.106 C 
HETATM   24  C   UNL     1      45.005 -20.537   2.943  1.00  0.00     0.034 C 
BRANCH  23  25
HETATM   25  C   UNL     1      44.494 -21.041   5.372  1.00  0.00     0.022 C 
HETATM   26  C   UNL     1      45.051 -22.416   5.021  1.00  0.00     0.007 C 
ENDBRANCH  23  25
ENDBRANCH  21  23
BRANCH  22  27
HETATM   27  C   UNL     1      42.946 -18.005   2.185  1.00  0.00     0.038 A 
HETATM   28  C   UNL     1      42.629 -16.833   1.288  1.00  0.00     0.011 A 
HETATM   29  C   UNL     1      43.829 -17.668   1.002  1.00  0.00     0.011 A 
ENDBRANCH  22  27
ENDBRANCH   1  18
TORSDOF 7
ENDMDL
MODEL 9
REMARK VINA RESULT:      -6.6      3.588      7.682
REMARK  7 active torsions:
REMARK  status: ('A' for Active; 'I' for Inactive)
REMARK    1  A    between atoms: C_2  and  C_3 
REMARK    2  A    between atoms: C_3  and  N_4 
REMARK    3  A    between atoms: C_7  and  C_8 
REMARK       I    between atoms: C_8  and  N_9 
REMARK    4  A    between atoms: N_9  and  C_10 
REMARK    5  A    between atoms: C_11  and  O_12 
REMARK    6  A    between atoms: C_16  and  C_17 
REMARK       I    between atoms: C_17  and  N_18 
REMARK    7  A    between atoms: C_23  and  C_24 
ROOT
HETATM    1  C   UNL     1      40.927 -15.596   5.445  1.00  0.00     0.259 C 
HETATM    2  N   UNL     1      42.197 -15.670   4.914  1.00  0.00    -0.320 N 
HETATM    3  O   UNL     1      40.377 -16.470   6.107  1.00  0.00    -0.267 OA
HETATM    4  H   UNL     1      42.458 -15.012   4.185  1.00  0.00     0.169 HD
ENDROOT
BRANCH   2   5
HETATM    5  C   UNL     1      43.187 -16.617   5.260  1.00  0.00     0.069 A 
HETATM    6  C   UNL     1      44.020 -16.339   6.361  1.00  0.00     0.095 A 
HETATM    7  C   UNL     1      44.988 -17.274   6.742  1.00  0.00     0.040 A 
HETATM    8  C   UNL     1      45.127 -18.474   6.036  1.00  0.00     0.020 A 
HETATM    9  C   UNL     1      44.300 -18.752   4.943  1.00  0.00     0.034 A 
HETATM   10  C   UNL     1      43.314 -17.834   4.581  1.00  0.00     0.049 A 
BRANCH   6  11
HETATM   11  O   UNL     1      43.796 -15.137   6.988  1.00  0.00    -0.354 OA
HETATM   12  C   UNL     1      44.844 -14.176   6.929  1.00  0.00     0.210 C 
ENDBRANCH   6  11
BRANCH   9  13
HETATM   13  C   UNL     1      44.425 -20.068   4.270  1.00  0.00     0.251 C 
HETATM   14  N   UNL     1      44.121 -20.220   2.940  1.00  0.00    -0.361 N 
HETATM   15  C   UNL     1      43.887 -19.209   1.931  1.00  0.00     0.149 C 
HETATM   16  H   UNL     1      44.210 -21.179   2.626  1.00  0.00     0.162 HD
HETATM   17  O   UNL     1      44.811 -21.038   4.918  1.00  0.00    -0.268 OA
ENDBRANCH   9  13
ENDBRANCH   2   5
BRANCH   1  18
HETATM   18  C   UNL     1      40.243 -14.364   5.130  1.00  0.00     0.076 C 
HETATM   19  C   UNL     1      39.779 -13.398   6.047  1.00  0.00     0.158 C 
HETATM   20  N   UNL     1      39.248 -12.333   5.447  1.00  0.00    -0.183 NA
HETATM   21  N   UNL     1      39.449 -12.572   4.133  1.00  0.00    -0.268 N 
HETATM   22  C   UNL     1      39.939 -13.837   3.883  1.00  0.00     0.052 C 
BRANCH  21  23
HETATM   23  C   UNL     1      39.193 -11.504   3.168  1.00  0.00     0.106 C 
HETATM   24  C   UNL     1      38.151 -10.527   3.712  1.00  0.00     0.034 C 
BRANCH  23  25
HETATM   25  C   UNL     1      40.475 -10.765   2.733  1.00  0.00     0.022 C 
HETATM   26  C   UNL     1      40.706  -9.471   3.506  1.00  0.00     0.007 C 
ENDBRANCH  23  25
ENDBRANCH  21  23
BRANCH  22  27
HETATM   27  C   UNL     1      40.098 -14.458   2.493  1.00  0.00     0.038 A 
HETATM   28  C   UNL     1      39.771 -15.910   2.239  1.00  0.00     0.011 A 
HETATM   29  C   UNL     1      38.864 -14.854   1.710  1.00  0.00     0.011 A 
ENDBRANCH  22  27
ENDBRANCH   1  18
TORSDOF 7
ENDMDL
MODEL 10
REMARK VINA RESULT:      -6.6      2.390      4.329
REMARK  7 active torsions:
REMARK  status: ('A' for Active; 'I' for Inactive)
REMARK    1  A    between atoms: C_2  and  C_3 
REMARK    2  A    between atoms: C_3  and  N_4 
REMARK    3  A    between atoms: C_7  and  C_8 
REMARK       I    between atoms: C_8  and  N_9 
REMARK    4  A    between atoms: N_9  and  C_10 
REMARK    5  A    between atoms: C_11  and  O_12 
REMARK    6  A    between atoms: C_16  and  C_17 
REMARK       I    between atoms: C_17  and  N_18 
REMARK    7  A    between atoms: C_23  and  C_24 
ROOT
HETATM    1  C   UNL     1      42.580 -14.831   3.619  1.00  0.00     0.259 C 
HETATM    2  N   UNL     1      41.201 -14.825   3.624  1.00  0.00    -0.320 N 
HETATM    3  O   UNL     1      43.296 -14.026   3.033  1.00  0.00    -0.267 OA
HETATM    4  H   UNL     1      40.712 -15.663   3.925  1.00  0.00     0.169 HD
ENDROOT
BRANCH   2   5
HETATM    5  C   UNL     1      40.374 -13.758   3.205  1.00  0.00     0.069 A 
HETATM    6  C   UNL     1      39.674 -13.894   1.990  1.00  0.00     0.095 A 
HETATM    7  C   UNL     1      38.827 -12.863   1.568  1.00  0.00     0.040 A 
HETATM    8  C   UNL     1      38.678 -11.710   2.345  1.00  0.00     0.020 A 
HETATM    9  C   UNL     1      39.372 -11.574   3.551  1.00  0.00     0.034 A 
HETATM   10  C   UNL     1      40.193 -12.613   3.989  1.00  0.00     0.049 A 
BRANCH   6  11
HETATM   11  O   UNL     1      39.887 -15.068   1.309  1.00  0.00    -0.354 OA
HETATM   12  C   UNL     1      40.637 -14.984   0.103  1.00  0.00     0.210 C 
ENDBRANCH   6  11
BRANCH   9  13
HETATM   13  C   UNL     1      39.126 -10.371   4.384  1.00  0.00     0.251 C 
HETATM   14  N   UNL     1      39.884  -9.235   4.237  1.00  0.00    -0.361 N 
HETATM   15  C   UNL     1      40.815  -8.884   3.186  1.00  0.00     0.149 C 
HETATM   16  H   UNL     1      39.635  -8.511   4.900  1.00  0.00     0.162 HD
HETATM   17  O   UNL     1      38.225 -10.393   5.219  1.00  0.00    -0.268 OA
ENDBRANCH   9  13
ENDBRANCH   2   5
BRANCH   1  18
HETATM   18  C   UNL     1      43.152 -15.922   4.371  1.00  0.00     0.076 C 
HETATM   19  C   UNL     1      43.717 -15.853   5.661  1.00  0.00     0.158 C 
HETATM   20  N   UNL     1      44.100 -17.045   6.120  1.00  0.00    -0.183 NA
HETATM   21  N   UNL     1      43.700 -17.902   5.155  1.00  0.00    -0.268 N 
HETATM   22  C   UNL     1      43.230 -17.265   4.027  1.00  0.00     0.052 C 
BRANCH  21  23
HETATM   23  C   UNL     1      43.753 -19.340   5.415  1.00  0.00     0.106 C 
HETATM   24  C   UNL     1      45.045 -19.939   4.861  1.00  0.00     0.034 C 
BRANCH  23  25
HETATM   25  C   UNL     1      43.572 -19.690   6.907  1.00  0.00     0.022 C 
HETATM   26  C   UNL     1      43.672 -21.186   7.182  1.00  0.00     0.007 C 
ENDBRANCH  23  25
ENDBRANCH  21  23
BRANCH  22  27
HETATM   27  C   UNL     1      42.875 -17.959   2.710  1.00  0.00     0.038 A 
HETATM   28  C   UNL     1      43.208 -17.333   1.377  1.00  0.00     0.011 A 
HETATM   29  C   UNL     1      43.983 -18.517   1.842  1.00  0.00     0.011 A 
ENDBRANCH  22  27
ENDBRANCH   1  18
TORSDOF 7
ENDMDL
