MODEL 1
REMARK VINA RESULT:      -8.6      0.000      0.000
REMARK  6 active torsions:
REMARK  status: ('A' for Active; 'I' for Inactive)
REMARK    1  A    between atoms: O_2  and  C_3 
REMARK    2  A    between atoms: C_3  and  C_4 
REMARK    3  A    between atoms: C_4  and  N_5 
REMARK       I    between atoms: N_5  and  C_6 
REMARK    4  A    between atoms: C_6  and  C_7 
REMARK    5  A    between atoms: C_12  and  C_13 
REMARK    6  A    between atoms: C_21  and  C_22 
ROOT
HETATM    1  C   UNL     1      41.353 -15.834   0.761  1.00  0.00     0.170 A 
HETATM    2  N   UNL     1      42.428 -16.623   1.007  1.00  0.00    -0.163 NA
HETATM    3  N   UNL     1      42.193 -17.119   2.232  1.00  0.00    -0.238 N 
HETATM    4  C   UNL     1      41.074 -16.604   2.830  1.00  0.00     0.145 A 
HETATM    5  N   UNL     1      40.756 -16.931   4.111  1.00  0.00    -0.365 N 
HETATM    6  C   UNL     1      41.780 -17.490   4.998  1.00  0.00     0.118 C 
HETATM    7  C   UNL     1      42.521 -18.573   4.193  1.00  0.00     0.066 C 
HETATM    8  C   UNL     1      43.138 -17.997   2.900  1.00  0.00     0.221 C 
HETATM    9  C   UNL     1      40.484 -15.794   1.887  1.00  0.00     0.115 A 
HETATM   10 CL   UNL     1      39.046 -14.912   2.070  1.00  0.00    -0.077 Cl
HETATM   11  H   UNL     1      39.985 -16.451   4.575  1.00  0.00     0.162 HD
ENDROOT
BRANCH   1  12
HETATM   12  C   UNL     1      41.209 -15.137  -0.527  1.00  0.00     0.273 C 
HETATM   13  N   UNL     1      41.087 -15.995  -1.599  1.00  0.00    -0.353 N 
HETATM   14  H   UNL     1      41.252 -16.979  -1.401  1.00  0.00     0.162 HD
HETATM   15  O   UNL     1      41.205 -13.916  -0.649  1.00  0.00    -0.266 OA
BRANCH  13  16
HETATM   16  C   UNL     1      41.062 -15.535  -2.972  1.00  0.00     0.149 C 
BRANCH  16  17
HETATM   17  C   UNL     1      39.719 -15.798  -3.654  1.00  0.00     0.186 C 
BRANCH  17  18
HETATM   18  O   UNL     1      38.808 -14.744  -3.324  1.00  0.00    -0.394 OA
HETATM   19  C   UNL     1      37.461 -15.127  -3.565  1.00  0.00     0.201 C 
ENDBRANCH  17  18
ENDBRANCH  16  17
ENDBRANCH  13  16
ENDBRANCH   1  12
BRANCH   8  20
HETATM   20  C   UNL     1      43.578 -19.135   2.003  1.00  0.00     0.409 C 
HETATM   21  F   UNL     1      42.633 -20.094   1.887  1.00  0.00    -0.169 F 
HETATM   22  F   UNL     1      43.933 -18.737   0.764  1.00  0.00    -0.169 F 
HETATM   23  F   UNL     1      44.676 -19.736   2.537  1.00  0.00    -0.169 F 
ENDBRANCH   8  20
BRANCH   6  24
HETATM   24  C   UNL     1      42.670 -16.413   5.620  1.00  0.00    -0.035 A 
HETATM   25  C   UNL     1      42.354 -15.043   5.526  1.00  0.00     0.011 A 
HETATM   26  C   UNL     1      43.157 -14.067   6.125  1.00  0.00     0.024 A 
HETATM   27  C   UNL     1      44.286 -14.443   6.841  1.00  0.00     0.034 A 
HETATM   28 CL   UNL     1      45.277 -13.247   7.578  1.00  0.00    -0.084 Cl
HETATM   29  C   UNL     1      44.611 -15.789   6.972  1.00  0.00     0.024 A 
HETATM   30  C   UNL     1      43.803 -16.766   6.378  1.00  0.00     0.011 A 
ENDBRANCH   6  24
TORSDOF 6
ENDMDL
MODEL 2
REMARK VINA RESULT:      -8.1      1.569      2.162
REMARK  6 active torsions:
REMARK  status: ('A' for Active; 'I' for Inactive)
REMARK    1  A    between atoms: O_2  and  C_3 
REMARK    2  A    between atoms: C_3  and  C_4 
REMARK    3  A    between atoms: C_4  and  N_5 
REMARK       I    between atoms: N_5  and  C_6 
REMARK    4  A    between atoms: C_6  and  C_7 
REMARK    5  A    between atoms: C_12  and  C_13 
REMARK    6  A    between atoms: C_21  and  C_22 
ROOT
HETATM    1  C   UNL     1      41.385 -15.885   0.859  1.00  0.00     0.170 A 
HETATM    2  N   UNL     1      42.401 -16.723   1.183  1.00  0.00    -0.163 NA
HETATM    3  N   UNL     1      42.110 -17.117   2.433  1.00  0.00    -0.238 N 
HETATM    4  C   UNL     1      41.016 -16.492   2.967  1.00  0.00     0.145 A 
HETATM    5  N   UNL     1      40.652 -16.709   4.259  1.00  0.00    -0.365 N 
HETATM    6  C   UNL     1      41.619 -17.271   5.206  1.00  0.00     0.118 C 
HETATM    7  C   UNL     1      42.303 -18.452   4.494  1.00  0.00     0.066 C 
HETATM    8  C   UNL     1      42.982 -18.007   3.181  1.00  0.00     0.221 C 
HETATM    9  C   UNL     1      40.499 -15.713   1.958  1.00  0.00     0.115 A 
HETATM   10 CL   UNL     1      39.119 -14.730   2.047  1.00  0.00    -0.077 Cl
HETATM   11  H   UNL     1      39.905 -16.150   4.671  1.00  0.00     0.162 HD
ENDROOT
BRANCH   1  12
HETATM   12  C   UNL     1      41.313 -15.271  -0.476  1.00  0.00     0.273 C 
HETATM   13  N   UNL     1      41.583 -13.918  -0.469  1.00  0.00    -0.353 N 
HETATM   14  H   UNL     1      41.656 -13.486   0.449  1.00  0.00     0.162 HD
HETATM   15  O   UNL     1      41.031 -15.886  -1.500  1.00  0.00    -0.266 OA
BRANCH  13  16
HETATM   16  C   UNL     1      41.446 -13.085  -1.645  1.00  0.00     0.149 C 
BRANCH  16  17
HETATM   17  C   UNL     1      42.794 -12.726  -2.270  1.00  0.00     0.186 C 
BRANCH  17  18
HETATM   18  O   UNL     1      42.852 -11.311  -2.484  1.00  0.00    -0.394 OA
HETATM   19  C   UNL     1      43.308 -10.628  -1.323  1.00  0.00     0.201 C 
ENDBRANCH  17  18
ENDBRANCH  16  17
ENDBRANCH  13  16
ENDBRANCH   1  12
BRANCH   8  20
HETATM   20  C   UNL     1      43.363 -19.229   2.373  1.00  0.00     0.409 C 
HETATM   21  F   UNL     1      42.298 -19.799   1.767  1.00  0.00    -0.169 F 
HETATM   22  F   UNL     1      44.303 -18.984   1.437  1.00  0.00    -0.169 F 
HETATM   23  F   UNL     1      43.890 -20.174   3.199  1.00  0.00    -0.169 F 
ENDBRANCH   8  20
BRANCH   6  24
HETATM   24  C   UNL     1      42.566 -16.213   5.776  1.00  0.00    -0.035 A 
HETATM   25  C   UNL     1      42.330 -14.835   5.603  1.00  0.00     0.011 A 
HETATM   26  C   UNL     1      43.183 -13.874   6.154  1.00  0.00     0.024 A 
HETATM   27  C   UNL     1      44.285 -14.273   6.900  1.00  0.00     0.034 A 
HETATM   28 CL   UNL     1      45.338 -13.096   7.579  1.00  0.00    -0.084 Cl
HETATM   29  C   UNL     1      44.531 -15.626   7.110  1.00  0.00     0.024 A 
HETATM   30  C   UNL     1      43.672 -16.587   6.563  1.00  0.00     0.011 A 
ENDBRANCH   6  24
TORSDOF 6
ENDMDL
MODEL 3
REMARK VINA RESULT:      -7.5      3.457      4.685
REMARK  6 active torsions:
REMARK  status: ('A' for Active; 'I' for Inactive)
REMARK    1  A    between atoms: O_2  and  C_3 
REMARK    2  A    between atoms: C_3  and  C_4 
REMARK    3  A    between atoms: C_4  and  N_5 
REMARK       I    between atoms: N_5  and  C_6 
REMARK    4  A    between atoms: C_6  and  C_7 
REMARK    5  A    between atoms: C_12  and  C_13 
REMARK    6  A    between atoms: C_21  and  C_22 
ROOT
HETATM    1  C   UNL     1      39.841 -14.471   1.338  1.00  0.00     0.170 A 
HETATM    2  N   UNL     1      39.693 -14.998   2.579  1.00  0.00    -0.163 NA
HETATM    3  N   UNL     1      40.949 -15.103   3.039  1.00  0.00    -0.238 N 
HETATM    4  C   UNL     1      41.904 -14.770   2.117  1.00  0.00     0.145 A 
HETATM    5  N   UNL     1      43.226 -14.919   2.398  1.00  0.00    -0.365 N 
HETATM    6  C   UNL     1      43.646 -15.797   3.494  1.00  0.00     0.118 C 
HETATM    7  C   UNL     1      42.736 -15.475   4.694  1.00  0.00     0.066 C 
HETATM    8  C   UNL     1      41.245 -15.670   4.345  1.00  0.00     0.221 C 
HETATM    9  C   UNL     1      41.218 -14.319   1.013  1.00  0.00     0.115 A 
HETATM   10 CL   UNL     1      41.895 -13.748  -0.434  1.00  0.00    -0.077 Cl
HETATM   11  H   UNL     1      43.916 -14.773   1.661  1.00  0.00     0.162 HD
ENDROOT
BRANCH   1  12
HETATM   12  C   UNL     1      38.668 -14.153   0.509  1.00  0.00     0.273 C 
HETATM   13  N   UNL     1      38.872 -14.384  -0.835  1.00  0.00    -0.353 N 
HETATM   14  H   UNL     1      39.827 -14.603  -1.108  1.00  0.00     0.162 HD
HETATM   15  O   UNL     1      37.612 -13.717   0.955  1.00  0.00    -0.266 OA
BRANCH  13  16
HETATM   16  C   UNL     1      37.902 -14.024  -1.847  1.00  0.00     0.149 C 
BRANCH  16  17
HETATM   17  C   UNL     1      38.554 -13.668  -3.184  1.00  0.00     0.186 C 
BRANCH  17  18
HETATM   18  O   UNL     1      39.379 -14.758  -3.611  1.00  0.00    -0.394 OA
HETATM   19  C   UNL     1      38.604 -15.803  -4.183  1.00  0.00     0.201 C 
ENDBRANCH  17  18
ENDBRANCH  16  17
ENDBRANCH  13  16
ENDBRANCH   1  12
BRANCH   8  20
HETATM   20  C   UNL     1      40.389 -15.053   5.431  1.00  0.00     0.409 C 
HETATM   21  F   UNL     1      41.065 -14.139   6.163  1.00  0.00    -0.169 F 
HETATM   22  F   UNL     1      39.263 -14.475   4.966  1.00  0.00    -0.169 F 
HETATM   23  F   UNL     1      39.987 -16.022   6.298  1.00  0.00    -0.169 F 
ENDBRANCH   8  20
BRANCH   6  24
HETATM   24  C   UNL     1      43.689 -17.270   3.083  1.00  0.00    -0.035 A 
HETATM   25  C   UNL     1      43.564 -17.669   1.738  1.00  0.00     0.011 A 
HETATM   26  C   UNL     1      43.637 -19.016   1.367  1.00  0.00     0.024 A 
HETATM   27  C   UNL     1      43.848 -19.989   2.335  1.00  0.00     0.034 A 
HETATM   28 CL   UNL     1      43.937 -21.646   1.884  1.00  0.00    -0.084 Cl
HETATM   29  C   UNL     1      44.000 -19.625   3.668  1.00  0.00     0.024 A 
HETATM   30  C   UNL     1      43.934 -18.276   4.037  1.00  0.00     0.011 A 
ENDBRANCH   6  24
TORSDOF 6
ENDMDL
MODEL 4
REMARK VINA RESULT:      -6.8      4.468      5.623
REMARK  6 active torsions:
REMARK  status: ('A' for Active; 'I' for Inactive)
REMARK    1  A    between atoms: O_2  and  C_3 
REMARK    2  A    between atoms: C_3  and  C_4 
REMARK    3  A    between atoms: C_4  and  N_5 
REMARK       I    between atoms: N_5  and  C_6 
REMARK    4  A    between atoms: C_6  and  C_7 
REMARK    5  A    between atoms: C_12  and  C_13 
REMARK    6  A    between atoms: C_21  and  C_22 
ROOT
HETATM    1  C   UNL     1      39.741 -13.805   1.464  1.00  0.00     0.170 A 
HETATM    2  N   UNL     1      39.608 -14.371   2.690  1.00  0.00    -0.163 NA
HETATM    3  N   UNL     1      40.870 -14.487   3.132  1.00  0.00    -0.238 N 
HETATM    4  C   UNL     1      41.813 -14.123   2.210  1.00  0.00     0.145 A 
HETATM    5  N   UNL     1      43.139 -14.277   2.471  1.00  0.00    -0.365 N 
HETATM    6  C   UNL     1      43.573 -15.188   3.534  1.00  0.00     0.118 C 
HETATM    7  C   UNL     1      42.676 -14.906   4.754  1.00  0.00     0.066 C 
HETATM    8  C   UNL     1      41.181 -15.093   4.416  1.00  0.00     0.221 C 
HETATM    9  C   UNL     1      41.114 -13.640   1.128  1.00  0.00     0.115 A 
HETATM   10 CL   UNL     1      41.773 -13.022  -0.308  1.00  0.00    -0.077 Cl
HETATM   11  H   UNL     1      43.819 -14.107   1.731  1.00  0.00     0.162 HD
ENDROOT
BRANCH   1  12
HETATM   12  C   UNL     1      38.558 -13.465   0.659  1.00  0.00     0.273 C 
HETATM   13  N   UNL     1      37.803 -12.447   1.204  1.00  0.00    -0.353 N 
HETATM   14  H   UNL     1      38.063 -12.157   2.144  1.00  0.00     0.162 HD
HETATM   15  O   UNL     1      38.255 -14.028  -0.388  1.00  0.00    -0.266 OA
BRANCH  13  16
HETATM   16  C   UNL     1      36.531 -12.033   0.652  1.00  0.00     0.149 C 
BRANCH  16  17
HETATM   17  C   UNL     1      36.092 -10.658   1.156  1.00  0.00     0.186 C 
BRANCH  17  18
HETATM   18  O   UNL     1      34.661 -10.588   1.148  1.00  0.00    -0.394 OA
HETATM   19  C   UNL     1      34.180  -9.684   2.134  1.00  0.00     0.201 C 
ENDBRANCH  17  18
ENDBRANCH  16  17
ENDBRANCH  13  16
ENDBRANCH   1  12
BRANCH   8  20
HETATM   20  C   UNL     1      40.337 -14.513   5.530  1.00  0.00     0.409 C 
HETATM   21  F   UNL     1      40.809 -13.325   5.969  1.00  0.00    -0.169 F 
HETATM   22  F   UNL     1      39.039 -14.358   5.197  1.00  0.00    -0.169 F 
HETATM   23  F   UNL     1      40.356 -15.355   6.600  1.00  0.00    -0.169 F 
ENDBRANCH   8  20
BRANCH   6  24
HETATM   24  C   UNL     1      43.615 -16.647   3.077  1.00  0.00    -0.035 A 
HETATM   25  C   UNL     1      43.549 -17.714   3.995  1.00  0.00     0.011 A 
HETATM   26  C   UNL     1      43.556 -19.046   3.567  1.00  0.00     0.024 A 
HETATM   27  C   UNL     1      43.615 -19.336   2.209  1.00  0.00     0.034 A 
HETATM   28 CL   UNL     1      43.625 -20.971   1.678  1.00  0.00    -0.084 Cl
HETATM   29  C   UNL     1      43.656 -18.304   1.278  1.00  0.00     0.024 A 
HETATM   30  C   UNL     1      43.642 -16.972   1.708  1.00  0.00     0.011 A 
ENDBRANCH   6  24
TORSDOF 6
ENDMDL
MODEL 5
REMARK VINA RESULT:      -6.8      4.535      6.918
REMARK  6 active torsions:
REMARK  status: ('A' for Active; 'I' for Inactive)
REMARK    1  A    between atoms: O_2  and  C_3 
REMARK    2  A    between atoms: C_3  and  C_4 
REMARK    3  A    between atoms: C_4  and  N_5 
REMARK       I    between atoms: N_5  and  C_6 
REMARK    4  A    between atoms: C_6  and  C_7 
REMARK    5  A    between atoms: C_12  and  C_13 
REMARK    6  A    between atoms: C_21  and  C_22 
ROOT
HETATM    1  C   UNL     1      42.289 -17.144   3.293  1.00  0.00     0.170 A 
HETATM    2  N   UNL     1      42.142 -16.013   4.028  1.00  0.00    -0.163 NA
HETATM    3  N   UNL     1      41.126 -15.369   3.432  1.00  0.00    -0.238 N 
HETATM    4  C   UNL     1      40.683 -15.977   2.288  1.00  0.00     0.145 A 
HETATM    5  N   UNL     1      39.726 -15.395   1.517  1.00  0.00    -0.365 N 
HETATM    6  C   UNL     1      39.449 -13.963   1.652  1.00  0.00     0.118 C 
HETATM    7  C   UNL     1      39.366 -13.667   3.161  1.00  0.00     0.066 C 
HETATM    8  C   UNL     1      40.666 -14.070   3.891  1.00  0.00     0.221 C 
HETATM    9  C   UNL     1      41.391 -17.152   2.189  1.00  0.00     0.115 A 
HETATM   10 CL   UNL     1      41.237 -18.325   0.973  1.00  0.00    -0.077 Cl
HETATM   11  H   UNL     1      39.491 -15.806   0.614  1.00  0.00     0.162 HD
ENDROOT
BRANCH   1  12
HETATM   12  C   UNL     1      43.289 -18.158   3.663  1.00  0.00     0.273 C 
HETATM   13  N   UNL     1      43.472 -19.121   2.693  1.00  0.00    -0.353 N 
HETATM   14  H   UNL     1      42.811 -19.103   1.920  1.00  0.00     0.162 HD
HETATM   15  O   UNL     1      43.898 -18.163   4.727  1.00  0.00    -0.266 OA
BRANCH  13  16
HETATM   16  C   UNL     1      44.311 -20.284   2.892  1.00  0.00     0.149 C 
BRANCH  16  17
HETATM   17  C   UNL     1      43.997 -21.410   1.906  1.00  0.00     0.186 C 
BRANCH  17  18
HETATM   18  O   UNL     1      44.530 -22.640   2.411  1.00  0.00    -0.394 OA
HETATM   19  C   UNL     1      44.637 -22.617   3.829  1.00  0.00     0.201 C 
ENDBRANCH  17  18
ENDBRANCH  16  17
ENDBRANCH  13  16
ENDBRANCH   1  12
BRANCH   8  20
HETATM   20  C   UNL     1      40.428 -14.055   5.386  1.00  0.00     0.409 C 
HETATM   21  F   UNL     1      39.537 -13.108   5.757  1.00  0.00    -0.169 F 
HETATM   22  F   UNL     1      40.015 -15.241   5.878  1.00  0.00    -0.169 F 
HETATM   23  F   UNL     1      41.592 -13.763   6.029  1.00  0.00    -0.169 F 
ENDBRANCH   8  20
BRANCH   6  24
HETATM   24  C   UNL     1      40.438 -13.096   0.870  1.00  0.00    -0.035 A 
HETATM   25  C   UNL     1      40.732 -11.774   1.257  1.00  0.00     0.011 A 
HETATM   26  C   UNL     1      41.662 -10.999   0.555  1.00  0.00     0.024 A 
HETATM   27  C   UNL     1      42.324 -11.537  -0.541  1.00  0.00     0.034 A 
HETATM   28 CL   UNL     1      43.466 -10.588  -1.408  1.00  0.00    -0.084 Cl
HETATM   29  C   UNL     1      42.073 -12.848  -0.932  1.00  0.00     0.024 A 
HETATM   30  C   UNL     1      41.147 -13.624  -0.225  1.00  0.00     0.011 A 
ENDBRANCH   6  24
TORSDOF 6
ENDMDL
MODEL 6
REMARK VINA RESULT:      -6.7      4.367      7.559
REMARK  6 active torsions:
REMARK  status: ('A' for Active; 'I' for Inactive)
REMARK    1  A    between atoms: O_2  and  C_3 
REMARK    2  A    between atoms: C_3  and  C_4 
REMARK    3  A    between atoms: C_4  and  N_5 
REMARK       I    between atoms: N_5  and  C_6 
REMARK    4  A    between atoms: C_6  and  C_7 
REMARK    5  A    between atoms: C_12  and  C_13 
REMARK    6  A    between atoms: C_21  and  C_22 
ROOT
HETATM    1  C   UNL     1      41.950 -15.866   2.615  1.00  0.00     0.170 A 
HETATM    2  N   UNL     1      40.878 -15.043   2.503  1.00  0.00    -0.163 NA
HETATM    3  N   UNL     1      40.707 -14.912   1.178  1.00  0.00    -0.238 N 
HETATM    4  C   UNL     1      41.679 -15.524   0.433  1.00  0.00     0.145 A 
HETATM    5  N   UNL     1      41.702 -15.399  -0.920  1.00  0.00    -0.365 N 
HETATM    6  C   UNL     1      40.965 -14.309  -1.566  1.00  0.00     0.118 C 
HETATM    7  C   UNL     1      39.572 -14.267  -0.911  1.00  0.00     0.066 C 
HETATM    8  C   UNL     1      39.668 -14.065   0.616  1.00  0.00     0.221 C 
HETATM    9  C   UNL     1      42.482 -16.184   1.335  1.00  0.00     0.115 A 
HETATM   10 CL   UNL     1      43.839 -17.136   0.972  1.00  0.00    -0.077 Cl
HETATM   11  H   UNL     1      42.496 -15.766  -1.445  1.00  0.00     0.162 HD
ENDROOT
BRANCH   1  12
HETATM   12  C   UNL     1      42.432 -16.299   3.936  1.00  0.00     0.273 C 
HETATM   13  N   UNL     1      42.440 -17.669   4.091  1.00  0.00    -0.353 N 
HETATM   14  H   UNL     1      41.988 -18.202   3.351  1.00  0.00     0.162 HD
HETATM   15  O   UNL     1      42.785 -15.528   4.823  1.00  0.00    -0.266 OA
BRANCH  13  16
HETATM   16  C   UNL     1      42.753 -18.313   5.349  1.00  0.00     0.149 C 
BRANCH  16  17
HETATM   17  C   UNL     1      44.226 -18.714   5.452  1.00  0.00     0.186 C 
BRANCH  17  18
HETATM   18  O   UNL     1      44.344 -20.127   5.255  1.00  0.00    -0.394 OA
HETATM   19  C   UNL     1      44.825 -20.431   3.952  1.00  0.00     0.201 C 
ENDBRANCH  17  18
ENDBRANCH  16  17
ENDBRANCH  13  16
ENDBRANCH   1  12
BRANCH   8  20
HETATM   20  C   UNL     1      38.319 -14.338   1.246  1.00  0.00     0.409 C 
HETATM   21  F   UNL     1      38.252 -15.567   1.806  1.00  0.00    -0.169 F 
HETATM   22  F   UNL     1      37.964 -13.428   2.175  1.00  0.00    -0.169 F 
HETATM   23  F   UNL     1      37.354 -14.297   0.287  1.00  0.00    -0.169 F 
ENDBRANCH   8  20
BRANCH   6  24
HETATM   24  C   UNL     1      41.735 -12.988  -1.550  1.00  0.00    -0.035 A 
HETATM   25  C   UNL     1      42.143 -12.382  -0.346  1.00  0.00     0.011 A 
HETATM   26  C   UNL     1      42.875 -11.190  -0.341  1.00  0.00     0.024 A 
HETATM   27  C   UNL     1      43.225 -10.587  -1.543  1.00  0.00     0.034 A 
HETATM   28 CL   UNL     1      44.123  -9.121  -1.542  1.00  0.00    -0.084 Cl
HETATM   29  C   UNL     1      42.858 -11.174  -2.749  1.00  0.00     0.024 A 
HETATM   30  C   UNL     1      42.131 -12.371  -2.752  1.00  0.00     0.011 A 
ENDBRANCH   6  24
TORSDOF 6
ENDMDL
MODEL 7
REMARK VINA RESULT:      -6.7      4.980      8.560
REMARK  6 active torsions:
REMARK  status: ('A' for Active; 'I' for Inactive)
REMARK    1  A    between atoms: O_2  and  C_3 
REMARK    2  A    between atoms: C_3  and  C_4 
REMARK    3  A    between atoms: C_4  and  N_5 
REMARK       I    between atoms: N_5  and  C_6 
REMARK    4  A    between atoms: C_6  and  C_7 
REMARK    5  A    between atoms: C_12  and  C_13 
REMARK    6  A    between atoms: C_21  and  C_22 
ROOT
HETATM    1  C   UNL     1      42.081 -14.779   5.163  1.00  0.00     0.170 A 
HETATM    2  N   UNL     1      41.611 -13.532   4.913  1.00  0.00    -0.163 NA
HETATM    3  N   UNL     1      40.617 -13.731   4.033  1.00  0.00    -0.238 N 
HETATM    4  C   UNL     1      40.495 -15.032   3.624  1.00  0.00     0.145 A 
HETATM    5  N   UNL     1      39.600 -15.377   2.660  1.00  0.00    -0.365 N 
HETATM    6  C   UNL     1      39.054 -14.351   1.767  1.00  0.00     0.118 C 
HETATM    7  C   UNL     1      38.658 -13.157   2.654  1.00  0.00     0.066 C 
HETATM    8  C   UNL     1      39.860 -12.628   3.465  1.00  0.00     0.221 C 
HETATM    9  C   UNL     1      41.406 -15.745   4.366  1.00  0.00     0.115 A 
HETATM   10 CL   UNL     1      41.678 -17.419   4.296  1.00  0.00    -0.077 Cl
HETATM   11  H   UNL     1      39.604 -16.328   2.289  1.00  0.00     0.162 HD
ENDROOT
BRANCH   1  12
HETATM   12  C   UNL     1      43.165 -14.994   6.135  1.00  0.00     0.273 C 
HETATM   13  N   UNL     1      43.612 -13.828   6.719  1.00  0.00    -0.353 N 
HETATM   14  H   UNL     1      43.254 -12.965   6.317  1.00  0.00     0.162 HD
HETATM   15  O   UNL     1      43.638 -16.094   6.401  1.00  0.00    -0.266 OA
BRANCH  13  16
HETATM   16  C   UNL     1      44.754 -13.785   7.608  1.00  0.00     0.149 C 
BRANCH  16  17
HETATM   17  C   UNL     1      44.716 -12.583   8.553  1.00  0.00     0.186 C 
BRANCH  17  18
HETATM   18  O   UNL     1      44.876 -13.040   9.901  1.00  0.00    -0.394 OA
HETATM   19  C   UNL     1      44.172 -12.211  10.817  1.00  0.00     0.201 C 
ENDBRANCH  17  18
ENDBRANCH  16  17
ENDBRANCH  13  16
ENDBRANCH   1  12
BRANCH   8  20
HETATM   20  C   UNL     1      39.366 -11.677   4.535  1.00  0.00     0.409 C 
HETATM   21  F   UNL     1      38.957 -12.324   5.650  1.00  0.00    -0.169 F 
HETATM   22  F   UNL     1      40.277 -10.749   4.893  1.00  0.00    -0.169 F 
HETATM   23  F   UNL     1      38.287 -10.990   4.069  1.00  0.00    -0.169 F 
ENDBRANCH   8  20
BRANCH   6  24
HETATM   24  C   UNL     1      39.995 -14.020   0.607  1.00  0.00    -0.035 A 
HETATM   25  C   UNL     1      40.750 -15.017  -0.042  1.00  0.00     0.011 A 
HETATM   26  C   UNL     1      41.585 -14.710  -1.123  1.00  0.00     0.024 A 
HETATM   27  C   UNL     1      41.669 -13.402  -1.583  1.00  0.00     0.034 A 
HETATM   28 CL   UNL     1      42.694 -13.021  -2.910  1.00  0.00    -0.084 Cl
HETATM   29  C   UNL     1      40.918 -12.401  -0.978  1.00  0.00     0.024 A 
HETATM   30  C   UNL     1      40.078 -12.710   0.099  1.00  0.00     0.011 A 
ENDBRANCH   6  24
TORSDOF 6
ENDMDL
MODEL 8
REMARK VINA RESULT:      -6.6      4.381      7.445
REMARK  6 active torsions:
REMARK  status: ('A' for Active; 'I' for Inactive)
REMARK    1  A    between atoms: O_2  and  C_3 
REMARK    2  A    between atoms: C_3  and  C_4 
REMARK    3  A    between atoms: C_4  and  N_5 
REMARK       I    between atoms: N_5  and  C_6 
REMARK    4  A    between atoms: C_6  and  C_7 
REMARK    5  A    between atoms: C_12  and  C_13 
REMARK    6  A    between atoms: C_21  and  C_22 
ROOT
HETATM    1  C   UNL     1      41.991 -16.927   3.335  1.00  0.00     0.170 A 
HETATM    2  N   UNL     1      41.819 -15.760   4.003  1.00  0.00    -0.163 NA
HETATM    3  N   UNL     1      40.873 -15.119   3.299  1.00  0.00    -0.238 N 
HETATM    4  C   UNL     1      40.505 -15.768   2.152  1.00  0.00     0.145 A 
HETATM    5  N   UNL     1      39.629 -15.199   1.280  1.00  0.00    -0.365 N 
HETATM    6  C   UNL     1      39.384 -13.755   1.328  1.00  0.00     0.118 C 
HETATM    7  C   UNL     1      39.191 -13.387   2.811  1.00  0.00     0.066 C 
HETATM    8  C   UNL     1      40.416 -13.787   3.661  1.00  0.00     0.221 C 
HETATM    9  C   UNL     1      41.184 -16.964   2.163  1.00  0.00     0.115 A 
HETATM   10 CL   UNL     1      41.093 -18.189   0.993  1.00  0.00    -0.077 Cl
HETATM   11  H   UNL     1      39.455 -15.647   0.380  1.00  0.00     0.162 HD
ENDROOT
BRANCH   1  12
HETATM   12  C   UNL     1      42.928 -17.947   3.829  1.00  0.00     0.273 C 
HETATM   13  N   UNL     1      42.708 -18.296   5.145  1.00  0.00    -0.353 N 
HETATM   14  H   UNL     1      42.039 -17.721   5.651  1.00  0.00     0.162 HD
HETATM   15  O   UNL     1      43.825 -18.440   3.153  1.00  0.00    -0.266 OA
BRANCH  13  16
HETATM   16  C   UNL     1      43.586 -19.185   5.877  1.00  0.00     0.149 C 
BRANCH  16  17
HETATM   17  C   UNL     1      44.673 -18.434   6.647  1.00  0.00     0.186 C 
BRANCH  17  18
HETATM   18  O   UNL     1      44.125 -17.217   7.167  1.00  0.00    -0.394 OA
HETATM   19  C   UNL     1      43.597 -17.402   8.474  1.00  0.00     0.201 C 
ENDBRANCH  17  18
ENDBRANCH  16  17
ENDBRANCH  13  16
ENDBRANCH   1  12
BRANCH   8  20
HETATM   20  C   UNL     1      40.060 -13.696   5.129  1.00  0.00     0.409 C 
HETATM   21  F   UNL     1      39.468 -14.821   5.588  1.00  0.00    -0.169 F 
HETATM   22  F   UNL     1      41.116 -13.419   5.922  1.00  0.00    -0.169 F 
HETATM   23  F   UNL     1      39.168 -12.685   5.319  1.00  0.00    -0.169 F 
ENDBRANCH   8  20
BRANCH   6  24
HETATM   24  C   UNL     1      40.457 -12.952   0.590  1.00  0.00    -0.035 A 
HETATM   25  C   UNL     1      41.166 -13.490  -0.502  1.00  0.00     0.011 A 
HETATM   26  C   UNL     1      42.123 -12.738  -1.191  1.00  0.00     0.024 A 
HETATM   27  C   UNL     1      42.380 -11.427  -0.808  1.00  0.00     0.034 A 
HETATM   28 CL   UNL     1      43.557 -10.499  -1.652  1.00  0.00    -0.084 Cl
HETATM   29  C   UNL     1      41.679 -10.860   0.250  1.00  0.00     0.024 A 
HETATM   30  C   UNL     1      40.717 -11.612   0.935  1.00  0.00     0.011 A 
ENDBRANCH   6  24
TORSDOF 6
ENDMDL
MODEL 9
REMARK VINA RESULT:      -6.6      4.306      6.705
REMARK  6 active torsions:
REMARK  status: ('A' for Active; 'I' for Inactive)
REMARK    1  A    between atoms: O_2  and  C_3 
REMARK    2  A    between atoms: C_3  and  C_4 
REMARK    3  A    between atoms: C_4  and  N_5 
REMARK       I    between atoms: N_5  and  C_6 
REMARK    4  A    between atoms: C_6  and  C_7 
REMARK    5  A    between atoms: C_12  and  C_13 
REMARK    6  A    between atoms: C_21  and  C_22 
ROOT
HETATM    1  C   UNL     1      42.693 -16.551   2.865  1.00  0.00     0.170 A 
HETATM    2  N   UNL     1      43.260 -15.553   3.588  1.00  0.00    -0.163 NA
HETATM    3  N   UNL     1      42.213 -14.847   4.043  1.00  0.00    -0.238 N 
HETATM    4  C   UNL     1      41.006 -15.279   3.562  1.00  0.00     0.145 A 
HETATM    5  N   UNL     1      39.860 -14.607   3.851  1.00  0.00    -0.365 N 
HETATM    6  C   UNL     1      39.925 -13.220   4.320  1.00  0.00     0.118 C 
HETATM    7  C   UNL     1      41.025 -13.166   5.396  1.00  0.00     0.066 C 
HETATM    8  C   UNL     1      42.384 -13.647   4.844  1.00  0.00     0.221 C 
HETATM    9  C   UNL     1      41.279 -16.407   2.824  1.00  0.00     0.115 A 
HETATM   10 CL   UNL     1      40.151 -17.379   2.010  1.00  0.00    -0.077 Cl
HETATM   11  H   UNL     1      38.990 -14.877   3.392  1.00  0.00     0.162 HD
ENDROOT
BRANCH   1  12
HETATM   12  C   UNL     1      43.524 -17.586   2.231  1.00  0.00     0.273 C 
HETATM   13  N   UNL     1      43.233 -18.862   2.669  1.00  0.00    -0.353 N 
HETATM   14  H   UNL     1      42.599 -18.924   3.462  1.00  0.00     0.162 HD
HETATM   15  O   UNL     1      44.398 -17.352   1.402  1.00  0.00    -0.266 OA
BRANCH  13  16
HETATM   16  C   UNL     1      44.009 -20.020   2.278  1.00  0.00     0.149 C 
BRANCH  16  17
HETATM   17  C   UNL     1      44.875 -20.559   3.417  1.00  0.00     0.186 C 
BRANCH  17  18
HETATM   18  O   UNL     1      44.584 -21.947   3.613  1.00  0.00    -0.394 OA
HETATM   19  C   UNL     1      44.933 -22.371   4.925  1.00  0.00     0.201 C 
ENDBRANCH  17  18
ENDBRANCH  16  17
ENDBRANCH  13  16
ENDBRANCH   1  12
BRANCH   8  20
HETATM   20  C   UNL     1      43.343 -13.871   5.993  1.00  0.00     0.409 C 
HETATM   21  F   UNL     1      43.115 -15.039   6.634  1.00  0.00    -0.169 F 
HETATM   22  F   UNL     1      44.641 -13.834   5.627  1.00  0.00    -0.169 F 
HETATM   23  F   UNL     1      43.182 -12.885   6.918  1.00  0.00    -0.169 F 
ENDBRANCH   8  20
BRANCH   6  24
HETATM   24  C   UNL     1      40.082 -12.219   3.174  1.00  0.00    -0.035 A 
HETATM   25  C   UNL     1      40.527 -10.901   3.396  1.00  0.00     0.011 A 
HETATM   26  C   UNL     1      40.699 -10.001   2.339  1.00  0.00     0.024 A 
HETATM   27  C   UNL     1      40.441 -10.408   1.036  1.00  0.00     0.034 A 
HETATM   28 CL   UNL     1      40.649  -9.305  -0.267  1.00  0.00    -0.084 Cl
HETATM   29  C   UNL     1      40.024 -11.710   0.782  1.00  0.00     0.024 A 
HETATM   30  C   UNL     1      39.859 -12.611   1.840  1.00  0.00     0.011 A 
ENDBRANCH   6  24
TORSDOF 6
ENDMDL
MODEL 10
REMARK VINA RESULT:      -6.6      4.863      8.073
REMARK  6 active torsions:
REMARK  status: ('A' for Active; 'I' for Inactive)
REMARK    1  A    between atoms: O_2  and  C_3 
REMARK    2  A    between atoms: C_3  and  C_4 
REMARK    3  A    between atoms: C_4  and  N_5 
REMARK       I    between atoms: N_5  and  C_6 
REMARK    4  A    between atoms: C_6  and  C_7 
REMARK    5  A    between atoms: C_12  and  C_13 
REMARK    6  A    between atoms: C_21  and  C_22 
ROOT
HETATM    1  C   UNL     1      41.916 -15.143   5.211  1.00  0.00     0.170 A 
HETATM    2  N   UNL     1      41.571 -13.838   5.071  1.00  0.00    -0.163 NA
HETATM    3  N   UNL     1      40.584 -13.860   4.161  1.00  0.00    -0.238 N 
HETATM    4  C   UNL     1      40.351 -15.100   3.630  1.00  0.00     0.145 A 
HETATM    5  N   UNL     1      39.452 -15.269   2.624  1.00  0.00    -0.365 N 
HETATM    6  C   UNL     1      39.027 -14.118   1.823  1.00  0.00     0.118 C 
HETATM    7  C   UNL     1      38.723 -12.977   2.811  1.00  0.00     0.066 C 
HETATM    8  C   UNL     1      39.949 -12.642   3.687  1.00  0.00     0.221 C 
HETATM    9  C   UNL     1      41.173 -15.963   4.317  1.00  0.00     0.115 A 
HETATM   10 CL   UNL     1      41.288 -17.641   4.095  1.00  0.00    -0.077 Cl
HETATM   11  H   UNL     1      39.375 -16.178   2.167  1.00  0.00     0.162 HD
ENDROOT
BRANCH   1  12
HETATM   12  C   UNL     1      42.950 -15.548   6.176  1.00  0.00     0.273 C 
HETATM   13  N   UNL     1      42.514 -16.500   7.073  1.00  0.00    -0.353 N 
HETATM   14  H   UNL     1      41.517 -16.700   7.059  1.00  0.00     0.162 HD
HETATM   15  O   UNL     1      44.087 -15.087   6.197  1.00  0.00    -0.266 OA
BRANCH  13  16
HETATM   16  C   UNL     1      43.319 -16.953   8.188  1.00  0.00     0.149 C 
BRANCH  16  17
HETATM   17  C   UNL     1      44.003 -18.292   7.912  1.00  0.00     0.186 C 
BRANCH  17  18
HETATM   18  O   UNL     1      43.275 -18.993   6.898  1.00  0.00    -0.394 OA
HETATM   19  C   UNL     1      44.151 -19.636   5.980  1.00  0.00     0.201 C 
ENDBRANCH  17  18
ENDBRANCH  16  17
ENDBRANCH  13  16
ENDBRANCH   1  12
BRANCH   8  20
HETATM   20  C   UNL     1      39.519 -11.751   4.833  1.00  0.00     0.409 C 
HETATM   21  F   UNL     1      40.549 -11.044   5.350  1.00  0.00    -0.169 F 
HETATM   22  F   UNL     1      38.535 -10.889   4.505  1.00  0.00    -0.169 F 
HETATM   23  F   UNL     1      39.030 -12.517   5.846  1.00  0.00    -0.169 F 
ENDBRANCH   8  20
BRANCH   6  24
HETATM   24  C   UNL     1      40.023 -13.774   0.714  1.00  0.00    -0.035 A 
HETATM   25  C   UNL     1      40.806 -14.763   0.087  1.00  0.00     0.011 A 
HETATM   26  C   UNL     1      41.691 -14.445  -0.948  1.00  0.00     0.024 A 
HETATM   27  C   UNL     1      41.802 -13.130  -1.385  1.00  0.00     0.034 A 
HETATM   28 CL   UNL     1      42.890 -12.734  -2.655  1.00  0.00    -0.084 Cl
HETATM   29  C   UNL     1      41.024 -12.135  -0.802  1.00  0.00     0.024 A 
HETATM   30  C   UNL     1      40.133 -12.457   0.229  1.00  0.00     0.011 A 
ENDBRANCH   6  24
TORSDOF 6
ENDMDL
