MODEL 1
REMARK VINA RESULT:      -8.8      0.000      0.000
REMARK  8 active torsions:
REMARK  status: ('A' for Active; 'I' for Inactive)
REMARK    1  A    between atoms: C_12  and  S_13 
REMARK    2  A    between atoms: S_13  and  C_14 
REMARK    3  A    between atoms: C_14  and  C_15 
REMARK       I    between atoms: C_15  and  N_16 
REMARK    4  A    between atoms: N_16  and  C_17 
REMARK    5  A    between atoms: C_17  and  C_18 
REMARK    6  A    between atoms: C_18  and  C_19 
REMARK    7  A    between atoms: C_21  and  O_22 
REMARK    8  A    between atoms: C_24  and  O_25 
ROOT
HETATM    1  C   UNL     1      42.097 -13.222   5.109  1.00  0.00     0.185 C 
ENDROOT
BRANCH   1   2
HETATM    2  S   UNL     1      40.913 -14.437   4.458  1.00  0.00    -0.080 SA
BRANCH   2   3
HETATM    3  C   UNL     1      41.445 -15.875   5.263  1.00  0.00     0.197 A 
HETATM    4  N   UNL     1      42.216 -16.898   4.733  1.00  0.00    -0.271 N 
HETATM    5  C   UNL     1      42.716 -17.200   3.433  1.00  0.00     0.054 A 
HETATM    6  C   UNL     1      42.476 -17.706   5.834  1.00  0.00     0.159 A 
HETATM    7  C   UNL     1      43.570 -18.326   3.325  1.00  0.00    -0.003 A 
HETATM    8  C   UNL     1      42.387 -16.462   2.291  1.00  0.00     0.031 A 
HETATM    9  C   UNL     1      43.889 -19.141   4.526  1.00  0.00    -0.046 A 
HETATM   10  C   UNL     1      44.094 -18.654   2.063  1.00  0.00     0.014 A 
HETATM   11  C   UNL     1      44.820 -20.316   4.417  1.00  0.00     0.049 C 
HETATM   12  C   UNL     1      43.332 -18.820   5.705  1.00  0.00     0.060 A 
HETATM   13  C   UNL     1      43.772 -17.901   0.933  1.00  0.00     0.001 A 
HETATM   14  C   UNL     1      42.917 -16.813   1.047  1.00  0.00     0.002 A 
HETATM   15  N   UNL     1      41.837 -17.256   6.892  1.00  0.00    -0.129 NA
HETATM   16  N   UNL     1      41.190 -16.110   6.532  1.00  0.00    -0.122 NA
ENDBRANCH   2   3
ENDBRANCH   1   2
BRANCH   1  17
HETATM   17  C   UNL     1      43.509 -13.639   4.740  1.00  0.00     0.227 C 
HETATM   18  N   UNL     1      44.336 -14.152   5.706  1.00  0.00    -0.360 N 
HETATM   19  H   UNL     1      45.271 -14.318   5.348  1.00  0.00     0.162 HD
HETATM   20  O   UNL     1      43.935 -13.555   3.586  1.00  0.00    -0.273 OA
BRANCH  18  21
HETATM   21  C   UNL     1      44.177 -14.020   7.144  1.00  0.00     0.127 C 
BRANCH  21  22
HETATM   22  C   UNL     1      45.308 -13.213   7.780  1.00  0.00     0.058 C 
BRANCH  22  23
HETATM   23  C   UNL     1      44.774 -12.265   8.826  1.00  0.00    -0.054 A 
HETATM   24  C   UNL     1      43.563 -11.588   8.609  1.00  0.00     0.046 A 
HETATM   25  C   UNL     1      43.083 -10.658   9.538  1.00  0.00     0.102 A 
HETATM   26  C   UNL     1      43.806 -10.421  10.723  1.00  0.00     0.101 A 
HETATM   27  C   UNL     1      45.005 -11.106  10.944  1.00  0.00     0.040 A 
HETATM   28  C   UNL     1      45.489 -12.016   9.999  1.00  0.00     0.010 A 
BRANCH  25  29
HETATM   29  O   UNL     1      41.915  -9.952   9.382  1.00  0.00    -0.353 OA
HETATM   30  C   UNL     1      41.025 -10.399   8.366  1.00  0.00     0.210 C 
ENDBRANCH  25  29
BRANCH  26  31
HETATM   31  O   UNL     1      43.265  -9.502  11.587  1.00  0.00    -0.353 OA
HETATM   32  C   UNL     1      43.439  -9.722  12.978  1.00  0.00     0.210 C 
ENDBRANCH  26  31
ENDBRANCH  22  23
ENDBRANCH  21  22
ENDBRANCH  18  21
ENDBRANCH   1  17
TORSDOF 8
ENDMDL
MODEL 2
REMARK VINA RESULT:      -8.7      1.213      2.379
REMARK  8 active torsions:
REMARK  status: ('A' for Active; 'I' for Inactive)
REMARK    1  A    between atoms: C_12  and  S_13 
REMARK    2  A    between atoms: S_13  and  C_14 
REMARK    3  A    between atoms: C_14  and  C_15 
REMARK       I    between atoms: C_15  and  N_16 
REMARK    4  A    between atoms: N_16  and  C_17 
REMARK    5  A    between atoms: C_17  and  C_18 
REMARK    6  A    between atoms: C_18  and  C_19 
REMARK    7  A    between atoms: C_21  and  O_22 
REMARK    8  A    between atoms: C_24  and  O_25 
ROOT
HETATM    1  C   UNL     1      41.788 -13.445   4.826  1.00  0.00     0.185 C 
ENDROOT
BRANCH   1   2
HETATM    2  S   UNL     1      41.021 -15.038   5.248  1.00  0.00    -0.080 SA
BRANCH   2   3
HETATM    3  C   UNL     1      41.246 -15.911   3.769  1.00  0.00     0.197 A 
HETATM    4  N   UNL     1      42.052 -17.019   3.561  1.00  0.00    -0.271 N 
HETATM    5  C   UNL     1      43.001 -17.725   4.356  1.00  0.00     0.054 A 
HETATM    6  C   UNL     1      41.739 -17.404   2.262  1.00  0.00     0.159 A 
HETATM    7  C   UNL     1      43.558 -18.900   3.790  1.00  0.00    -0.003 A 
HETATM    8  C   UNL     1      43.409 -17.302   5.626  1.00  0.00     0.031 A 
HETATM    9  C   UNL     1      43.164 -19.331   2.424  1.00  0.00    -0.046 A 
HETATM   10  C   UNL     1      44.491 -19.632   4.544  1.00  0.00     0.014 A 
HETATM   11  C   UNL     1      43.730 -20.593   1.836  1.00  0.00     0.049 C 
HETATM   12  C   UNL     1      42.302 -18.578   1.720  1.00  0.00     0.060 A 
HETATM   13  C   UNL     1      44.878 -19.209   5.816  1.00  0.00     0.001 A 
HETATM   14  C   UNL     1      44.342 -18.046   6.351  1.00  0.00     0.002 A 
HETATM   15  N   UNL     1      40.903 -16.546   1.720  1.00  0.00    -0.129 NA
HETATM   16  N   UNL     1      40.595 -15.610   2.664  1.00  0.00    -0.122 NA
ENDBRANCH   2   3
ENDBRANCH   1   2
BRANCH   1  17
HETATM   17  C   UNL     1      43.252 -13.659   4.488  1.00  0.00     0.227 C 
HETATM   18  N   UNL     1      44.128 -14.019   5.479  1.00  0.00    -0.360 N 
HETATM   19  H   UNL     1      45.084 -14.054   5.139  1.00  0.00     0.162 HD
HETATM   20  O   UNL     1      43.681 -13.544   3.338  1.00  0.00    -0.273 OA
BRANCH  18  21
HETATM   21  C   UNL     1      43.926 -13.873   6.911  1.00  0.00     0.127 C 
BRANCH  21  22
HETATM   22  C   UNL     1      45.165 -13.324   7.617  1.00  0.00     0.058 C 
BRANCH  22  23
HETATM   23  C   UNL     1      44.779 -12.342   8.697  1.00  0.00    -0.054 A 
HETATM   24  C   UNL     1      43.563 -11.645   8.614  1.00  0.00     0.046 A 
HETATM   25  C   UNL     1      43.217 -10.685   9.571  1.00  0.00     0.102 A 
HETATM   26  C   UNL     1      44.084 -10.436  10.652  1.00  0.00     0.101 A 
HETATM   27  C   UNL     1      45.288 -11.141  10.742  1.00  0.00     0.040 A 
HETATM   28  C   UNL     1      45.637 -12.082   9.769  1.00  0.00     0.010 A 
BRANCH  25  29
HETATM   29  O   UNL     1      42.052  -9.958   9.540  1.00  0.00    -0.353 OA
HETATM   30  C   UNL     1      40.843 -10.673   9.763  1.00  0.00     0.210 C 
ENDBRANCH  25  29
BRANCH  26  31
HETATM   31  O   UNL     1      43.669  -9.488  11.553  1.00  0.00    -0.353 OA
HETATM   32  C   UNL     1      43.348  -9.920  12.866  1.00  0.00     0.210 C 
ENDBRANCH  26  31
ENDBRANCH  22  23
ENDBRANCH  21  22
ENDBRANCH  18  21
ENDBRANCH   1  17
TORSDOF 8
ENDMDL
MODEL 3
REMARK VINA RESULT:      -8.5      1.977      2.591
REMARK  8 active torsions:
REMARK  status: ('A' for Active; 'I' for Inactive)
REMARK    1  A    between atoms: C_12  and  S_13 
REMARK    2  A    between atoms: S_13  and  C_14 
REMARK    3  A    between atoms: C_14  and  C_15 
REMARK       I    between atoms: C_15  and  N_16 
REMARK    4  A    between atoms: N_16  and  C_17 
REMARK    5  A    between atoms: C_17  and  C_18 
REMARK    6  A    between atoms: C_18  and  C_19 
REMARK    7  A    between atoms: C_21  and  O_22 
REMARK    8  A    between atoms: C_24  and  O_25 
ROOT
HETATM    1  C   UNL     1      44.291 -14.732   7.661  1.00  0.00     0.185 C 
ENDROOT
BRANCH   1   2
HETATM    2  S   UNL     1      43.375 -15.250   6.178  1.00  0.00    -0.080 SA
BRANCH   2   3
HETATM    3  C   UNL     1      43.566 -16.969   6.261  1.00  0.00     0.197 A 
HETATM    4  N   UNL     1      43.718 -17.850   5.201  1.00  0.00    -0.271 N 
HETATM    5  C   UNL     1      43.661 -17.723   3.783  1.00  0.00     0.054 A 
HETATM    6  C   UNL     1      43.984 -19.062   5.828  1.00  0.00     0.159 A 
HETATM    7  C   UNL     1      43.976 -18.880   3.027  1.00  0.00    -0.003 A 
HETATM    8  C   UNL     1      43.295 -16.541   3.130  1.00  0.00     0.031 A 
HETATM    9  C   UNL     1      44.321 -20.152   3.714  1.00  0.00    -0.046 A 
HETATM   10  C   UNL     1      43.941 -18.796   1.624  1.00  0.00     0.014 A 
HETATM   11  C   UNL     1      44.685 -21.370   2.912  1.00  0.00     0.049 C 
HETATM   12  C   UNL     1      44.299 -20.200   5.056  1.00  0.00     0.060 A 
HETATM   13  C   UNL     1      43.591 -17.608   0.983  1.00  0.00     0.001 A 
HETATM   14  C   UNL     1      43.264 -16.487   1.734  1.00  0.00     0.002 A 
HETATM   15  N   UNL     1      43.900 -18.930   7.134  1.00  0.00    -0.129 NA
HETATM   16  N   UNL     1      43.635 -17.619   7.404  1.00  0.00    -0.122 NA
ENDBRANCH   2   3
ENDBRANCH   1   2
BRANCH   1  17
HETATM   17  C   UNL     1      45.250 -13.612   7.301  1.00  0.00     0.227 C 
HETATM   18  N   UNL     1      45.593 -12.686   8.251  1.00  0.00    -0.360 N 
HETATM   19  H   UNL     1      46.176 -11.951   7.865  1.00  0.00     0.162 HD
HETATM   20  O   UNL     1      45.758 -13.520   6.182  1.00  0.00    -0.273 OA
BRANCH  18  21
HETATM   21  C   UNL     1      44.876 -12.400   9.484  1.00  0.00     0.127 C 
BRANCH  21  22
HETATM   22  C   UNL     1      43.843 -11.288   9.307  1.00  0.00     0.058 C 
BRANCH  22  23
HETATM   23  C   UNL     1      43.251 -10.885  10.636  1.00  0.00    -0.054 A 
HETATM   24  C   UNL     1      41.867 -10.987  10.850  1.00  0.00     0.046 A 
HETATM   25  C   UNL     1      41.292 -10.560  12.052  1.00  0.00     0.102 A 
HETATM   26  C   UNL     1      42.115 -10.050  13.075  1.00  0.00     0.101 A 
HETATM   27  C   UNL     1      43.494  -9.962  12.865  1.00  0.00     0.040 A 
HETATM   28  C   UNL     1      44.058 -10.369  11.653  1.00  0.00     0.010 A 
BRANCH  25  29
HETATM   29  O   UNL     1      39.946 -10.618  12.321  1.00  0.00    -0.353 OA
HETATM   30  C   UNL     1      39.104  -9.744  11.579  1.00  0.00     0.210 C 
ENDBRANCH  25  29
BRANCH  26  31
HETATM   31  O   UNL     1      41.476  -9.661  14.226  1.00  0.00    -0.353 OA
HETATM   32  C   UNL     1      41.377  -8.269  14.487  1.00  0.00     0.210 C 
ENDBRANCH  26  31
ENDBRANCH  22  23
ENDBRANCH  21  22
ENDBRANCH  18  21
ENDBRANCH   1  17
TORSDOF 8
ENDMDL
MODEL 4
REMARK VINA RESULT:      -8.5      3.095      4.885
REMARK  8 active torsions:
REMARK  status: ('A' for Active; 'I' for Inactive)
REMARK    1  A    between atoms: C_12  and  S_13 
REMARK    2  A    between atoms: S_13  and  C_14 
REMARK    3  A    between atoms: C_14  and  C_15 
REMARK       I    between atoms: C_15  and  N_16 
REMARK    4  A    between atoms: N_16  and  C_17 
REMARK    5  A    between atoms: C_17  and  C_18 
REMARK    6  A    between atoms: C_18  and  C_19 
REMARK    7  A    between atoms: C_21  and  O_22 
REMARK    8  A    between atoms: C_24  and  O_25 
ROOT
HETATM    1  C   UNL     1      41.958 -15.999   0.371  1.00  0.00     0.185 C 
ENDROOT
BRANCH   1   2
HETATM    2  S   UNL     1      40.909 -17.300   1.086  1.00  0.00    -0.080 SA
BRANCH   2   3
HETATM    3  C   UNL     1      41.164 -17.031   2.778  1.00  0.00     0.197 A 
HETATM    4  N   UNL     1      42.096 -17.649   3.596  1.00  0.00    -0.271 N 
HETATM    5  C   UNL     1      43.025 -18.716   3.422  1.00  0.00     0.054 A 
HETATM    6  C   UNL     1      41.977 -16.958   4.796  1.00  0.00     0.159 A 
HETATM    7  C   UNL     1      43.891 -18.991   4.509  1.00  0.00    -0.003 A 
HETATM    8  C   UNL     1      43.095 -19.493   2.260  1.00  0.00     0.031 A 
HETATM    9  C   UNL     1      43.793 -18.199   5.763  1.00  0.00    -0.046 A 
HETATM   10  C   UNL     1      44.829 -20.029   4.376  1.00  0.00     0.014 A 
HETATM   11  C   UNL     1      44.732 -18.470   6.904  1.00  0.00     0.049 C 
HETATM   12  C   UNL     1      42.852 -17.245   5.865  1.00  0.00     0.060 A 
HETATM   13  C   UNL     1      44.901 -20.787   3.207  1.00  0.00     0.001 A 
HETATM   14  C   UNL     1      44.033 -20.523   2.156  1.00  0.00     0.002 A 
HETATM   15  N   UNL     1      40.999 -16.082   4.724  1.00  0.00    -0.129 NA
HETATM   16  N   UNL     1      40.489 -16.129   3.460  1.00  0.00    -0.122 NA
ENDBRANCH   2   3
ENDBRANCH   1   2
BRANCH   1  17
HETATM   17  C   UNL     1      41.157 -15.196  -0.638  1.00  0.00     0.227 C 
HETATM   18  N   UNL     1      40.657 -13.971  -0.281  1.00  0.00    -0.360 N 
HETATM   19  H   UNL     1      40.078 -13.575  -1.015  1.00  0.00     0.162 HD
HETATM   20  O   UNL     1      40.960 -15.599  -1.786  1.00  0.00    -0.273 OA
BRANCH  18  21
HETATM   21  C   UNL     1      40.469 -13.470   1.071  1.00  0.00     0.127 C 
BRANCH  21  22
HETATM   22  C   UNL     1      41.575 -12.502   1.488  1.00  0.00     0.058 C 
BRANCH  22  23
HETATM   23  C   UNL     1      42.116 -12.856   2.853  1.00  0.00    -0.054 A 
HETATM   24  C   UNL     1      41.523 -12.316   4.006  1.00  0.00     0.046 A 
HETATM   25  C   UNL     1      42.048 -12.580   5.275  1.00  0.00     0.102 A 
HETATM   26  C   UNL     1      43.166 -13.427   5.403  1.00  0.00     0.101 A 
HETATM   27  C   UNL     1      43.746 -13.975   4.256  1.00  0.00     0.040 A 
HETATM   28  C   UNL     1      43.230 -13.687   2.989  1.00  0.00     0.010 A 
BRANCH  25  29
HETATM   29  O   UNL     1      41.527 -12.074   6.441  1.00  0.00    -0.353 OA
HETATM   30  C   UNL     1      40.109 -12.049   6.553  1.00  0.00     0.210 C 
ENDBRANCH  25  29
BRANCH  26  31
HETATM   31  O   UNL     1      43.614 -13.645   6.682  1.00  0.00    -0.353 OA
HETATM   32  C   UNL     1      44.974 -14.017   6.850  1.00  0.00     0.210 C 
ENDBRANCH  26  31
ENDBRANCH  22  23
ENDBRANCH  21  22
ENDBRANCH  18  21
ENDBRANCH   1  17
TORSDOF 8
ENDMDL
MODEL 5
REMARK VINA RESULT:      -8.5      4.234      7.931
REMARK  8 active torsions:
REMARK  status: ('A' for Active; 'I' for Inactive)
REMARK    1  A    between atoms: C_12  and  S_13 
REMARK    2  A    between atoms: S_13  and  C_14 
REMARK    3  A    between atoms: C_14  and  C_15 
REMARK       I    between atoms: C_15  and  N_16 
REMARK    4  A    between atoms: N_16  and  C_17 
REMARK    5  A    between atoms: C_17  and  C_18 
REMARK    6  A    between atoms: C_18  and  C_19 
REMARK    7  A    between atoms: C_21  and  O_22 
REMARK    8  A    between atoms: C_24  and  O_25 
ROOT
HETATM    1  C   UNL     1      41.711 -14.275   5.314  1.00  0.00     0.185 C 
ENDROOT
BRANCH   1   2
HETATM    2  S   UNL     1      43.409 -14.816   4.956  1.00  0.00    -0.080 SA
BRANCH   2   3
HETATM    3  C   UNL     1      43.511 -16.241   5.935  1.00  0.00     0.197 A 
HETATM    4  N   UNL     1      43.715 -17.543   5.505  1.00  0.00    -0.271 N 
HETATM    5  C   UNL     1      43.789 -18.172   4.228  1.00  0.00     0.054 A 
HETATM    6  C   UNL     1      43.869 -18.251   6.691  1.00  0.00     0.159 A 
HETATM    7  C   UNL     1      44.114 -19.551   4.215  1.00  0.00    -0.003 A 
HETATM    8  C   UNL     1      43.537 -17.504   3.025  1.00  0.00     0.031 A 
HETATM    9  C   UNL     1      44.339 -20.279   5.491  1.00  0.00    -0.046 A 
HETATM   10  C   UNL     1      44.207 -20.209   2.976  1.00  0.00     0.014 A 
HETATM   11  C   UNL     1      44.715 -21.734   5.476  1.00  0.00     0.049 C 
HETATM   12  C   UNL     1      44.197 -19.623   6.655  1.00  0.00     0.060 A 
HETATM   13  C   UNL     1      43.970 -19.528   1.782  1.00  0.00     0.001 A 
HETATM   14  C   UNL     1      43.630 -18.182   1.808  1.00  0.00     0.002 A 
HETATM   15  N   UNL     1      43.677 -17.461   7.724  1.00  0.00    -0.129 NA
HETATM   16  N   UNL     1      43.451 -16.202   7.249  1.00  0.00    -0.122 NA
ENDBRANCH   2   3
ENDBRANCH   1   2
BRANCH   1  17
HETATM   17  C   UNL     1      40.756 -15.439   5.124  1.00  0.00     0.227 C 
HETATM   18  N   UNL     1      40.431 -15.847   3.856  1.00  0.00    -0.360 N 
HETATM   19  H   UNL     1      39.728 -16.579   3.867  1.00  0.00     0.162 HD
HETATM   20  O   UNL     1      40.276 -16.053   6.079  1.00  0.00    -0.273 OA
BRANCH  18  21
HETATM   21  C   UNL     1      40.590 -15.081   2.631  1.00  0.00     0.127 C 
BRANCH  21  22
HETATM   22  C   UNL     1      40.760 -15.978   1.406  1.00  0.00     0.058 C 
BRANCH  22  23
HETATM   23  C   UNL     1      41.044 -15.158   0.171  1.00  0.00    -0.054 A 
HETATM   24  C   UNL     1      40.805 -15.698  -1.103  1.00  0.00     0.046 A 
HETATM   25  C   UNL     1      41.122 -14.978  -2.260  1.00  0.00     0.102 A 
HETATM   26  C   UNL     1      41.657 -13.680  -2.148  1.00  0.00     0.101 A 
HETATM   27  C   UNL     1      41.881 -13.138  -0.879  1.00  0.00     0.040 A 
HETATM   28  C   UNL     1      41.584 -13.874   0.272  1.00  0.00     0.010 A 
BRANCH  25  29
HETATM   29  O   UNL     1      40.927 -15.451  -3.535  1.00  0.00    -0.353 OA
HETATM   30  C   UNL     1      39.586 -15.724  -3.921  1.00  0.00     0.210 C 
ENDBRANCH  25  29
BRANCH  26  31
HETATM   31  O   UNL     1      41.932 -13.036  -3.328  1.00  0.00    -0.353 OA
HETATM   32  C   UNL     1      41.008 -12.056  -3.776  1.00  0.00     0.210 C 
ENDBRANCH  26  31
ENDBRANCH  22  23
ENDBRANCH  21  22
ENDBRANCH  18  21
ENDBRANCH   1  17
TORSDOF 8
ENDMDL
MODEL 6
REMARK VINA RESULT:      -8.4      4.035      7.182
REMARK  8 active torsions:
REMARK  status: ('A' for Active; 'I' for Inactive)
REMARK    1  A    between atoms: C_12  and  S_13 
REMARK    2  A    between atoms: S_13  and  C_14 
REMARK    3  A    between atoms: C_14  and  C_15 
REMARK       I    between atoms: C_15  and  N_16 
REMARK    4  A    between atoms: N_16  and  C_17 
REMARK    5  A    between atoms: C_17  and  C_18 
REMARK    6  A    between atoms: C_18  and  C_19 
REMARK    7  A    between atoms: C_21  and  O_22 
REMARK    8  A    between atoms: C_24  and  O_25 
ROOT
HETATM    1  C   UNL     1      41.531 -13.961   5.561  1.00  0.00     0.185 C 
ENDROOT
BRANCH   1   2
HETATM    2  S   UNL     1      43.248 -14.282   5.059  1.00  0.00    -0.080 SA
BRANCH   2   3
HETATM    3  C   UNL     1      43.542 -15.796   5.846  1.00  0.00     0.197 A 
HETATM    4  N   UNL     1      43.741 -17.030   5.247  1.00  0.00    -0.271 N 
HETATM    5  C   UNL     1      43.669 -17.512   3.907  1.00  0.00     0.054 A 
HETATM    6  C   UNL     1      44.083 -17.853   6.314  1.00  0.00     0.159 A 
HETATM    7  C   UNL     1      44.048 -18.860   3.694  1.00  0.00    -0.003 A 
HETATM    8  C   UNL     1      43.230 -16.732   2.832  1.00  0.00     0.031 A 
HETATM    9  C   UNL     1      44.474 -19.708   4.839  1.00  0.00    -0.046 A 
HETATM   10  C   UNL     1      44.002 -19.373   2.386  1.00  0.00     0.014 A 
HETATM   11  C   UNL     1      44.905 -21.129   4.608  1.00  0.00     0.049 C 
HETATM   12  C   UNL     1      44.461 -19.192   6.079  1.00  0.00     0.060 A 
HETATM   13  C   UNL     1      43.577 -18.582   1.319  1.00  0.00     0.001 A 
HETATM   14  C   UNL     1      43.188 -17.268   1.543  1.00  0.00     0.002 A 
HETATM   15  N   UNL     1      43.998 -17.191   7.447  1.00  0.00    -0.129 NA
HETATM   16  N   UNL     1      43.657 -15.903   7.153  1.00  0.00    -0.122 NA
ENDBRANCH   2   3
ENDBRANCH   1   2
BRANCH   1  17
HETATM   17  C   UNL     1      40.693 -15.205   5.330  1.00  0.00     0.227 C 
HETATM   18  N   UNL     1      40.237 -15.487   4.068  1.00  0.00    -0.360 N 
HETATM   19  H   UNL     1      39.628 -16.299   4.062  1.00  0.00     0.162 HD
HETATM   20  O   UNL     1      40.425 -15.992   6.240  1.00  0.00    -0.273 OA
BRANCH  18  21
HETATM   21  C   UNL     1      40.134 -14.558   2.955  1.00  0.00     0.127 C 
BRANCH  21  22
HETATM   22  C   UNL     1      39.965 -15.276   1.616  1.00  0.00     0.058 C 
BRANCH  22  23
HETATM   23  C   UNL     1      40.741 -14.576   0.526  1.00  0.00    -0.054 A 
HETATM   24  C   UNL     1      41.414 -13.375   0.802  1.00  0.00     0.046 A 
HETATM   25  C   UNL     1      42.085 -12.678  -0.208  1.00  0.00     0.102 A 
HETATM   26  C   UNL     1      42.115 -13.204  -1.514  1.00  0.00     0.101 A 
HETATM   27  C   UNL     1      41.457 -14.408  -1.785  1.00  0.00     0.040 A 
HETATM   28  C   UNL     1      40.769 -15.085  -0.774  1.00  0.00     0.010 A 
BRANCH  25  29
HETATM   29  O   UNL     1      42.749 -11.492  -0.010  1.00  0.00    -0.353 OA
HETATM   30  C   UNL     1      41.950 -10.335   0.199  1.00  0.00     0.210 C 
ENDBRANCH  25  29
BRANCH  26  31
HETATM   31  O   UNL     1      42.802 -12.467  -2.446  1.00  0.00    -0.353 OA
HETATM   32  C   UNL     1      42.107 -12.078  -3.622  1.00  0.00     0.210 C 
ENDBRANCH  26  31
ENDBRANCH  22  23
ENDBRANCH  21  22
ENDBRANCH  18  21
ENDBRANCH   1  17
TORSDOF 8
ENDMDL
MODEL 7
REMARK VINA RESULT:      -8.4      3.229      6.380
REMARK  8 active torsions:
REMARK  status: ('A' for Active; 'I' for Inactive)
REMARK    1  A    between atoms: C_12  and  S_13 
REMARK    2  A    between atoms: S_13  and  C_14 
REMARK    3  A    between atoms: C_14  and  C_15 
REMARK       I    between atoms: C_15  and  N_16 
REMARK    4  A    between atoms: N_16  and  C_17 
REMARK    5  A    between atoms: C_17  and  C_18 
REMARK    6  A    between atoms: C_18  and  C_19 
REMARK    7  A    between atoms: C_21  and  O_22 
REMARK    8  A    between atoms: C_24  and  O_25 
ROOT
HETATM    1  C   UNL     1      44.353 -15.781   6.735  1.00  0.00     0.185 C 
ENDROOT
BRANCH   1   2
HETATM    2  S   UNL     1      42.814 -16.710   7.000  1.00  0.00    -0.080 SA
BRANCH   2   3
HETATM    3  C   UNL     1      43.343 -18.323   6.658  1.00  0.00     0.197 A 
HETATM    4  N   UNL     1      43.529 -18.900   5.412  1.00  0.00    -0.271 N 
HETATM    5  C   UNL     1      43.270 -18.487   4.072  1.00  0.00     0.054 A 
HETATM    6  C   UNL     1      44.103 -20.130   5.711  1.00  0.00     0.159 A 
HETATM    7  C   UNL     1      43.706 -19.357   3.042  1.00  0.00    -0.003 A 
HETATM    8  C   UNL     1      42.603 -17.301   3.748  1.00  0.00     0.031 A 
HETATM    9  C   UNL     1      44.376 -20.640   3.379  1.00  0.00    -0.046 A 
HETATM   10  C   UNL     1      43.479 -18.984   1.706  1.00  0.00     0.014 A 
HETATM   11  C   UNL     1      44.865 -21.548   2.286  1.00  0.00     0.049 C 
HETATM   12  C   UNL     1      44.533 -20.980   4.670  1.00  0.00     0.060 A 
HETATM   13  C   UNL     1      42.827 -17.791   1.394  1.00  0.00     0.001 A 
HETATM   14  C   UNL     1      42.386 -16.957   2.412  1.00  0.00     0.002 A 
HETATM   15  N   UNL     1      44.160 -20.304   7.014  1.00  0.00    -0.129 NA
HETATM   16  N   UNL     1      43.682 -19.172   7.606  1.00  0.00    -0.122 NA
ENDBRANCH   2   3
ENDBRANCH   1   2
BRANCH   1  17
HETATM   17  C   UNL     1      44.187 -14.362   7.250  1.00  0.00     0.227 C 
HETATM   18  N   UNL     1      43.435 -13.468   6.532  1.00  0.00    -0.360 N 
HETATM   19  H   UNL     1      43.467 -12.539   6.941  1.00  0.00     0.162 HD
HETATM   20  O   UNL     1      44.687 -13.990   8.313  1.00  0.00    -0.273 OA
BRANCH  18  21
HETATM   21  C   UNL     1      43.060 -13.576   5.132  1.00  0.00     0.127 C 
BRANCH  21  22
HETATM   22  C   UNL     1      41.547 -13.498   4.932  1.00  0.00     0.058 C 
BRANCH  22  23
HETATM   23  C   UNL     1      41.187 -13.654   3.474  1.00  0.00    -0.054 A 
HETATM   24  C   UNL     1      39.931 -14.169   3.110  1.00  0.00     0.046 A 
HETATM   25  C   UNL     1      39.603 -14.380   1.767  1.00  0.00     0.102 A 
HETATM   26  C   UNL     1      40.530 -14.042   0.762  1.00  0.00     0.101 A 
HETATM   27  C   UNL     1      41.774 -13.516   1.125  1.00  0.00     0.040 A 
HETATM   28  C   UNL     1      42.103 -13.331   2.471  1.00  0.00     0.010 A 
BRANCH  25  29
HETATM   29  O   UNL     1      38.401 -14.893   1.343  1.00  0.00    -0.353 OA
HETATM   30  C   UNL     1      37.432 -13.960   0.880  1.00  0.00     0.210 C 
ENDBRANCH  25  29
BRANCH  26  31
HETATM   31  O   UNL     1      40.129 -14.270  -0.531  1.00  0.00    -0.353 OA
HETATM   32  C   UNL     1      41.071 -14.849  -1.421  1.00  0.00     0.210 C 
ENDBRANCH  26  31
ENDBRANCH  22  23
ENDBRANCH  21  22
ENDBRANCH  18  21
ENDBRANCH   1  17
TORSDOF 8
ENDMDL
MODEL 8
REMARK VINA RESULT:      -8.3      4.138      7.941
REMARK  8 active torsions:
REMARK  status: ('A' for Active; 'I' for Inactive)
REMARK    1  A    between atoms: C_12  and  S_13 
REMARK    2  A    between atoms: S_13  and  C_14 
REMARK    3  A    between atoms: C_14  and  C_15 
REMARK       I    between atoms: C_15  and  N_16 
REMARK    4  A    between atoms: N_16  and  C_17 
REMARK    5  A    between atoms: C_17  and  C_18 
REMARK    6  A    between atoms: C_18  and  C_19 
REMARK    7  A    between atoms: C_21  and  O_22 
REMARK    8  A    between atoms: C_24  and  O_25 
ROOT
HETATM    1  C   UNL     1      41.619 -13.997   5.356  1.00  0.00     0.185 C 
ENDROOT
BRANCH   1   2
HETATM    2  S   UNL     1      43.325 -14.469   4.940  1.00  0.00    -0.080 SA
BRANCH   2   3
HETATM    3  C   UNL     1      43.504 -15.909   5.885  1.00  0.00     0.197 A 
HETATM    4  N   UNL     1      43.694 -17.201   5.420  1.00  0.00    -0.271 N 
HETATM    5  C   UNL     1      43.693 -17.807   4.130  1.00  0.00     0.054 A 
HETATM    6  C   UNL     1      43.931 -17.928   6.581  1.00  0.00     0.159 A 
HETATM    7  C   UNL     1      44.031 -19.182   4.072  1.00  0.00    -0.003 A 
HETATM    8  C   UNL     1      43.358 -17.121   2.957  1.00  0.00     0.031 A 
HETATM    9  C   UNL     1      44.345 -19.929   5.318  1.00  0.00    -0.046 A 
HETATM   10  C   UNL     1      44.052 -19.817   2.818  1.00  0.00     0.014 A 
HETATM   11  C   UNL     1      44.734 -21.379   5.253  1.00  0.00     0.049 C 
HETATM   12  C   UNL     1      44.270 -19.295   6.500  1.00  0.00     0.060 A 
HETATM   13  C   UNL     1      43.732 -19.119   1.654  1.00  0.00     0.001 A 
HETATM   14  C   UNL     1      43.381 -17.778   1.725  1.00  0.00     0.002 A 
HETATM   15  N   UNL     1      43.796 -17.157   7.638  1.00  0.00    -0.129 NA
HETATM   16  N   UNL     1      43.527 -15.893   7.201  1.00  0.00    -0.122 NA
ENDBRANCH   2   3
ENDBRANCH   1   2
BRANCH   1  17
HETATM   17  C   UNL     1      40.680 -15.145   5.033  1.00  0.00     0.227 C 
HETATM   18  N   UNL     1      40.205 -15.291   3.756  1.00  0.00    -0.360 N 
HETATM   19  H   UNL     1      39.531 -16.046   3.691  1.00  0.00     0.162 HD
HETATM   20  O   UNL     1      40.347 -15.974   5.882  1.00  0.00    -0.273 OA
BRANCH  18  21
HETATM   21  C   UNL     1      40.182 -14.274   2.717  1.00  0.00     0.127 C 
BRANCH  21  22
HETATM   22  C   UNL     1      41.304 -14.462   1.697  1.00  0.00     0.058 C 
BRANCH  22  23
HETATM   23  C   UNL     1      40.752 -14.532   0.294  1.00  0.00    -0.054 A 
HETATM   24  C   UNL     1      39.597 -13.808  -0.045  1.00  0.00     0.046 A 
HETATM   25  C   UNL     1      39.034 -13.909  -1.321  1.00  0.00     0.102 A 
HETATM   26  C   UNL     1      39.651 -14.720  -2.293  1.00  0.00     0.101 A 
HETATM   27  C   UNL     1      40.809 -15.429  -1.959  1.00  0.00     0.040 A 
HETATM   28  C   UNL     1      41.352 -15.341  -0.673  1.00  0.00     0.010 A 
BRANCH  25  29
HETATM   29  O   UNL     1      37.899 -13.241  -1.713  1.00  0.00    -0.353 OA
HETATM   30  C   UNL     1      37.574 -12.054  -1.001  1.00  0.00     0.210 C 
ENDBRANCH  25  29
BRANCH  26  31
HETATM   31  O   UNL     1      39.043 -14.758  -3.523  1.00  0.00    -0.353 OA
HETATM   32  C   UNL     1      38.981 -16.010  -4.189  1.00  0.00     0.210 C 
ENDBRANCH  26  31
ENDBRANCH  22  23
ENDBRANCH  21  22
ENDBRANCH  18  21
ENDBRANCH   1  17
TORSDOF 8
ENDMDL
MODEL 9
REMARK VINA RESULT:      -8.1      1.779      3.157
REMARK  8 active torsions:
REMARK  status: ('A' for Active; 'I' for Inactive)
REMARK    1  A    between atoms: C_12  and  S_13 
REMARK    2  A    between atoms: S_13  and  C_14 
REMARK    3  A    between atoms: C_14  and  C_15 
REMARK       I    between atoms: C_15  and  N_16 
REMARK    4  A    between atoms: N_16  and  C_17 
REMARK    5  A    between atoms: C_17  and  C_18 
REMARK    6  A    between atoms: C_18  and  C_19 
REMARK    7  A    between atoms: C_21  and  O_22 
REMARK    8  A    between atoms: C_24  and  O_25 
ROOT
HETATM    1  C   UNL     1      43.212 -13.684   6.120  1.00  0.00     0.185 C 
ENDROOT
BRANCH   1   2
HETATM    2  S   UNL     1      42.078 -15.078   5.845  1.00  0.00    -0.080 SA
BRANCH   2   3
HETATM    3  C   UNL     1      42.761 -15.778   4.416  1.00  0.00     0.197 A 
HETATM    4  N   UNL     1      43.263 -17.061   4.266  1.00  0.00    -0.271 N 
HETATM    5  C   UNL     1      43.505 -18.148   5.156  1.00  0.00     0.054 A 
HETATM    6  C   UNL     1      43.529 -17.143   2.904  1.00  0.00     0.159 A 
HETATM    7  C   UNL     1      43.953 -19.360   4.574  1.00  0.00    -0.003 A 
HETATM    8  C   UNL     1      43.343 -18.058   6.542  1.00  0.00     0.031 A 
HETATM    9  C   UNL     1      44.171 -19.450   3.106  1.00  0.00    -0.046 A 
HETATM   10  C   UNL     1      44.195 -20.460   5.414  1.00  0.00     0.014 A 
HETATM   11  C   UNL     1      44.617 -20.744   2.486  1.00  0.00     0.049 C 
HETATM   12  C   UNL     1      43.971 -18.361   2.345  1.00  0.00     0.060 A 
HETATM   13  C   UNL     1      44.014 -20.365   6.794  1.00  0.00     0.001 A 
HETATM   14  C   UNL     1      43.595 -19.166   7.355  1.00  0.00     0.002 A 
HETATM   15  N   UNL     1      43.299 -15.987   2.322  1.00  0.00    -0.129 NA
HETATM   16  N   UNL     1      42.819 -15.131   3.271  1.00  0.00    -0.122 NA
ENDBRANCH   2   3
ENDBRANCH   1   2
BRANCH   1  17
HETATM   17  C   UNL     1      44.393 -14.146   6.954  1.00  0.00     0.227 C 
HETATM   18  N   UNL     1      44.676 -13.509   8.134  1.00  0.00    -0.360 N 
HETATM   19  H   UNL     1      45.531 -13.860   8.554  1.00  0.00     0.162 HD
HETATM   20  O   UNL     1      45.098 -15.099   6.618  1.00  0.00    -0.273 OA
BRANCH  18  21
HETATM   21  C   UNL     1      44.218 -12.190   8.541  1.00  0.00     0.127 C 
BRANCH  21  22
HETATM   22  C   UNL     1      44.671 -11.831   9.955  1.00  0.00     0.058 C 
BRANCH  22  23
HETATM   23  C   UNL     1      43.702 -10.875  10.607  1.00  0.00    -0.054 A 
HETATM   24  C   UNL     1      42.529 -10.495   9.934  1.00  0.00     0.046 A 
HETATM   25  C   UNL     1      41.650  -9.562  10.494  1.00  0.00     0.102 A 
HETATM   26  C   UNL     1      41.925  -9.019  11.764  1.00  0.00     0.101 A 
HETATM   27  C   UNL     1      43.086  -9.409  12.438  1.00  0.00     0.040 A 
HETATM   28  C   UNL     1      43.972 -10.324  11.862  1.00  0.00     0.010 A 
BRANCH  25  29
HETATM   29  O   UNL     1      40.494  -9.136   9.884  1.00  0.00    -0.353 OA
HETATM   30  C   UNL     1      39.483 -10.113   9.672  1.00  0.00     0.210 C 
ENDBRANCH  25  29
BRANCH  26  31
HETATM   31  O   UNL     1      41.010  -8.118  12.247  1.00  0.00    -0.353 OA
HETATM   32  C   UNL     1      40.246  -8.498  13.382  1.00  0.00     0.210 C 
ENDBRANCH  26  31
ENDBRANCH  22  23
ENDBRANCH  21  22
ENDBRANCH  18  21
ENDBRANCH   1  17
TORSDOF 8
ENDMDL
MODEL 10
REMARK VINA RESULT:      -8.0      2.080      3.863
REMARK  8 active torsions:
REMARK  status: ('A' for Active; 'I' for Inactive)
REMARK    1  A    between atoms: C_12  and  S_13 
REMARK    2  A    between atoms: S_13  and  C_14 
REMARK    3  A    between atoms: C_14  and  C_15 
REMARK       I    between atoms: C_15  and  N_16 
REMARK    4  A    between atoms: N_16  and  C_17 
REMARK    5  A    between atoms: C_17  and  C_18 
REMARK    6  A    between atoms: C_18  and  C_19 
REMARK    7  A    between atoms: C_21  and  O_22 
REMARK    8  A    between atoms: C_24  and  O_25 
ROOT
HETATM    1  C   UNL     1      41.044 -15.121   4.204  1.00  0.00     0.185 C 
ENDROOT
BRANCH   1   2
HETATM    2  S   UNL     1      42.851 -14.941   4.132  1.00  0.00    -0.080 SA
BRANCH   2   3
HETATM    3  C   UNL     1      43.252 -16.148   2.956  1.00  0.00     0.197 A 
HETATM    4  N   UNL     1      43.602 -17.468   3.193  1.00  0.00    -0.271 N 
HETATM    5  C   UNL     1      43.861 -18.237   4.365  1.00  0.00     0.054 A 
HETATM    6  C   UNL     1      43.662 -18.017   1.917  1.00  0.00     0.159 A 
HETATM    7  C   UNL     1      44.103 -19.620   4.179  1.00  0.00    -0.003 A 
HETATM    8  C   UNL     1      43.908 -17.688   5.651  1.00  0.00     0.031 A 
HETATM    9  C   UNL     1      44.100 -20.203   2.811  1.00  0.00    -0.046 A 
HETATM   10  C   UNL     1      44.354 -20.418   5.309  1.00  0.00     0.014 A 
HETATM   11  C   UNL     1      44.325 -21.676   2.617  1.00  0.00     0.049 C 
HETATM   12  C   UNL     1      43.900 -19.398   1.755  1.00  0.00     0.060 A 
HETATM   13  C   UNL     1      44.381 -19.862   6.588  1.00  0.00     0.001 A 
HETATM   14  C   UNL     1      44.165 -18.501   6.757  1.00  0.00     0.002 A 
HETATM   15  N   UNL     1      43.464 -17.087   1.009  1.00  0.00    -0.129 NA
HETATM   16  N   UNL     1      43.209 -15.916   1.661  1.00  0.00    -0.122 NA
ENDBRANCH   2   3
ENDBRANCH   1   2
BRANCH   1  17
HETATM   17  C   UNL     1      40.595 -15.172   5.653  1.00  0.00     0.227 C 
HETATM   18  N   UNL     1      40.147 -14.029   6.263  1.00  0.00    -0.360 N 
HETATM   19  H   UNL     1      39.952 -14.181   7.247  1.00  0.00     0.162 HD
HETATM   20  O   UNL     1      40.595 -16.222   6.300  1.00  0.00    -0.273 OA
BRANCH  18  21
HETATM   21  C   UNL     1      40.382 -12.663   5.825  1.00  0.00     0.127 C 
BRANCH  21  22
HETATM   22  C   UNL     1      39.562 -11.651   6.624  1.00  0.00     0.058 C 
BRANCH  22  23
HETATM   23  C   UNL     1      40.295 -11.229   7.874  1.00  0.00    -0.054 A 
HETATM   24  C   UNL     1      41.692 -11.080   7.855  1.00  0.00     0.046 A 
HETATM   25  C   UNL     1      42.396 -10.751   9.018  1.00  0.00     0.102 A 
HETATM   26  C   UNL     1      41.693 -10.533  10.219  1.00  0.00     0.101 A 
HETATM   27  C   UNL     1      40.302 -10.668  10.234  1.00  0.00     0.040 A 
HETATM   28  C   UNL     1      39.608 -11.020   9.072  1.00  0.00     0.010 A 
BRANCH  25  29
HETATM   29  O   UNL     1      43.761 -10.605   9.072  1.00  0.00    -0.353 OA
HETATM   30  C   UNL     1      44.539 -11.786   8.929  1.00  0.00     0.210 C 
ENDBRANCH  25  29
BRANCH  26  31
HETATM   31  O   UNL     1      42.455 -10.206  11.313  1.00  0.00    -0.353 OA
HETATM   32  C   UNL     1      42.499 -11.132  12.387  1.00  0.00     0.210 C 
ENDBRANCH  26  31
ENDBRANCH  22  23
ENDBRANCH  21  22
ENDBRANCH  18  21
ENDBRANCH   1  17
TORSDOF 8
ENDMDL
