MODEL 1
REMARK VINA RESULT:      -9.1      0.000      0.000
REMARK  8 active torsions:
REMARK  status: ('A' for Active; 'I' for Inactive)
REMARK    1  A    between atoms: O_2  and  C_3 
REMARK    2  A    between atoms: C_4  and  O_5 
REMARK    3  A    between atoms: C_6  and  O_7 
REMARK    4  A    between atoms: C_10  and  C_11 
REMARK    5  A    between atoms: C_11  and  N_12 
REMARK    6  A    between atoms: C_16  and  C_17 
REMARK       I    between atoms: C_17  and  N_18 
REMARK    7  A    between atoms: N_21  and  C_23 
REMARK    8  A    between atoms: C_23  and  C_24 
ROOT
HETATM    1  N   UNL     1      39.592 -10.481   7.057  1.00  0.00    -0.067 N 
HETATM    2  H   UNL     1      38.610 -10.194   6.941  1.00  0.00     0.280 HD
HETATM    3  C   UNL     1      40.277 -10.311   5.726  1.00  0.00     0.236 C 
HETATM    4  C   UNL     1      39.686 -11.267   4.690  1.00  0.00     0.042 C 
HETATM    5  C   UNL     1      39.763 -12.727   5.138  1.00  0.00     0.081 C 
HETATM    6  C   UNL     1      39.102 -12.876   6.517  1.00  0.00     0.042 C 
HETATM    7  C   UNL     1      39.606 -11.899   7.572  1.00  0.00     0.236 C 
ENDROOT
BRANCH   5   8
HETATM    8  C   UNL     1      41.228 -13.175   5.146  1.00  0.00     0.224 C 
HETATM    9  N   UNL     1      41.620 -14.263   4.364  1.00  0.00    -0.349 N 
HETATM   10  C   UNL     1      43.057 -14.579   4.405  1.00  0.00     0.153 C 
HETATM   11  C   UNL     1      40.734 -15.409   4.097  1.00  0.00     0.153 C 
HETATM   12  C   UNL     1      43.535 -15.426   3.220  1.00  0.00     0.255 C 
HETATM   13  N   UNL     1      42.686 -16.682   3.097  1.00  0.00    -0.064 N 
HETATM   14  H   UNL     1      42.815 -17.223   3.963  1.00  0.00     0.280 HD
HETATM   15  C   UNL     1      41.218 -16.326   2.953  1.00  0.00     0.255 C 
HETATM   16  O   UNL     1      42.065 -12.480   5.725  1.00  0.00    -0.273 OA
BRANCH  13  17
HETATM   17  C   UNL     1      43.133 -17.594   1.965  1.00  0.00     0.273 C 
BRANCH  17  18
HETATM   18  C   UNL     1      43.600 -18.949   2.427  1.00  0.00    -0.030 A 
HETATM   19  C   UNL     1      44.028 -19.122   3.756  1.00  0.00     0.048 A 
HETATM   20  C   UNL     1      44.396 -20.387   4.163  1.00  0.00     0.105 A 
HETATM   21  C   UNL     1      44.361 -21.462   3.310  1.00  0.00     0.105 A 
HETATM   22  O   UNL     1      44.812 -20.724   5.411  1.00  0.00    -0.323 OA
HETATM   23  O   UNL     1      44.757 -22.612   3.914  1.00  0.00    -0.323 OA
HETATM   24  C   UNL     1      43.959 -21.331   2.000  1.00  0.00     0.040 A 
HETATM   25  C   UNL     1      45.080 -22.136   5.239  1.00  0.00     0.352 A 
HETATM   26  C   UNL     1      43.573 -20.062   1.554  1.00  0.00     0.012 A 
ENDBRANCH  17  18
ENDBRANCH  13  17
ENDBRANCH   5   8
BRANCH   1  27
HETATM   27  C   UNL     1      40.170  -9.556   8.124  1.00  0.00     0.273 C 
BRANCH  27  28
HETATM   28  C   UNL     1      41.203 -10.211   8.999  1.00  0.00    -0.027 A 
HETATM   29  C   UNL     1      40.911 -10.479  10.343  1.00  0.00     0.048 A 
HETATM   30  C   UNL     1      41.873 -11.063  11.161  1.00  0.00     0.104 A 
HETATM   31  C   UNL     1      43.139 -11.354  10.656  1.00  0.00     0.133 A 
HETATM   32  C   UNL     1      43.454 -11.097   9.317  1.00  0.00     0.104 A 
HETATM   33  C   UNL     1      42.479 -10.531   8.491  1.00  0.00     0.048 A 
BRANCH  30  34
HETATM   34  O   UNL     1      41.568 -11.261  12.478  1.00  0.00    -0.353 OA
HETATM   35  C   UNL     1      40.213 -11.693  12.615  1.00  0.00     0.210 C 
ENDBRANCH  30  34
BRANCH  31  36
HETATM   36  O   UNL     1      44.084 -11.903  11.483  1.00  0.00    -0.356 OA
HETATM   37  H   UNL     1      44.833 -12.162  10.911  1.00  0.00     0.218 HD
ENDBRANCH  31  36
BRANCH  32  38
HETATM   38  O   UNL     1      44.731 -11.423   8.949  1.00  0.00    -0.353 OA
HETATM   39  C   UNL     1      44.946 -12.708   8.378  1.00  0.00     0.210 C 
ENDBRANCH  32  38
ENDBRANCH  27  28
ENDBRANCH   1  27
TORSDOF 8
ENDMDL
MODEL 2
REMARK VINA RESULT:      -9.0      0.219      2.035
REMARK  8 active torsions:
REMARK  status: ('A' for Active; 'I' for Inactive)
REMARK    1  A    between atoms: O_2  and  C_3 
REMARK    2  A    between atoms: C_4  and  O_5 
REMARK    3  A    between atoms: C_6  and  O_7 
REMARK    4  A    between atoms: C_10  and  C_11 
REMARK    5  A    between atoms: C_11  and  N_12 
REMARK    6  A    between atoms: C_16  and  C_17 
REMARK       I    between atoms: C_17  and  N_18 
REMARK    7  A    between atoms: N_21  and  C_23 
REMARK    8  A    between atoms: C_23  and  C_24 
ROOT
HETATM    1  N   UNL     1      39.668 -10.462   6.828  1.00  0.00    -0.067 N 
HETATM    2  H   UNL     1      38.673 -10.212   6.745  1.00  0.00     0.280 HD
HETATM    3  C   UNL     1      40.271 -10.398   5.448  1.00  0.00     0.236 C 
HETATM    4  C   UNL     1      39.651 -11.459   4.539  1.00  0.00     0.042 C 
HETATM    5  C   UNL     1      39.797 -12.870   5.111  1.00  0.00     0.081 C 
HETATM    6  C   UNL     1      39.221 -12.908   6.534  1.00  0.00     0.042 C 
HETATM    7  C   UNL     1      39.755 -11.826   7.466  1.00  0.00     0.236 C 
ENDROOT
BRANCH   5   8
HETATM    8  C   UNL     1      41.273 -13.279   5.072  1.00  0.00     0.224 C 
HETATM    9  N   UNL     1      41.664 -14.375   4.301  1.00  0.00    -0.349 N 
HETATM   10  C   UNL     1      43.110 -14.652   4.293  1.00  0.00     0.153 C 
HETATM   11  C   UNL     1      40.801 -15.550   4.097  1.00  0.00     0.153 C 
HETATM   12  C   UNL     1      43.564 -15.515   3.111  1.00  0.00     0.255 C 
HETATM   13  N   UNL     1      42.746 -16.796   3.052  1.00  0.00    -0.064 N 
HETATM   14  H   UNL     1      42.923 -17.311   3.925  1.00  0.00     0.280 HD
HETATM   15  C   UNL     1      41.264 -16.482   2.957  1.00  0.00     0.255 C 
HETATM   16  O   UNL     1      42.113 -12.547   5.600  1.00  0.00    -0.273 OA
BRANCH  13  17
HETATM   17  C   UNL     1      43.174 -17.724   1.925  1.00  0.00     0.273 C 
BRANCH  17  18
HETATM   18  C   UNL     1      43.635 -19.077   2.397  1.00  0.00    -0.030 A 
HETATM   19  C   UNL     1      44.069 -19.241   3.726  1.00  0.00     0.048 A 
HETATM   20  C   UNL     1      44.432 -20.503   4.143  1.00  0.00     0.105 A 
HETATM   21  C   UNL     1      44.388 -21.586   3.300  1.00  0.00     0.105 A 
HETATM   22  O   UNL     1      44.850 -20.832   5.392  1.00  0.00    -0.323 OA
HETATM   23  O   UNL     1      44.780 -22.732   3.911  1.00  0.00    -0.323 OA
HETATM   24  C   UNL     1      43.981 -21.464   1.989  1.00  0.00     0.040 A 
HETATM   25  C   UNL     1      45.111 -22.246   5.231  1.00  0.00     0.352 A 
HETATM   26  C   UNL     1      43.600 -20.197   1.534  1.00  0.00     0.012 A 
ENDBRANCH  17  18
ENDBRANCH  13  17
ENDBRANCH   5   8
BRANCH   1  27
HETATM   27  C   UNL     1      40.278  -9.429   7.771  1.00  0.00     0.273 C 
BRANCH  27  28
HETATM   28  C   UNL     1      41.216 -10.018   8.788  1.00  0.00    -0.027 A 
HETATM   29  C   UNL     1      42.497 -10.431   8.401  1.00  0.00     0.048 A 
HETATM   30  C   UNL     1      43.358 -10.998   9.335  1.00  0.00     0.104 A 
HETATM   31  C   UNL     1      42.939 -11.187  10.651  1.00  0.00     0.133 A 
HETATM   32  C   UNL     1      41.665 -10.780  11.062  1.00  0.00     0.104 A 
HETATM   33  C   UNL     1      40.809 -10.190  10.128  1.00  0.00     0.048 A 
BRANCH  30  34
HETATM   34  O   UNL     1      44.580 -11.437   8.907  1.00  0.00    -0.353 OA
HETATM   35  C   UNL     1      44.460 -12.726   8.302  1.00  0.00     0.210 C 
ENDBRANCH  30  34
BRANCH  31  36
HETATM   36  O   UNL     1      43.789 -11.773  11.551  1.00  0.00    -0.356 OA
HETATM   37  H   UNL     1      44.430 -12.291  11.027  1.00  0.00     0.218 HD
ENDBRANCH  31  36
BRANCH  32  38
HETATM   38  O   UNL     1      41.375 -11.027  12.377  1.00  0.00    -0.353 OA
HETATM   39  C   UNL     1      40.222 -11.809  12.663  1.00  0.00     0.210 C 
ENDBRANCH  32  38
ENDBRANCH  27  28
ENDBRANCH   1  27
TORSDOF 8
ENDMDL
MODEL 3
REMARK VINA RESULT:      -8.6      1.478      9.477
REMARK  8 active torsions:
REMARK  status: ('A' for Active; 'I' for Inactive)
REMARK    1  A    between atoms: O_2  and  C_3 
REMARK    2  A    between atoms: C_4  and  O_5 
REMARK    3  A    between atoms: C_6  and  O_7 
REMARK    4  A    between atoms: C_10  and  C_11 
REMARK    5  A    between atoms: C_11  and  N_12 
REMARK    6  A    between atoms: C_16  and  C_17 
REMARK       I    between atoms: C_17  and  N_18 
REMARK    7  A    between atoms: N_21  and  C_23 
REMARK    8  A    between atoms: C_23  and  C_24 
ROOT
HETATM    1  N   UNL     1      41.964 -16.294   3.627  1.00  0.00    -0.067 N 
HETATM    2  H   UNL     1      41.475 -17.169   3.862  1.00  0.00     0.280 HD
HETATM    3  C   UNL     1      41.942 -15.417   4.852  1.00  0.00     0.236 C 
HETATM    4  C   UNL     1      40.509 -15.010   5.198  1.00  0.00     0.042 C 
HETATM    5  C   UNL     1      39.808 -14.307   4.034  1.00  0.00     0.081 C 
HETATM    6  C   UNL     1      39.881 -15.192   2.782  1.00  0.00     0.042 C 
HETATM    7  C   UNL     1      41.280 -15.683   2.429  1.00  0.00     0.236 C 
ENDROOT
BRANCH   5   8
HETATM    8  C   UNL     1      40.455 -12.935   3.813  1.00  0.00     0.224 C 
HETATM    9  N   UNL     1      40.442 -11.994   4.844  1.00  0.00    -0.349 N 
HETATM   10  C   UNL     1      41.134 -10.729   4.545  1.00  0.00     0.153 C 
HETATM   11  C   UNL     1      39.338 -11.890   5.811  1.00  0.00     0.153 C 
HETATM   12  C   UNL     1      41.521  -9.929   5.794  1.00  0.00     0.255 C 
HETATM   13  N   UNL     1      40.300  -9.709   6.675  1.00  0.00    -0.064 N 
HETATM   14  H   UNL     1      39.625  -9.160   6.127  1.00  0.00     0.280 HD
HETATM   15  C   UNL     1      39.666 -11.035   7.053  1.00  0.00     0.255 C 
HETATM   16  O   UNL     1      41.105 -12.737   2.785  1.00  0.00    -0.273 OA
BRANCH  13  17
HETATM   17  C   UNL     1      40.603  -8.882   7.915  1.00  0.00     0.273 C 
BRANCH  17  18
HETATM   18  C   UNL     1      41.140  -9.691   9.065  1.00  0.00    -0.030 A 
HETATM   19  C   UNL     1      42.419 -10.270   8.973  1.00  0.00     0.048 A 
HETATM   20  C   UNL     1      42.905 -10.957  10.064  1.00  0.00     0.105 A 
HETATM   21  C   UNL     1      42.175 -11.093  11.219  1.00  0.00     0.105 A 
HETATM   22  O   UNL     1      44.122 -11.553  10.144  1.00  0.00    -0.323 OA
HETATM   23  O   UNL     1      42.839 -11.799  12.169  1.00  0.00    -0.323 OA
HETATM   24  C   UNL     1      40.915 -10.552  11.344  1.00  0.00     0.040 A 
HETATM   25  C   UNL     1      44.062 -12.124  11.472  1.00  0.00     0.352 A 
HETATM   26  C   UNL     1      40.393  -9.842  10.257  1.00  0.00     0.012 A 
ENDBRANCH  17  18
ENDBRANCH  13  17
ENDBRANCH   5   8
BRANCH   1  27
HETATM   27  C   UNL     1      43.382 -16.703   3.239  1.00  0.00     0.273 C 
BRANCH  27  28
HETATM   28  C   UNL     1      43.768 -18.075   3.714  1.00  0.00    -0.027 A 
HETATM   29  C   UNL     1      43.801 -18.355   5.087  1.00  0.00     0.048 A 
HETATM   30  C   UNL     1      44.182 -19.617   5.531  1.00  0.00     0.104 A 
HETATM   31  C   UNL     1      44.562 -20.598   4.616  1.00  0.00     0.133 A 
HETATM   32  C   UNL     1      44.536 -20.343   3.241  1.00  0.00     0.104 A 
HETATM   33  C   UNL     1      44.132 -19.081   2.795  1.00  0.00     0.048 A 
BRANCH  30  34
HETATM   34  O   UNL     1      44.252 -19.835   6.879  1.00  0.00    -0.353 OA
HETATM   35  C   UNL     1      43.797 -18.684   7.592  1.00  0.00     0.210 C 
ENDBRANCH  30  34
BRANCH  31  36
HETATM   36  O   UNL     1      44.962 -21.826   5.072  1.00  0.00    -0.356 OA
HETATM   37  H   UNL     1      44.412 -22.021   5.855  1.00  0.00     0.218 HD
ENDBRANCH  31  36
BRANCH  32  38
HETATM   38  O   UNL     1      44.939 -21.386   2.450  1.00  0.00    -0.353 OA
HETATM   39  C   UNL     1      44.005 -21.898   1.508  1.00  0.00     0.210 C 
ENDBRANCH  32  38
ENDBRANCH  27  28
ENDBRANCH   1  27
TORSDOF 8
ENDMDL
MODEL 4
REMARK VINA RESULT:      -8.5      5.655      9.201
REMARK  8 active torsions:
REMARK  status: ('A' for Active; 'I' for Inactive)
REMARK    1  A    between atoms: O_2  and  C_3 
REMARK    2  A    between atoms: C_4  and  O_5 
REMARK    3  A    between atoms: C_6  and  O_7 
REMARK    4  A    between atoms: C_10  and  C_11 
REMARK    5  A    between atoms: C_11  and  N_12 
REMARK    6  A    between atoms: C_16  and  C_17 
REMARK       I    between atoms: C_17  and  N_18 
REMARK    7  A    between atoms: N_21  and  C_23 
REMARK    8  A    between atoms: C_23  and  C_24 
ROOT
HETATM    1  N   UNL     1      38.618 -11.067  -0.711  1.00  0.00    -0.067 N 
HETATM    2  H   UNL     1      38.448 -10.090  -0.433  1.00  0.00     0.280 HD
HETATM    3  C   UNL     1      37.517 -11.907  -0.119  1.00  0.00     0.236 C 
HETATM    4  C   UNL     1      37.588 -11.892   1.408  1.00  0.00     0.042 C 
HETATM    5  C   UNL     1      38.947 -12.362   1.930  1.00  0.00     0.081 C 
HETATM    6  C   UNL     1      40.062 -11.527   1.282  1.00  0.00     0.042 C 
HETATM    7  C   UNL     1      39.998 -11.452  -0.239  1.00  0.00     0.236 C 
ENDROOT
BRANCH   5   8
HETATM    8  C   UNL     1      39.105 -13.859   1.646  1.00  0.00     0.224 C 
HETATM    9  N   UNL     1      40.165 -14.561   2.223  1.00  0.00    -0.349 N 
HETATM   10  C   UNL     1      40.196 -16.003   1.926  1.00  0.00     0.153 C 
HETATM   11  C   UNL     1      41.477 -13.947   2.480  1.00  0.00     0.153 C 
HETATM   12  C   UNL     1      41.040 -16.816   2.914  1.00  0.00     0.255 C 
HETATM   13  N   UNL     1      42.441 -16.232   3.011  1.00  0.00    -0.064 N 
HETATM   14  H   UNL     1      42.866 -16.302   2.077  1.00  0.00     0.280 HD
HETATM   15  C   UNL     1      42.386 -14.770   3.419  1.00  0.00     0.255 C 
HETATM   16  O   UNL     1      38.213 -14.452   1.036  1.00  0.00    -0.273 OA
BRANCH  13  17
HETATM   17  C   UNL     1      43.351 -17.017   3.944  1.00  0.00     0.273 C 
BRANCH  17  18
HETATM   18  C   UNL     1      43.660 -18.408   3.458  1.00  0.00    -0.030 A 
HETATM   19  C   UNL     1      44.103 -19.383   4.371  1.00  0.00     0.048 A 
HETATM   20  C   UNL     1      44.324 -20.660   3.904  1.00  0.00     0.105 A 
HETATM   21  C   UNL     1      44.131 -20.995   2.587  1.00  0.00     0.105 A 
HETATM   22  O   UNL     1      44.731 -21.715   4.656  1.00  0.00    -0.323 OA
HETATM   23  O   UNL     1      44.399 -22.303   2.343  1.00  0.00    -0.323 OA
HETATM   24  C   UNL     1      43.709 -20.067   1.661  1.00  0.00     0.040 A 
HETATM   25  C   UNL     1      44.818 -22.752   3.651  1.00  0.00     0.352 A 
HETATM   26  C   UNL     1      43.470 -18.761   2.101  1.00  0.00     0.012 A 
ENDBRANCH  17  18
ENDBRANCH  13  17
ENDBRANCH   5   8
BRANCH   1  27
HETATM   27  C   UNL     1      38.591 -11.075  -2.237  1.00  0.00     0.273 C 
BRANCH  27  28
HETATM   28  C   UNL     1      38.516 -12.453  -2.833  1.00  0.00    -0.027 A 
HETATM   29  C   UNL     1      39.676 -13.231  -2.944  1.00  0.00     0.048 A 
HETATM   30  C   UNL     1      39.615 -14.496  -3.517  1.00  0.00     0.104 A 
HETATM   31  C   UNL     1      38.406 -14.983  -4.013  1.00  0.00     0.133 A 
HETATM   32  C   UNL     1      37.234 -14.226  -3.913  1.00  0.00     0.104 A 
HETATM   33  C   UNL     1      37.293 -12.963  -3.316  1.00  0.00     0.048 A 
BRANCH  30  34
HETATM   34  O   UNL     1      40.777 -15.203  -3.655  1.00  0.00    -0.353 OA
HETATM   35  C   UNL     1      41.123 -15.834  -2.420  1.00  0.00     0.210 C 
ENDBRANCH  30  34
BRANCH  31  36
HETATM   36  O   UNL     1      38.368 -16.220  -4.601  1.00  0.00    -0.356 OA
HETATM   37  H   UNL     1      39.297 -16.501  -4.710  1.00  0.00     0.218 HD
ENDBRANCH  31  36
BRANCH  32  38
HETATM   38  O   UNL     1      36.117 -14.815  -4.443  1.00  0.00    -0.353 OA
HETATM   39  C   UNL     1      35.321 -14.039  -5.331  1.00  0.00     0.210 C 
ENDBRANCH  32  38
ENDBRANCH  27  28
ENDBRANCH   1  27
TORSDOF 8
ENDMDL
MODEL 5
REMARK VINA RESULT:      -8.5      4.313      7.349
REMARK  8 active torsions:
REMARK  status: ('A' for Active; 'I' for Inactive)
REMARK    1  A    between atoms: O_2  and  C_3 
REMARK    2  A    between atoms: C_4  and  O_5 
REMARK    3  A    between atoms: C_6  and  O_7 
REMARK    4  A    between atoms: C_10  and  C_11 
REMARK    5  A    between atoms: C_11  and  N_12 
REMARK    6  A    between atoms: C_16  and  C_17 
REMARK       I    between atoms: C_17  and  N_18 
REMARK    7  A    between atoms: N_21  and  C_23 
REMARK    8  A    between atoms: C_23  and  C_24 
ROOT
HETATM    1  N   UNL     1      38.798 -11.978   1.388  1.00  0.00    -0.067 N 
HETATM    2  H   UNL     1      37.784 -11.947   1.562  1.00  0.00     0.280 HD
HETATM    3  C   UNL     1      39.215 -13.426   1.376  1.00  0.00     0.236 C 
HETATM    4  C   UNL     1      39.012 -14.057   2.754  1.00  0.00     0.042 C 
HETATM    5  C   UNL     1      39.761 -13.302   3.854  1.00  0.00     0.081 C 
HETATM    6  C   UNL     1      39.361 -11.820   3.822  1.00  0.00     0.042 C 
HETATM    7  C   UNL     1      39.480 -11.157   2.455  1.00  0.00     0.236 C 
ENDROOT
BRANCH   5   8
HETATM    8  C   UNL     1      41.268 -13.500   3.663  1.00  0.00     0.224 C 
HETATM    9  N   UNL     1      41.744 -14.704   3.141  1.00  0.00    -0.349 N 
HETATM   10  C   UNL     1      43.202 -14.772   2.950  1.00  0.00     0.153 C 
HETATM   11  C   UNL     1      41.085 -15.996   3.396  1.00  0.00     0.153 C 
HETATM   12  C   UNL     1      43.644 -15.861   1.967  1.00  0.00     0.255 C 
HETATM   13  N   UNL     1      43.067 -17.207   2.379  1.00  0.00    -0.064 N 
HETATM   14  H   UNL     1      43.446 -17.428   3.310  1.00  0.00     0.280 HD
HETATM   15  C   UNL     1      41.553 -17.137   2.468  1.00  0.00     0.255 C 
HETATM   16  O   UNL     1      42.026 -12.543   3.832  1.00  0.00    -0.273 OA
BRANCH  13  17
HETATM   17  C   UNL     1      43.502 -18.345   1.469  1.00  0.00     0.273 C 
BRANCH  17  18
HETATM   18  C   UNL     1      43.883 -19.600   2.209  1.00  0.00    -0.030 A 
HETATM   19  C   UNL     1      44.164 -19.538   3.586  1.00  0.00     0.048 A 
HETATM   20  C   UNL     1      44.455 -20.713   4.245  1.00  0.00     0.105 A 
HETATM   21  C   UNL     1      44.483 -21.922   3.595  1.00  0.00     0.105 A 
HETATM   22  O   UNL     1      44.728 -20.828   5.571  1.00  0.00    -0.323 OA
HETATM   23  O   UNL     1      44.784 -22.950   4.430  1.00  0.00    -0.323 OA
HETATM   24  C   UNL     1      44.225 -22.022   2.246  1.00  0.00     0.040 A 
HETATM   25  C   UNL     1      44.977 -22.249   5.678  1.00  0.00     0.352 A 
HETATM   26  C   UNL     1      43.920 -20.849   1.547  1.00  0.00     0.012 A 
ENDBRANCH  17  18
ENDBRANCH  13  17
ENDBRANCH   5   8
BRANCH   1  27
HETATM   27  C   UNL     1      39.008 -11.308   0.033  1.00  0.00     0.273 C 
BRANCH  27  28
HETATM   28  C   UNL     1      40.165 -11.867  -0.747  1.00  0.00    -0.027 A 
HETATM   29  C   UNL     1      41.444 -11.317  -0.588  1.00  0.00     0.048 A 
HETATM   30  C   UNL     1      42.513 -11.816  -1.326  1.00  0.00     0.104 A 
HETATM   31  C   UNL     1      42.310 -12.842  -2.248  1.00  0.00     0.133 A 
HETATM   32  C   UNL     1      41.043 -13.408  -2.422  1.00  0.00     0.104 A 
HETATM   33  C   UNL     1      39.975 -12.921  -1.665  1.00  0.00     0.048 A 
BRANCH  30  34
HETATM   34  O   UNL     1      43.734 -11.218  -1.182  1.00  0.00    -0.353 OA
HETATM   35  C   UNL     1      43.576  -9.820  -0.933  1.00  0.00     0.210 C 
ENDBRANCH  30  34
BRANCH  31  36
HETATM   36  O   UNL     1      43.368 -13.302  -2.987  1.00  0.00    -0.356 OA
HETATM   37  H   UNL     1      43.564 -12.610  -3.648  1.00  0.00     0.218 HD
ENDBRANCH  31  36
BRANCH  32  38
HETATM   38  O   UNL     1      40.977 -14.402  -3.361  1.00  0.00    -0.353 OA
HETATM   39  C   UNL     1      40.550 -15.689  -2.931  1.00  0.00     0.210 C 
ENDBRANCH  32  38
ENDBRANCH  27  28
ENDBRANCH   1  27
TORSDOF 8
ENDMDL
MODEL 6
REMARK VINA RESULT:      -8.4      2.456     10.778
REMARK  8 active torsions:
REMARK  status: ('A' for Active; 'I' for Inactive)
REMARK    1  A    between atoms: O_2  and  C_3 
REMARK    2  A    between atoms: C_4  and  O_5 
REMARK    3  A    between atoms: C_6  and  O_7 
REMARK    4  A    between atoms: C_10  and  C_11 
REMARK    5  A    between atoms: C_11  and  N_12 
REMARK    6  A    between atoms: C_16  and  C_17 
REMARK       I    between atoms: C_17  and  N_18 
REMARK    7  A    between atoms: N_21  and  C_23 
REMARK    8  A    between atoms: C_23  and  C_24 
ROOT
HETATM    1  N   UNL     1      41.263 -15.313   4.925  1.00  0.00    -0.067 N 
HETATM    2  H   UNL     1      41.813 -15.388   4.057  1.00  0.00     0.280 HD
HETATM    3  C   UNL     1      39.945 -14.672   4.575  1.00  0.00     0.236 C 
HETATM    4  C   UNL     1      40.154 -13.237   4.093  1.00  0.00     0.042 C 
HETATM    5  C   UNL     1      40.899 -12.382   5.120  1.00  0.00     0.081 C 
HETATM    6  C   UNL     1      42.217 -13.072   5.501  1.00  0.00     0.042 C 
HETATM    7  C   UNL     1      42.074 -14.528   5.925  1.00  0.00     0.236 C 
ENDROOT
BRANCH   5   8
HETATM    8  C   UNL     1      39.993 -12.152   6.334  1.00  0.00     0.224 C 
HETATM    9  N   UNL     1      40.362 -11.214   7.301  1.00  0.00    -0.349 N 
HETATM   10  C   UNL     1      39.398 -11.035   8.399  1.00  0.00     0.153 C 
HETATM   11  C   UNL     1      41.766 -10.944   7.649  1.00  0.00     0.153 C 
HETATM   12  C   UNL     1      39.571  -9.715   9.158  1.00  0.00     0.255 C 
HETATM   13  N   UNL     1      41.006  -9.570   9.640  1.00  0.00    -0.064 N 
HETATM   14  H   UNL     1      41.191 -10.349  10.286  1.00  0.00     0.280 HD
HETATM   15  C   UNL     1      41.974  -9.656   8.474  1.00  0.00     0.255 C 
HETATM   16  O   UNL     1      38.883 -12.688   6.366  1.00  0.00    -0.273 OA
BRANCH  13  17
HETATM   17  C   UNL     1      41.240  -8.299  10.442  1.00  0.00     0.273 C 
BRANCH  17  18
HETATM   18  C   UNL     1      41.643  -8.550  11.871  1.00  0.00    -0.030 A 
HETATM   19  C   UNL     1      40.745  -8.248  12.911  1.00  0.00     0.048 A 
HETATM   20  C   UNL     1      41.123  -8.542  14.204  1.00  0.00     0.105 A 
HETATM   21  C   UNL     1      42.340  -9.106  14.493  1.00  0.00     0.105 A 
HETATM   22  O   UNL     1      40.368  -8.333  15.313  1.00  0.00    -0.323 OA
HETATM   23  O   UNL     1      42.507  -9.317  15.824  1.00  0.00    -0.323 OA
HETATM   24  C   UNL     1      43.251  -9.405  13.504  1.00  0.00     0.040 A 
HETATM   25  C   UNL     1      41.269  -8.791  16.349  1.00  0.00     0.352 A 
HETATM   26  C   UNL     1      42.897  -9.125  12.179  1.00  0.00     0.012 A 
ENDBRANCH  17  18
ENDBRANCH  13  17
ENDBRANCH   5   8
BRANCH   1  27
HETATM   27  C   UNL     1      41.091 -16.742   5.432  1.00  0.00     0.273 C 
BRANCH  27  28
HETATM   28  C   UNL     1      42.102 -17.707   4.878  1.00  0.00    -0.027 A 
HETATM   29  C   UNL     1      42.844 -18.517   5.748  1.00  0.00     0.048 A 
HETATM   30  C   UNL     1      43.798 -19.393   5.241  1.00  0.00     0.104 A 
HETATM   31  C   UNL     1      44.042 -19.446   3.869  1.00  0.00     0.133 A 
HETATM   32  C   UNL     1      43.314 -18.648   2.980  1.00  0.00     0.104 A 
HETATM   33  C   UNL     1      42.340 -17.784   3.490  1.00  0.00     0.048 A 
BRANCH  30  34
HETATM   34  O   UNL     1      44.537 -20.128   6.125  1.00  0.00    -0.353 OA
HETATM   35  C   UNL     1      43.685 -20.969   6.905  1.00  0.00     0.210 C 
ENDBRANCH  30  34
BRANCH  31  36
HETATM   36  O   UNL     1      45.005 -20.294   3.389  1.00  0.00    -0.356 OA
HETATM   37  H   UNL     1      45.465 -20.658   4.170  1.00  0.00     0.218 HD
ENDBRANCH  31  36
BRANCH  32  38
HETATM   38  O   UNL     1      43.654 -18.791   1.662  1.00  0.00    -0.353 OA
HETATM   39  C   UNL     1      43.655 -17.622   0.851  1.00  0.00     0.210 C 
ENDBRANCH  32  38
ENDBRANCH  27  28
ENDBRANCH   1  27
TORSDOF 8
ENDMDL
MODEL 7
REMARK VINA RESULT:      -8.4      1.498      9.511
REMARK  8 active torsions:
REMARK  status: ('A' for Active; 'I' for Inactive)
REMARK    1  A    between atoms: O_2  and  C_3 
REMARK    2  A    between atoms: C_4  and  O_5 
REMARK    3  A    between atoms: C_6  and  O_7 
REMARK    4  A    between atoms: C_10  and  C_11 
REMARK    5  A    between atoms: C_11  and  N_12 
REMARK    6  A    between atoms: C_16  and  C_17 
REMARK       I    between atoms: C_17  and  N_18 
REMARK    7  A    between atoms: N_21  and  C_23 
REMARK    8  A    between atoms: C_23  and  C_24 
ROOT
HETATM    1  N   UNL     1      41.970 -16.453   3.359  1.00  0.00    -0.067 N 
HETATM    2  H   UNL     1      41.455 -17.332   3.511  1.00  0.00     0.280 HD
HETATM    3  C   UNL     1      41.790 -15.601   4.588  1.00  0.00     0.236 C 
HETATM    4  C   UNL     1      40.324 -15.199   4.756  1.00  0.00     0.042 C 
HETATM    5  C   UNL     1      39.778 -14.471   3.526  1.00  0.00     0.081 C 
HETATM    6  C   UNL     1      40.011 -15.331   2.276  1.00  0.00     0.042 C 
HETATM    7  C   UNL     1      41.444 -15.817   2.096  1.00  0.00     0.236 C 
ENDROOT
BRANCH   5   8
HETATM    8  C   UNL     1      40.446 -13.097   3.417  1.00  0.00     0.224 C 
HETATM    9  N   UNL     1      40.320 -12.185   4.467  1.00  0.00    -0.349 N 
HETATM   10  C   UNL     1      41.042 -10.915   4.283  1.00  0.00     0.153 C 
HETATM   11  C   UNL     1      39.115 -12.104   5.308  1.00  0.00     0.153 C 
HETATM   12  C   UNL     1      41.288 -10.153   5.590  1.00  0.00     0.255 C 
HETATM   13  N   UNL     1      39.978  -9.952   6.336  1.00  0.00    -0.064 N 
HETATM   14  H   UNL     1      39.368  -9.385   5.733  1.00  0.00     0.280 HD
HETATM   15  C   UNL     1      39.304 -11.286   6.604  1.00  0.00     0.255 C 
HETATM   16  O   UNL     1      41.207 -12.871   2.474  1.00  0.00    -0.273 OA
BRANCH  13  17
HETATM   17  C   UNL     1      40.142  -9.162   7.625  1.00  0.00     0.273 C 
BRANCH  17  18
HETATM   18  C   UNL     1      40.937  -9.884   8.680  1.00  0.00    -0.030 A 
HETATM   19  C   UNL     1      42.332 -10.002   8.543  1.00  0.00     0.048 A 
HETATM   20  C   UNL     1      43.037 -10.620   9.554  1.00  0.00     0.105 A 
HETATM   21  C   UNL     1      42.415 -11.121  10.670  1.00  0.00     0.105 A 
HETATM   22  O   UNL     1      44.383 -10.795   9.584  1.00  0.00    -0.323 OA
HETATM   23  O   UNL     1      43.292 -11.681  11.541  1.00  0.00    -0.323 OA
HETATM   24  C   UNL     1      41.050 -11.036  10.836  1.00  0.00     0.040 A 
HETATM   25  C   UNL     1      44.539 -11.508  10.833  1.00  0.00     0.352 A 
HETATM   26  C   UNL     1      40.304 -10.410   9.831  1.00  0.00     0.012 A 
ENDBRANCH  17  18
ENDBRANCH  13  17
ENDBRANCH   5   8
BRANCH   1  27
HETATM   27  C   UNL     1      43.426 -16.857   3.146  1.00  0.00     0.273 C 
BRANCH  27  28
HETATM   28  C   UNL     1      43.799 -18.152   3.811  1.00  0.00    -0.027 A 
HETATM   29  C   UNL     1      44.143 -19.264   3.031  1.00  0.00     0.048 A 
HETATM   30  C   UNL     1      44.465 -20.471   3.642  1.00  0.00     0.104 A 
HETATM   31  C   UNL     1      44.416 -20.589   5.030  1.00  0.00     0.133 A 
HETATM   32  C   UNL     1      44.076 -19.493   5.831  1.00  0.00     0.104 A 
HETATM   33  C   UNL     1      43.775 -18.275   5.216  1.00  0.00     0.048 A 
BRANCH  30  34
HETATM   34  O   UNL     1      44.745 -21.546   2.845  1.00  0.00    -0.353 OA
HETATM   35  C   UNL     1      43.785 -21.646   1.792  1.00  0.00     0.210 C 
ENDBRANCH  30  34
BRANCH  31  36
HETATM   36  O   UNL     1      44.708 -21.793   5.615  1.00  0.00    -0.356 OA
HETATM   37  H   UNL     1      45.638 -21.737   5.911  1.00  0.00     0.218 HD
ENDBRANCH  31  36
BRANCH  32  38
HETATM   38  O   UNL     1      44.059 -19.742   7.177  1.00  0.00    -0.353 OA
HETATM   39  C   UNL     1      44.181 -18.631   8.055  1.00  0.00     0.210 C 
ENDBRANCH  32  38
ENDBRANCH  27  28
ENDBRANCH   1  27
TORSDOF 8
ENDMDL
MODEL 8
REMARK VINA RESULT:      -8.4      1.346      1.986
REMARK  8 active torsions:
REMARK  status: ('A' for Active; 'I' for Inactive)
REMARK    1  A    between atoms: O_2  and  C_3 
REMARK    2  A    between atoms: C_4  and  O_5 
REMARK    3  A    between atoms: C_6  and  O_7 
REMARK    4  A    between atoms: C_10  and  C_11 
REMARK    5  A    between atoms: C_11  and  N_12 
REMARK    6  A    between atoms: C_16  and  C_17 
REMARK       I    between atoms: C_17  and  N_18 
REMARK    7  A    between atoms: N_21  and  C_23 
REMARK    8  A    between atoms: C_23  and  C_24 
ROOT
HETATM    1  N   UNL     1      39.690 -10.387   6.830  1.00  0.00    -0.067 N 
HETATM    2  H   UNL     1      38.724 -10.295   7.175  1.00  0.00     0.280 HD
HETATM    3  C   UNL     1      39.703  -9.955   5.387  1.00  0.00     0.236 C 
HETATM    4  C   UNL     1      38.865 -10.905   4.531  1.00  0.00     0.042 C 
HETATM    5  C   UNL     1      39.333 -12.357   4.649  1.00  0.00     0.081 C 
HETATM    6  C   UNL     1      39.360 -12.768   6.129  1.00  0.00     0.042 C 
HETATM    7  C   UNL     1      40.126 -11.816   7.040  1.00  0.00     0.236 C 
ENDROOT
BRANCH   5   8
HETATM    8  C   UNL     1      40.706 -12.499   3.984  1.00  0.00     0.224 C 
HETATM    9  N   UNL     1      41.110 -13.743   3.496  1.00  0.00    -0.349 N 
HETATM   10  C   UNL     1      42.423 -13.759   2.831  1.00  0.00     0.153 C 
HETATM   11  C   UNL     1      40.714 -15.011   4.131  1.00  0.00     0.153 C 
HETATM   12  C   UNL     1      42.630 -14.967   1.910  1.00  0.00     0.255 C 
HETATM   13  N   UNL     1      42.369 -16.258   2.670  1.00  0.00    -0.064 N 
HETATM   14  H   UNL     1      43.055 -16.304   3.436  1.00  0.00     0.280 HD
HETATM   15  C   UNL     1      40.970 -16.259   3.260  1.00  0.00     0.255 C 
HETATM   16  O   UNL     1      41.370 -11.486   3.755  1.00  0.00    -0.273 OA
BRANCH  13  17
HETATM   17  C   UNL     1      42.600 -17.502   1.826  1.00  0.00     0.273 C 
BRANCH  17  18
HETATM   18  C   UNL     1      43.243 -18.634   2.582  1.00  0.00    -0.030 A 
HETATM   19  C   UNL     1      43.315 -19.911   1.995  1.00  0.00     0.048 A 
HETATM   20  C   UNL     1      43.960 -20.912   2.689  1.00  0.00     0.105 A 
HETATM   21  C   UNL     1      44.518 -20.695   3.925  1.00  0.00     0.105 A 
HETATM   22  O   UNL     1      44.133 -22.188   2.256  1.00  0.00    -0.323 OA
HETATM   23  O   UNL     1      45.107 -21.810   4.428  1.00  0.00    -0.323 OA
HETATM   24  C   UNL     1      44.458 -19.463   4.537  1.00  0.00     0.040 A 
HETATM   25  C   UNL     1      44.829 -22.769   3.384  1.00  0.00     0.352 A 
HETATM   26  C   UNL     1      43.816 -18.422   3.858  1.00  0.00     0.012 A 
ENDBRANCH  17  18
ENDBRANCH  13  17
ENDBRANCH   5   8
BRANCH   1  27
HETATM   27  C   UNL     1      40.535  -9.472   7.712  1.00  0.00     0.273 C 
BRANCH  27  28
HETATM   28  C   UNL     1      40.629  -9.927   9.142  1.00  0.00    -0.027 A 
HETATM   29  C   UNL     1      39.578  -9.663  10.030  1.00  0.00     0.048 A 
HETATM   30  C   UNL     1      39.671 -10.061  11.359  1.00  0.00     0.104 A 
HETATM   31  C   UNL     1      40.823 -10.696  11.821  1.00  0.00     0.133 A 
HETATM   32  C   UNL     1      41.886 -10.973  10.954  1.00  0.00     0.104 A 
HETATM   33  C   UNL     1      41.781 -10.592   9.613  1.00  0.00     0.048 A 
BRANCH  30  34
HETATM   34  O   UNL     1      38.648  -9.738  12.206  1.00  0.00    -0.353 OA
HETATM   35  C   UNL     1      37.644  -8.997  11.510  1.00  0.00     0.210 C 
ENDBRANCH  30  34
BRANCH  31  36
HETATM   36  O   UNL     1      40.911 -11.056  13.140  1.00  0.00    -0.356 OA
HETATM   37  H   UNL     1      40.539 -11.957  13.204  1.00  0.00     0.218 HD
ENDBRANCH  31  36
BRANCH  32  38
HETATM   38  O   UNL     1      42.960 -11.594  11.533  1.00  0.00    -0.353 OA
HETATM   39  C   UNL     1      44.033 -11.983  10.684  1.00  0.00     0.210 C 
ENDBRANCH  32  38
ENDBRANCH  27  28
ENDBRANCH   1  27
TORSDOF 8
ENDMDL
MODEL 9
REMARK VINA RESULT:      -8.4      5.456      9.024
REMARK  8 active torsions:
REMARK  status: ('A' for Active; 'I' for Inactive)
REMARK    1  A    between atoms: O_2  and  C_3 
REMARK    2  A    between atoms: C_4  and  O_5 
REMARK    3  A    between atoms: C_6  and  O_7 
REMARK    4  A    between atoms: C_10  and  C_11 
REMARK    5  A    between atoms: C_11  and  N_12 
REMARK    6  A    between atoms: C_16  and  C_17 
REMARK       I    between atoms: C_17  and  N_18 
REMARK    7  A    between atoms: N_21  and  C_23 
REMARK    8  A    between atoms: C_23  and  C_24 
ROOT
HETATM    1  N   UNL     1      38.478 -11.186  -0.823  1.00  0.00    -0.067 N 
HETATM    2  H   UNL     1      38.241 -10.208  -0.607  1.00  0.00     0.280 HD
HETATM    3  C   UNL     1      37.410 -12.059  -0.217  1.00  0.00     0.236 C 
HETATM    4  C   UNL     1      37.430 -11.956   1.308  1.00  0.00     0.042 C 
HETATM    5  C   UNL     1      38.797 -12.312   1.896  1.00  0.00     0.081 C 
HETATM    6  C   UNL     1      39.880 -11.447   1.235  1.00  0.00     0.042 C 
HETATM    7  C   UNL     1      39.862 -11.459  -0.289  1.00  0.00     0.236 C 
ENDROOT
BRANCH   5   8
HETATM    8  C   UNL     1      39.053 -13.810   1.701  1.00  0.00     0.224 C 
HETATM    9  N   UNL     1      40.119 -14.418   2.368  1.00  0.00    -0.349 N 
HETATM   10  C   UNL     1      40.246 -15.869   2.152  1.00  0.00     0.153 C 
HETATM   11  C   UNL     1      41.379 -13.715   2.657  1.00  0.00     0.153 C 
HETATM   12  C   UNL     1      41.082 -16.578   3.223  1.00  0.00     0.255 C 
HETATM   13  N   UNL     1      42.440 -15.908   3.359  1.00  0.00    -0.064 N 
HETATM   14  H   UNL     1      42.918 -16.001   2.452  1.00  0.00     0.280 HD
HETATM   15  C   UNL     1      42.281 -14.434   3.683  1.00  0.00     0.255 C 
HETATM   16  O   UNL     1      38.230 -14.485   1.080  1.00  0.00    -0.273 OA
BRANCH  13  17
HETATM   17  C   UNL     1      43.342 -16.590   4.377  1.00  0.00     0.273 C 
BRANCH  17  18
HETATM   18  C   UNL     1      43.731 -17.993   3.997  1.00  0.00    -0.030 A 
HETATM   19  C   UNL     1      44.044 -18.926   5.003  1.00  0.00     0.048 A 
HETATM   20  C   UNL     1      44.341 -20.218   4.625  1.00  0.00     0.105 A 
HETATM   21  C   UNL     1      44.347 -20.605   3.308  1.00  0.00     0.105 A 
HETATM   22  O   UNL     1      44.643 -21.237   5.469  1.00  0.00    -0.323 OA
HETATM   23  O   UNL     1      44.659 -21.917   3.158  1.00  0.00    -0.323 OA
HETATM   24  C   UNL     1      44.057 -19.719   2.294  1.00  0.00     0.040 A 
HETATM   25  C   UNL     1      44.885 -22.310   4.529  1.00  0.00     0.352 A 
HETATM   26  C   UNL     1      43.745 -18.400   2.643  1.00  0.00     0.012 A 
ENDBRANCH  17  18
ENDBRANCH  13  17
ENDBRANCH   5   8
BRANCH   1  27
HETATM   27  C   UNL     1      38.503 -11.279  -2.346  1.00  0.00     0.273 C 
BRANCH  27  28
HETATM   28  C   UNL     1      38.546 -12.689  -2.866  1.00  0.00    -0.027 A 
HETATM   29  C   UNL     1      37.454 -13.207  -3.574  1.00  0.00     0.048 A 
HETATM   30  C   UNL     1      37.480 -14.519  -4.035  1.00  0.00     0.104 A 
HETATM   31  C   UNL     1      38.579 -15.333  -3.767  1.00  0.00     0.133 A 
HETATM   32  C   UNL     1      39.683 -14.839  -3.063  1.00  0.00     0.104 A 
HETATM   33  C   UNL     1      39.664 -13.514  -2.620  1.00  0.00     0.048 A 
BRANCH  30  34
HETATM   34  O   UNL     1      36.375 -15.003  -4.677  1.00  0.00    -0.353 OA
HETATM   35  C   UNL     1      35.510 -13.929  -5.054  1.00  0.00     0.210 C 
ENDBRANCH  30  34
BRANCH  31  36
HETATM   36  O   UNL     1      38.578 -16.632  -4.204  1.00  0.00    -0.356 OA
HETATM   37  H   UNL     1      38.140 -17.157  -3.505  1.00  0.00     0.218 HD
ENDBRANCH  31  36
BRANCH  32  38
HETATM   38  O   UNL     1      40.692 -15.742  -2.861  1.00  0.00    -0.353 OA
HETATM   39  C   UNL     1      41.171 -15.910  -1.533  1.00  0.00     0.210 C 
ENDBRANCH  32  38
ENDBRANCH  27  28
ENDBRANCH   1  27
TORSDOF 8
ENDMDL
MODEL 10
REMARK VINA RESULT:      -8.3      5.454      8.484
REMARK  8 active torsions:
REMARK  status: ('A' for Active; 'I' for Inactive)
REMARK    1  A    between atoms: O_2  and  C_3 
REMARK    2  A    between atoms: C_4  and  O_5 
REMARK    3  A    between atoms: C_6  and  O_7 
REMARK    4  A    between atoms: C_10  and  C_11 
REMARK    5  A    between atoms: C_11  and  N_12 
REMARK    6  A    between atoms: C_16  and  C_17 
REMARK       I    between atoms: C_17  and  N_18 
REMARK    7  A    between atoms: N_21  and  C_23 
REMARK    8  A    between atoms: C_23  and  C_24 
ROOT
HETATM    1  N   UNL     1      37.742 -11.375  -0.823  1.00  0.00    -0.067 N 
HETATM    2  H   UNL     1      36.740 -11.154  -0.732  1.00  0.00     0.280 HD
HETATM    3  C   UNL     1      37.976 -12.711  -0.167  1.00  0.00     0.236 C 
HETATM    4  C   UNL     1      37.704 -12.629   1.336  1.00  0.00     0.042 C 
HETATM    5  C   UNL     1      38.548 -11.552   2.020  1.00  0.00     0.081 C 
HETATM    6  C   UNL     1      38.335 -10.207   1.311  1.00  0.00     0.042 C 
HETATM    7  C   UNL     1      38.526 -10.246  -0.200  1.00  0.00     0.236 C 
ENDROOT
BRANCH   5   8
HETATM    8  C   UNL     1      40.018 -11.985   2.013  1.00  0.00     0.224 C 
HETATM    9  N   UNL     1      40.336 -13.341   1.918  1.00  0.00    -0.349 N 
HETATM   10  C   UNL     1      41.776 -13.645   1.868  1.00  0.00     0.153 C 
HETATM   11  C   UNL     1      39.493 -14.397   2.502  1.00  0.00     0.153 C 
HETATM   12  C   UNL     1      42.092 -15.031   1.297  1.00  0.00     0.255 C 
HETATM   13  N   UNL     1      41.318 -16.100   2.053  1.00  0.00    -0.064 N 
HETATM   14  H   UNL     1      41.630 -16.066   3.033  1.00  0.00     0.280 HD
HETATM   15  C   UNL     1      39.827 -15.819   2.002  1.00  0.00     0.255 C 
HETATM   16  O   UNL     1      40.897 -11.124   1.941  1.00  0.00    -0.273 OA
BRANCH  13  17
HETATM   17  C   UNL     1      41.618 -17.509   1.567  1.00  0.00     0.273 C 
BRANCH  17  18
HETATM   18  C   UNL     1      42.555 -18.273   2.465  1.00  0.00    -0.030 A 
HETATM   19  C   UNL     1      42.449 -18.134   3.861  1.00  0.00     0.048 A 
HETATM   20  C   UNL     1      43.284 -18.889   4.656  1.00  0.00     0.105 A 
HETATM   21  C   UNL     1      44.207 -19.754   4.123  1.00  0.00     0.105 A 
HETATM   22  O   UNL     1      43.295 -18.887   6.014  1.00  0.00    -0.323 OA
HETATM   23  O   UNL     1      44.920 -20.402   5.079  1.00  0.00    -0.323 OA
HETATM   24  C   UNL     1      44.348 -19.910   2.762  1.00  0.00     0.040 A 
HETATM   25  C   UNL     1      44.367 -19.822   6.281  1.00  0.00     0.352 A 
HETATM   26  C   UNL     1      43.513 -19.162   1.925  1.00  0.00     0.012 A 
ENDBRANCH  17  18
ENDBRANCH  13  17
ENDBRANCH   5   8
BRANCH   1  27
HETATM   27  C   UNL     1      38.024 -11.413  -2.322  1.00  0.00     0.273 C 
BRANCH  27  28
HETATM   28  C   UNL     1      39.192 -12.282  -2.697  1.00  0.00    -0.027 A 
HETATM   29  C   UNL     1      38.973 -13.500  -3.355  1.00  0.00     0.048 A 
HETATM   30  C   UNL     1      40.049 -14.318  -3.681  1.00  0.00     0.104 A 
HETATM   31  C   UNL     1      41.345 -13.946  -3.327  1.00  0.00     0.133 A 
HETATM   32  C   UNL     1      41.589 -12.735  -2.672  1.00  0.00     0.104 A 
HETATM   33  C   UNL     1      40.509 -11.903  -2.364  1.00  0.00     0.048 A 
BRANCH  30  34
HETATM   34  O   UNL     1      39.791 -15.521  -4.276  1.00  0.00    -0.353 OA
HETATM   35  C   UNL     1      38.471 -15.963  -3.950  1.00  0.00     0.210 C 
ENDBRANCH  30  34
BRANCH  31  36
HETATM   36  O   UNL     1      42.391 -14.777  -3.631  1.00  0.00    -0.356 OA
HETATM   37  H   UNL     1      42.828 -14.394  -4.417  1.00  0.00     0.218 HD
ENDBRANCH  31  36
BRANCH  32  38
HETATM   38  O   UNL     1      42.903 -12.491  -2.375  1.00  0.00    -0.353 OA
HETATM   39  C   UNL     1      43.190 -11.433  -1.469  1.00  0.00     0.210 C 
ENDBRANCH  32  38
ENDBRANCH  27  28
ENDBRANCH   1  27
TORSDOF 8
ENDMDL
