MODEL 1
REMARK VINA RESULT:      -8.5      0.000      0.000
REMARK  5 active torsions:
REMARK  status: ('A' for Active; 'I' for Inactive)
REMARK    1  A    between atoms: C_6  and  O_7 
REMARK    2  A    between atoms: O_7  and  C_8 
REMARK    3  A    between atoms: C_8  and  C_9 
REMARK       I    between atoms: C_9  and  N_10 
REMARK    4  A    between atoms: N_10  and  N_11 
REMARK    5  A    between atoms: C_12  and  C_13 
ROOT
HETATM    1  C   UNL     1      44.827 -13.729   7.260  1.00  0.00     0.261 C 
HETATM    2  N   UNL     1      43.662 -14.427   6.976  1.00  0.00    -0.246 N 
HETATM    3  O   UNL     1      45.810 -13.659   6.522  1.00  0.00    -0.269 OA
HETATM    4  H   UNL     1      42.912 -14.453   7.661  1.00  0.00     0.192 HD
ENDROOT
BRANCH   2   5
HETATM    5  N   UNL     1      43.559 -15.100   5.794  1.00  0.00    -0.184 NA
HETATM    6  C   UNL     1      43.272 -16.357   5.859  1.00  0.00     0.152 C 
BRANCH   6   7
HETATM    7  C   UNL     1      43.140 -17.106   4.623  1.00  0.00     0.011 A 
HETATM    8  C   UNL     1      43.748 -18.357   4.278  1.00  0.00     0.004 A 
HETATM    9  C   UNL     1      43.317 -18.688   2.991  1.00  0.00     0.043 A 
HETATM   10  C   UNL     1      44.617 -19.251   4.940  1.00  0.00     0.014 A 
HETATM   11  C   UNL     1      43.710 -19.861   2.334  1.00  0.00     0.030 A 
HETATM   12  N   UNL     1      42.486 -17.677   2.567  1.00  0.00    -0.364 N 
HETATM   13  C   UNL     1      44.568 -20.727   3.013  1.00  0.00     0.002 A 
HETATM   14  C   UNL     1      45.017 -20.430   4.298  1.00  0.00     0.001 A 
HETATM   15  H   UNL     1      42.024 -17.650   1.668  1.00  0.00     0.165 HD
HETATM   16  C   UNL     1      42.370 -16.726   3.539  1.00  0.00     0.102 A 
ENDBRANCH   6   7
ENDBRANCH   2   5
BRANCH   1  17
HETATM   17  C   UNL     1      44.761 -12.934   8.559  1.00  0.00     0.280 C 
BRANCH  17  18
HETATM   18  O   UNL     1      43.915 -11.791   8.450  1.00  0.00    -0.342 OA
BRANCH  18  19
HETATM   19  C   UNL     1      43.715 -11.122   9.635  1.00  0.00     0.075 A 
HETATM   20  C   UNL     1      42.596 -10.278   9.707  1.00  0.00    -0.028 A 
HETATM   21  C   UNL     1      42.329  -9.592  10.905  1.00  0.00     0.016 A 
HETATM   22  C   UNL     1      41.646 -10.145   8.550  1.00  0.00     0.051 C 
HETATM   23  C   UNL     1      43.181  -9.709  12.011  1.00  0.00    -0.061 A 
HETATM   24  C   UNL     1      42.873  -9.007  13.300  1.00  0.00     0.048 C 
HETATM   25  C   UNL     1      44.304 -10.534  11.914  1.00  0.00     0.009 A 
HETATM   26  C   UNL     1      44.575 -11.228  10.733  1.00  0.00     0.038 A 
ENDBRANCH  18  19
ENDBRANCH  17  18
ENDBRANCH   1  17
TORSDOF 5
ENDMDL
MODEL 2
REMARK VINA RESULT:      -8.2      6.779      9.759
REMARK  5 active torsions:
REMARK  status: ('A' for Active; 'I' for Inactive)
REMARK    1  A    between atoms: C_6  and  O_7 
REMARK    2  A    between atoms: O_7  and  C_8 
REMARK    3  A    between atoms: C_8  and  C_9 
REMARK       I    between atoms: C_9  and  N_10 
REMARK    4  A    between atoms: N_10  and  N_11 
REMARK    5  A    between atoms: C_12  and  C_13 
ROOT
HETATM    1  C   UNL     1      41.149 -15.826   1.092  1.00  0.00     0.261 C 
HETATM    2  N   UNL     1      41.483 -15.837   2.439  1.00  0.00    -0.246 N 
HETATM    3  O   UNL     1      41.263 -16.780   0.324  1.00  0.00    -0.269 OA
HETATM    4  H   UNL     1      41.382 -14.989   2.989  1.00  0.00     0.192 HD
ENDROOT
BRANCH   2   5
HETATM    5  N   UNL     1      41.979 -16.980   2.992  1.00  0.00    -0.184 NA
HETATM    6  C   UNL     1      43.248 -17.012   3.233  1.00  0.00     0.152 C 
BRANCH   6   7
HETATM    7  C   UNL     1      43.813 -18.205   3.834  1.00  0.00     0.011 A 
HETATM    8  C   UNL     1      43.915 -19.517   3.266  1.00  0.00     0.004 A 
HETATM    9  C   UNL     1      44.542 -20.332   4.213  1.00  0.00     0.043 A 
HETATM   10  C   UNL     1      43.548 -20.093   2.032  1.00  0.00     0.014 A 
HETATM   11  C   UNL     1      44.816 -21.687   3.990  1.00  0.00     0.030 A 
HETATM   12  N   UNL     1      44.804 -19.551   5.314  1.00  0.00    -0.364 N 
HETATM   13  C   UNL     1      44.442 -22.230   2.759  1.00  0.00     0.002 A 
HETATM   14  C   UNL     1      43.817 -21.446   1.791  1.00  0.00     0.001 A 
HETATM   15  H   UNL     1      45.256 -19.877   6.158  1.00  0.00     0.165 HD
HETATM   16  C   UNL     1      44.374 -18.274   5.097  1.00  0.00     0.102 A 
ENDBRANCH   6   7
ENDBRANCH   2   5
BRANCH   1  17
HETATM   17  C   UNL     1      40.503 -14.522   0.636  1.00  0.00     0.280 C 
BRANCH  17  18
HETATM   18  O   UNL     1      40.856 -14.184  -0.704  1.00  0.00    -0.342 OA
BRANCH  18  19
HETATM   19  C   UNL     1      39.796 -14.165  -1.579  1.00  0.00     0.075 A 
HETATM   20  C   UNL     1      39.929 -14.921  -2.755  1.00  0.00    -0.028 A 
HETATM   21  C   UNL     1      38.863 -14.960  -3.671  1.00  0.00     0.016 A 
HETATM   22  C   UNL     1      41.161 -15.739  -3.018  1.00  0.00     0.051 C 
HETATM   23  C   UNL     1      37.691 -14.226  -3.448  1.00  0.00    -0.061 A 
HETATM   24  C   UNL     1      36.540 -14.299  -4.407  1.00  0.00     0.048 C 
HETATM   25  C   UNL     1      37.584 -13.458  -2.285  1.00  0.00     0.009 A 
HETATM   26  C   UNL     1      38.633 -13.420  -1.363  1.00  0.00     0.038 A 
ENDBRANCH  18  19
ENDBRANCH  17  18
ENDBRANCH   1  17
TORSDOF 5
ENDMDL
MODEL 3
REMARK VINA RESULT:      -8.2      1.378      2.285
REMARK  5 active torsions:
REMARK  status: ('A' for Active; 'I' for Inactive)
REMARK    1  A    between atoms: C_6  and  O_7 
REMARK    2  A    between atoms: O_7  and  C_8 
REMARK    3  A    between atoms: C_8  and  C_9 
REMARK       I    between atoms: C_9  and  N_10 
REMARK    4  A    between atoms: N_10  and  N_11 
REMARK    5  A    between atoms: C_12  and  C_13 
ROOT
HETATM    1  C   UNL     1      43.972 -13.330   7.562  1.00  0.00     0.261 C 
HETATM    2  N   UNL     1      43.305 -14.234   6.748  1.00  0.00    -0.246 N 
HETATM    3  O   UNL     1      45.080 -13.512   8.067  1.00  0.00    -0.269 OA
HETATM    4  H   UNL     1      42.378 -14.008   6.401  1.00  0.00     0.192 HD
ENDROOT
BRANCH   2   5
HETATM    5  N   UNL     1      43.893 -15.430   6.460  1.00  0.00    -0.184 NA
HETATM    6  C   UNL     1      43.245 -16.228   5.678  1.00  0.00     0.152 C 
BRANCH   6   7
HETATM    7  C   UNL     1      43.843 -17.505   5.335  1.00  0.00     0.011 A 
HETATM    8  C   UNL     1      43.640 -18.287   4.151  1.00  0.00     0.004 A 
HETATM    9  C   UNL     1      44.438 -19.429   4.265  1.00  0.00     0.043 A 
HETATM   10  C   UNL     1      42.864 -18.131   2.983  1.00  0.00     0.014 A 
HETATM   11  C   UNL     1      44.497 -20.419   3.276  1.00  0.00     0.030 A 
HETATM   12  N   UNL     1      45.094 -19.349   5.471  1.00  0.00    -0.364 N 
HETATM   13  C   UNL     1      43.719 -20.238   2.131  1.00  0.00     0.002 A 
HETATM   14  C   UNL     1      42.914 -19.111   1.983  1.00  0.00     0.001 A 
HETATM   15  H   UNL     1      45.744 -20.040   5.820  1.00  0.00     0.165 HD
HETATM   16  C   UNL     1      44.748 -18.198   6.119  1.00  0.00     0.102 A 
ENDBRANCH   6   7
ENDBRANCH   2   5
BRANCH   1  17
HETATM   17  C   UNL     1      43.252 -11.994   7.708  1.00  0.00     0.280 C 
BRANCH  17  18
HETATM   18  O   UNL     1      43.917 -11.117   8.614  1.00  0.00    -0.342 OA
BRANCH  18  19
HETATM   19  C   UNL     1      43.298 -10.990   9.835  1.00  0.00     0.075 A 
HETATM   20  C   UNL     1      44.107 -11.124  10.974  1.00  0.00    -0.028 A 
HETATM   21  C   UNL     1      43.530 -10.975  12.248  1.00  0.00     0.016 A 
HETATM   22  C   UNL     1      45.586 -11.359  10.855  1.00  0.00     0.051 C 
HETATM   23  C   UNL     1      42.158 -10.735  12.396  1.00  0.00    -0.061 A 
HETATM   24  C   UNL     1      41.552 -10.539  13.754  1.00  0.00     0.048 C 
HETATM   25  C   UNL     1      41.362 -10.629  11.253  1.00  0.00     0.009 A 
HETATM   26  C   UNL     1      41.926 -10.765   9.982  1.00  0.00     0.038 A 
ENDBRANCH  18  19
ENDBRANCH  17  18
ENDBRANCH   1  17
TORSDOF 5
ENDMDL
MODEL 4
REMARK VINA RESULT:      -8.1      1.466      2.228
REMARK  5 active torsions:
REMARK  status: ('A' for Active; 'I' for Inactive)
REMARK    1  A    between atoms: C_6  and  O_7 
REMARK    2  A    between atoms: O_7  and  C_8 
REMARK    3  A    between atoms: C_8  and  C_9 
REMARK       I    between atoms: C_9  and  N_10 
REMARK    4  A    between atoms: N_10  and  N_11 
REMARK    5  A    between atoms: C_12  and  C_13 
ROOT
HETATM    1  C   UNL     1      41.786 -11.794   6.435  1.00  0.00     0.261 C 
HETATM    2  N   UNL     1      42.535 -12.956   6.553  1.00  0.00    -0.246 N 
HETATM    3  O   UNL     1      41.077 -11.501   5.472  1.00  0.00    -0.269 OA
HETATM    4  H   UNL     1      43.115 -13.099   7.375  1.00  0.00     0.192 HD
ENDROOT
BRANCH   2   5
HETATM    5  N   UNL     1      42.508 -13.871   5.542  1.00  0.00    -0.184 NA
HETATM    6  C   UNL     1      42.703 -15.107   5.865  1.00  0.00     0.152 C 
BRANCH   6   7
HETATM    7  C   UNL     1      42.668 -16.113   4.821  1.00  0.00     0.011 A 
HETATM    8  C   UNL     1      43.393 -17.348   4.759  1.00  0.00     0.004 A 
HETATM    9  C   UNL     1      43.025 -17.987   3.572  1.00  0.00     0.043 A 
HETATM   10  C   UNL     1      44.321 -17.994   5.602  1.00  0.00     0.014 A 
HETATM   11  C   UNL     1      43.536 -19.233   3.187  1.00  0.00     0.030 A 
HETATM   12  N   UNL     1      42.117 -17.173   2.935  1.00  0.00    -0.364 N 
HETATM   13  C   UNL     1      44.451 -19.849   4.042  1.00  0.00     0.002 A 
HETATM   14  C   UNL     1      44.840 -19.242   5.233  1.00  0.00     0.001 A 
HETATM   15  H   UNL     1      41.677 -17.383   2.050  1.00  0.00     0.165 HD
HETATM   16  C   UNL     1      41.894 -16.048   3.676  1.00  0.00     0.102 A 
ENDBRANCH   6   7
ENDBRANCH   2   5
BRANCH   1  17
HETATM   17  C   UNL     1      41.820 -10.918   7.682  1.00  0.00     0.280 C 
BRANCH  17  18
HETATM   18  O   UNL     1      43.105 -10.907   8.301  1.00  0.00    -0.342 OA
BRANCH  18  19
HETATM   19  C   UNL     1      43.088 -10.552   9.629  1.00  0.00     0.075 A 
HETATM   20  C   UNL     1      44.286 -10.712  10.344  1.00  0.00    -0.028 A 
HETATM   21  C   UNL     1      44.333 -10.336  11.698  1.00  0.00     0.016 A 
HETATM   22  C   UNL     1      45.532 -11.215   9.672  1.00  0.00     0.051 C 
HETATM   23  C   UNL     1      43.196  -9.844  12.352  1.00  0.00    -0.061 A 
HETATM   24  C   UNL     1      43.258  -9.409  13.786  1.00  0.00     0.048 C 
HETATM   25  C   UNL     1      42.005  -9.715  11.632  1.00  0.00     0.009 A 
HETATM   26  C   UNL     1      41.949 -10.075  10.284  1.00  0.00     0.038 A 
ENDBRANCH  18  19
ENDBRANCH  17  18
ENDBRANCH   1  17
TORSDOF 5
ENDMDL
MODEL 5
REMARK VINA RESULT:      -8.1      6.733      9.396
REMARK  5 active torsions:
REMARK  status: ('A' for Active; 'I' for Inactive)
REMARK    1  A    between atoms: C_6  and  O_7 
REMARK    2  A    between atoms: O_7  and  C_8 
REMARK    3  A    between atoms: C_8  and  C_9 
REMARK       I    between atoms: C_9  and  N_10 
REMARK    4  A    between atoms: N_10  and  N_11 
REMARK    5  A    between atoms: C_12  and  C_13 
ROOT
HETATM    1  C   UNL     1      40.391 -15.438   1.348  1.00  0.00     0.261 C 
HETATM    2  N   UNL     1      41.108 -16.524   0.868  1.00  0.00    -0.246 N 
HETATM    3  O   UNL     1      40.185 -15.190   2.536  1.00  0.00    -0.269 OA
HETATM    4  H   UNL     1      41.201 -16.663  -0.133  1.00  0.00     0.192 HD
ENDROOT
BRANCH   2   5
HETATM    5  N   UNL     1      41.646 -17.409   1.755  1.00  0.00    -0.184 NA
HETATM    6  C   UNL     1      42.904 -17.281   2.021  1.00  0.00     0.152 C 
BRANCH   6   7
HETATM    7  C   UNL     1      43.511 -18.195   2.970  1.00  0.00     0.011 A 
HETATM    8  C   UNL     1      43.774 -19.594   2.806  1.00  0.00     0.004 A 
HETATM    9  C   UNL     1      44.380 -20.044   3.982  1.00  0.00     0.043 A 
HETATM   10  C   UNL     1      43.566 -20.525   1.767  1.00  0.00     0.014 A 
HETATM   11  C   UNL     1      44.785 -21.371   4.171  1.00  0.00     0.030 A 
HETATM   12  N   UNL     1      44.477 -18.965   4.830  1.00  0.00    -0.364 N 
HETATM   13  C   UNL     1      44.568 -22.270   3.125  1.00  0.00     0.002 A 
HETATM   14  C   UNL     1      43.968 -21.856   1.938  1.00  0.00     0.001 A 
HETATM   15  H   UNL     1      44.879 -18.995   5.757  1.00  0.00     0.165 HD
HETATM   16  C   UNL     1      43.963 -17.851   4.231  1.00  0.00     0.102 A 
ENDBRANCH   6   7
ENDBRANCH   2   5
BRANCH   1  17
HETATM   17  C   UNL     1      39.945 -14.472   0.255  1.00  0.00     0.280 C 
BRANCH  17  18
HETATM   18  O   UNL     1      40.319 -14.919  -1.047  1.00  0.00    -0.342 OA
BRANCH  18  19
HETATM   19  C   UNL     1      40.900 -13.950  -1.831  1.00  0.00     0.075 A 
HETATM   20  C   UNL     1      40.257 -13.641  -3.040  1.00  0.00    -0.028 A 
HETATM   21  C   UNL     1      40.794 -12.637  -3.866  1.00  0.00     0.016 A 
HETATM   22  C   UNL     1      38.975 -14.317  -3.434  1.00  0.00     0.051 C 
HETATM   23  C   UNL     1      41.976 -11.972  -3.520  1.00  0.00    -0.061 A 
HETATM   24  C   UNL     1      42.526 -10.876  -4.384  1.00  0.00     0.048 C 
HETATM   25  C   UNL     1      42.618 -12.309  -2.325  1.00  0.00     0.009 A 
HETATM   26  C   UNL     1      42.089 -13.297  -1.491  1.00  0.00     0.038 A 
ENDBRANCH  18  19
ENDBRANCH  17  18
ENDBRANCH   1  17
TORSDOF 5
ENDMDL
MODEL 6
REMARK VINA RESULT:      -8.0      6.471      9.968
REMARK  5 active torsions:
REMARK  status: ('A' for Active; 'I' for Inactive)
REMARK    1  A    between atoms: C_6  and  O_7 
REMARK    2  A    between atoms: O_7  and  C_8 
REMARK    3  A    between atoms: C_8  and  C_9 
REMARK       I    between atoms: C_9  and  N_10 
REMARK    4  A    between atoms: N_10  and  N_11 
REMARK    5  A    between atoms: C_12  and  C_13 
ROOT
HETATM    1  C   UNL     1      41.622 -15.636   2.418  1.00  0.00     0.261 C 
HETATM    2  N   UNL     1      40.813 -16.035   1.364  1.00  0.00    -0.246 N 
HETATM    3  O   UNL     1      42.186 -14.546   2.509  1.00  0.00    -0.269 OA
HETATM    4  H   UNL     1      40.413 -16.968   1.362  1.00  0.00     0.192 HD
ENDROOT
BRANCH   2   5
HETATM    5  N   UNL     1      40.600 -15.175   0.327  1.00  0.00    -0.184 NA
HETATM    6  C   UNL     1      41.136 -15.482  -0.808  1.00  0.00     0.152 C 
BRANCH   6   7
HETATM    7  C   UNL     1      40.921 -14.600  -1.940  1.00  0.00     0.011 A 
HETATM    8  C   UNL     1      41.541 -13.335  -2.205  1.00  0.00     0.004 A 
HETATM    9  C   UNL     1      41.027 -12.867  -3.418  1.00  0.00     0.043 A 
HETATM   10  C   UNL     1      42.500 -12.544  -1.539  1.00  0.00     0.014 A 
HETATM   11  C   UNL     1      41.422 -11.652  -3.993  1.00  0.00     0.030 A 
HETATM   12  N   UNL     1      40.128 -13.804  -3.869  1.00  0.00    -0.364 N 
HETATM   13  C   UNL     1      42.373 -10.891  -3.312  1.00  0.00     0.002 A 
HETATM   14  C   UNL     1      42.908 -11.328  -2.103  1.00  0.00     0.001 A 
HETATM   15  H   UNL     1      39.602 -13.730  -4.729  1.00  0.00     0.165 HD
HETATM   16  C   UNL     1      40.059 -14.849  -2.992  1.00  0.00     0.102 A 
ENDBRANCH   6   7
ENDBRANCH   2   5
BRANCH   1  17
HETATM   17  C   UNL     1      41.681 -16.648   3.557  1.00  0.00     0.280 C 
BRANCH  17  18
HETATM   18  O   UNL     1      43.019 -17.017   3.884  1.00  0.00    -0.342 OA
BRANCH  18  19
HETATM   19  C   UNL     1      43.389 -18.261   3.429  1.00  0.00     0.075 A 
HETATM   20  C   UNL     1      44.251 -19.007   4.249  1.00  0.00    -0.028 A 
HETATM   21  C   UNL     1      44.637 -20.297   3.845  1.00  0.00     0.016 A 
HETATM   22  C   UNL     1      44.714 -18.477   5.577  1.00  0.00     0.051 C 
HETATM   23  C   UNL     1      44.208 -20.832   2.624  1.00  0.00    -0.061 A 
HETATM   24  C   UNL     1      44.590 -22.222   2.213  1.00  0.00     0.048 C 
HETATM   25  C   UNL     1      43.371 -20.066   1.808  1.00  0.00     0.009 A 
HETATM   26  C   UNL     1      42.972 -18.787   2.203  1.00  0.00     0.038 A 
ENDBRANCH  18  19
ENDBRANCH  17  18
ENDBRANCH   1  17
TORSDOF 5
ENDMDL
MODEL 7
REMARK VINA RESULT:      -7.8      2.058      2.297
REMARK  5 active torsions:
REMARK  status: ('A' for Active; 'I' for Inactive)
REMARK    1  A    between atoms: C_6  and  O_7 
REMARK    2  A    between atoms: O_7  and  C_8 
REMARK    3  A    between atoms: C_8  and  C_9 
REMARK       I    between atoms: C_9  and  N_10 
REMARK    4  A    between atoms: N_10  and  N_11 
REMARK    5  A    between atoms: C_12  and  C_13 
ROOT
HETATM    1  C   UNL     1      44.276 -13.719   7.266  1.00  0.00     0.261 C 
HETATM    2  N   UNL     1      42.996 -13.549   6.759  1.00  0.00    -0.246 N 
HETATM    3  O   UNL     1      45.053 -14.618   6.947  1.00  0.00    -0.269 OA
HETATM    4  H   UNL     1      42.414 -12.792   7.106  1.00  0.00     0.192 HD
ENDROOT
BRANCH   2   5
HETATM    5  N   UNL     1      42.527 -14.428   5.828  1.00  0.00    -0.184 NA
HETATM    6  C   UNL     1      41.934 -13.927   4.795  1.00  0.00     0.152 C 
BRANCH   6   7
HETATM    7  C   UNL     1      41.433 -14.829   3.775  1.00  0.00     0.011 A 
HETATM    8  C   UNL     1      42.183 -15.700   2.920  1.00  0.00     0.004 A 
HETATM    9  C   UNL     1      41.267 -16.380   2.112  1.00  0.00     0.043 A 
HETATM   10  C   UNL     1      43.555 -15.989   2.758  1.00  0.00     0.014 A 
HETATM   11  C   UNL     1      41.652 -17.328   1.156  1.00  0.00     0.030 A 
HETATM   12  N   UNL     1      40.012 -15.936   2.457  1.00  0.00    -0.364 N 
HETATM   13  C   UNL     1      43.015 -17.594   1.019  1.00  0.00     0.002 A 
HETATM   14  C   UNL     1      43.956 -16.936   1.808  1.00  0.00     0.001 A 
HETATM   15  H   UNL     1      39.151 -16.258   2.036  1.00  0.00     0.165 HD
HETATM   16  C   UNL     1      40.100 -15.009   3.455  1.00  0.00     0.102 A 
ENDBRANCH   6   7
ENDBRANCH   2   5
BRANCH   1  17
HETATM   17  C   UNL     1      44.711 -12.603   8.210  1.00  0.00     0.280 C 
BRANCH  17  18
HETATM   18  O   UNL     1      43.715 -11.591   8.346  1.00  0.00    -0.342 OA
BRANCH  18  19
HETATM   19  C   UNL     1      43.637 -11.042   9.605  1.00  0.00     0.075 A 
HETATM   20  C   UNL     1      42.617 -10.102   9.825  1.00  0.00    -0.028 A 
HETATM   21  C   UNL     1      42.475  -9.531  11.102  1.00  0.00     0.016 A 
HETATM   22  C   UNL     1      41.640  -9.746   8.741  1.00  0.00     0.051 C 
HETATM   23  C   UNL     1      43.355  -9.856  12.142  1.00  0.00    -0.061 A 
HETATM   24  C   UNL     1      43.177  -9.274  13.513  1.00  0.00     0.048 C 
HETATM   25  C   UNL     1      44.380 -10.774  11.899  1.00  0.00     0.009 A 
HETATM   26  C   UNL     1      44.525 -11.356  10.637  1.00  0.00     0.038 A 
ENDBRANCH  18  19
ENDBRANCH  17  18
ENDBRANCH   1  17
TORSDOF 5
ENDMDL
MODEL 8
REMARK VINA RESULT:      -7.8      6.951     10.370
REMARK  5 active torsions:
REMARK  status: ('A' for Active; 'I' for Inactive)
REMARK    1  A    between atoms: C_6  and  O_7 
REMARK    2  A    between atoms: O_7  and  C_8 
REMARK    3  A    between atoms: C_8  and  C_9 
REMARK       I    between atoms: C_9  and  N_10 
REMARK    4  A    between atoms: N_10  and  N_11 
REMARK    5  A    between atoms: C_12  and  C_13 
ROOT
HETATM    1  C   UNL     1      41.090 -15.106  -0.102  1.00  0.00     0.261 C 
HETATM    2  N   UNL     1      40.995 -16.471   0.128  1.00  0.00    -0.246 N 
HETATM    3  O   UNL     1      41.646 -14.297   0.640  1.00  0.00    -0.269 OA
HETATM    4  H   UNL     1      40.489 -17.058  -0.529  1.00  0.00     0.192 HD
ENDROOT
BRANCH   2   5
HETATM    5  N   UNL     1      41.554 -16.996   1.255  1.00  0.00    -0.184 NA
HETATM    6  C   UNL     1      42.649 -17.666   1.109  1.00  0.00     0.152 C 
BRANCH   6   7
HETATM    7  C   UNL     1      43.282 -18.229   2.286  1.00  0.00     0.011 A 
HETATM    8  C   UNL     1      43.680 -19.588   2.511  1.00  0.00     0.004 A 
HETATM    9  C   UNL     1      44.258 -19.647   3.783  1.00  0.00     0.043 A 
HETATM   10  C   UNL     1      43.618 -20.776   1.753  1.00  0.00     0.014 A 
HETATM   11  C   UNL     1      44.771 -20.828   4.332  1.00  0.00     0.030 A 
HETATM   12  N   UNL     1      44.208 -18.379   4.312  1.00  0.00    -0.364 N 
HETATM   13  C   UNL     1      44.697 -21.988   3.559  1.00  0.00     0.002 A 
HETATM   14  C   UNL     1      44.130 -21.966   2.287  1.00  0.00     0.001 A 
HETATM   15  H   UNL     1      44.557 -18.122   5.225  1.00  0.00     0.165 HD
HETATM   16  C   UNL     1      43.628 -17.521   3.422  1.00  0.00     0.102 A 
ENDBRANCH   6   7
ENDBRANCH   2   5
BRANCH   1  17
HETATM   17  C   UNL     1      40.523 -14.674  -1.450  1.00  0.00     0.280 C 
BRANCH  17  18
HETATM   18  O   UNL     1      39.444 -13.752  -1.313  1.00  0.00    -0.342 OA
BRANCH  18  19
HETATM   19  C   UNL     1      38.505 -13.828  -2.314  1.00  0.00     0.075 A 
HETATM   20  C   UNL     1      37.748 -12.673  -2.565  1.00  0.00    -0.028 A 
HETATM   21  C   UNL     1      36.794 -12.687  -3.598  1.00  0.00     0.016 A 
HETATM   22  C   UNL     1      37.985 -11.405  -1.794  1.00  0.00     0.051 C 
HETATM   23  C   UNL     1      36.561 -13.845  -4.351  1.00  0.00    -0.061 A 
HETATM   24  C   UNL     1      35.570 -13.847  -5.476  1.00  0.00     0.048 C 
HETATM   25  C   UNL     1      37.305 -14.994  -4.071  1.00  0.00     0.009 A 
HETATM   26  C   UNL     1      38.263 -14.989  -3.055  1.00  0.00     0.038 A 
ENDBRANCH  18  19
ENDBRANCH  17  18
ENDBRANCH   1  17
TORSDOF 5
ENDMDL
MODEL 9
REMARK VINA RESULT:      -7.8      5.780      9.593
REMARK  5 active torsions:
REMARK  status: ('A' for Active; 'I' for Inactive)
REMARK    1  A    between atoms: C_6  and  O_7 
REMARK    2  A    between atoms: O_7  and  C_8 
REMARK    3  A    between atoms: C_8  and  C_9 
REMARK       I    between atoms: C_9  and  N_10 
REMARK    4  A    between atoms: N_10  and  N_11 
REMARK    5  A    between atoms: C_12  and  C_13 
ROOT
HETATM    1  C   UNL     1      41.618 -15.556   3.984  1.00  0.00     0.261 C 
HETATM    2  N   UNL     1      40.349 -15.887   3.529  1.00  0.00    -0.246 N 
HETATM    3  O   UNL     1      42.187 -14.484   3.785  1.00  0.00    -0.269 OA
HETATM    4  H   UNL     1      39.972 -16.811   3.719  1.00  0.00     0.192 HD
ENDROOT
BRANCH   2   5
HETATM    5  N   UNL     1      39.645 -14.975   2.801  1.00  0.00    -0.184 NA
HETATM    6  C   UNL     1      39.609 -15.149   1.521  1.00  0.00     0.152 C 
BRANCH   6   7
HETATM    7  C   UNL     1      38.858 -14.208   0.711  1.00  0.00     0.011 A 
HETATM    8  C   UNL     1      39.047 -13.886  -0.673  1.00  0.00     0.004 A 
HETATM    9  C   UNL     1      38.079 -12.938  -1.015  1.00  0.00     0.043 A 
HETATM   10  C   UNL     1      39.940 -14.317  -1.677  1.00  0.00     0.014 A 
HETATM   11  C   UNL     1      37.961 -12.400  -2.302  1.00  0.00     0.030 A 
HETATM   12  N   UNL     1      37.336 -12.688   0.116  1.00  0.00    -0.364 N 
HETATM   13  C   UNL     1      38.857 -12.846  -3.275  1.00  0.00     0.002 A 
HETATM   14  C   UNL     1      39.833 -13.791  -2.971  1.00  0.00     0.001 A 
HETATM   15  H   UNL     1      36.561 -12.041   0.164  1.00  0.00     0.165 HD
HETATM   16  C   UNL     1      37.792 -13.446   1.155  1.00  0.00     0.102 A 
ENDBRANCH   6   7
ENDBRANCH   2   5
BRANCH   1  17
HETATM   17  C   UNL     1      42.241 -16.623   4.878  1.00  0.00     0.280 C 
BRANCH  17  18
HETATM   18  O   UNL     1      43.587 -16.917   4.510  1.00  0.00    -0.342 OA
BRANCH  18  19
HETATM   19  C   UNL     1      43.740 -18.103   3.831  1.00  0.00     0.075 A 
HETATM   20  C   UNL     1      44.418 -19.135   4.500  1.00  0.00    -0.028 A 
HETATM   21  C   UNL     1      44.576 -20.378   3.862  1.00  0.00     0.016 A 
HETATM   22  C   UNL     1      44.918 -18.955   5.905  1.00  0.00     0.051 C 
HETATM   23  C   UNL     1      44.104 -20.589   2.561  1.00  0.00    -0.061 A 
HETATM   24  C   UNL     1      44.241 -21.927   1.897  1.00  0.00     0.048 C 
HETATM   25  C   UNL     1      43.455 -19.543   1.899  1.00  0.00     0.009 A 
HETATM   26  C   UNL     1      43.282 -18.307   2.526  1.00  0.00     0.038 A 
ENDBRANCH  18  19
ENDBRANCH  17  18
ENDBRANCH   1  17
TORSDOF 5
ENDMDL
MODEL 10
REMARK VINA RESULT:      -7.6      5.672      9.817
REMARK  5 active torsions:
REMARK  status: ('A' for Active; 'I' for Inactive)
REMARK    1  A    between atoms: C_6  and  O_7 
REMARK    2  A    between atoms: O_7  and  C_8 
REMARK    3  A    between atoms: C_8  and  C_9 
REMARK       I    between atoms: C_9  and  N_10 
REMARK    4  A    between atoms: N_10  and  N_11 
REMARK    5  A    between atoms: C_12  and  C_13 
ROOT
HETATM    1  C   UNL     1      43.289 -14.174   3.396  1.00  0.00     0.261 C 
HETATM    2  N   UNL     1      42.332 -13.775   2.474  1.00  0.00    -0.246 N 
HETATM    3  O   UNL     1      44.370 -13.618   3.584  1.00  0.00    -0.269 OA
HETATM    4  H   UNL     1      41.479 -14.316   2.368  1.00  0.00     0.192 HD
ENDROOT
BRANCH   2   5
HETATM    5  N   UNL     1      42.573 -12.681   1.697  1.00  0.00    -0.184 NA
HETATM    6  C   UNL     1      41.958 -12.620   0.562  1.00  0.00     0.152 C 
BRANCH   6   7
HETATM    7  C   UNL     1      42.176 -11.466  -0.288  1.00  0.00     0.011 A 
HETATM    8  C   UNL     1      42.253 -11.423  -1.719  1.00  0.00     0.004 A 
HETATM    9  C   UNL     1      42.462 -10.091  -2.084  1.00  0.00     0.043 A 
HETATM   10  C   UNL     1      42.153 -12.387  -2.744  1.00  0.00     0.014 A 
HETATM   11  C   UNL     1      42.577  -9.676  -3.417  1.00  0.00     0.030 A 
HETATM   12  N   UNL     1      42.517  -9.353  -0.924  1.00  0.00    -0.364 N 
HETATM   13  C   UNL     1      42.473 -10.651  -4.411  1.00  0.00     0.002 A 
HETATM   14  C   UNL     1      42.263 -11.988  -4.082  1.00  0.00     0.001 A 
HETATM   15  H   UNL     1      42.657  -8.353  -0.884  1.00  0.00     0.165 HD
HETATM   16  C   UNL     1      42.343 -10.167   0.158  1.00  0.00     0.102 A 
ENDBRANCH   6   7
ENDBRANCH   2   5
BRANCH   1  17
HETATM   17  C   UNL     1      42.841 -15.339   4.272  1.00  0.00     0.280 C 
BRANCH  17  18
HETATM   18  O   UNL     1      42.058 -16.288   3.552  1.00  0.00    -0.342 OA
BRANCH  18  19
HETATM   19  C   UNL     1      42.691 -17.489   3.329  1.00  0.00     0.075 A 
HETATM   20  C   UNL     1      42.747 -17.940   2.001  1.00  0.00    -0.028 A 
HETATM   21  C   UNL     1      43.408 -19.148   1.713  1.00  0.00     0.016 A 
HETATM   22  C   UNL     1      42.173 -17.125   0.877  1.00  0.00     0.051 C 
HETATM   23  C   UNL     1      43.974 -19.923   2.733  1.00  0.00    -0.061 A 
HETATM   24  C   UNL     1      44.710 -21.191   2.420  1.00  0.00     0.048 C 
HETATM   25  C   UNL     1      43.886 -19.472   4.053  1.00  0.00     0.009 A 
HETATM   26  C   UNL     1      43.241 -18.269   4.350  1.00  0.00     0.038 A 
ENDBRANCH  18  19
ENDBRANCH  17  18
ENDBRANCH   1  17
TORSDOF 5
ENDMDL
