MODEL 1
REMARK VINA RESULT:      -8.8      0.000      0.000
REMARK  9 active torsions:
REMARK  status: ('A' for Active; 'I' for Inactive)
REMARK    1  A    between atoms: C_2  and  O_3 
REMARK    2  A    between atoms: O_3  and  C_4 
REMARK    3  A    between atoms: C_5  and  N_6 
REMARK       I    between atoms: N_6  and  C_7 
REMARK    4  A    between atoms: C_7  and  C_8 
REMARK    5  A    between atoms: C_11  and  N_12 
REMARK    6  A    between atoms: C_17  and  N_18 
REMARK       I    between atoms: N_18  and  C_19 
REMARK    7  A    between atoms: C_19  and  C_20 
REMARK    8  A    between atoms: C_23  and  N_24 
REMARK    9  A    between atoms: C_29  and  C_30 
REMARK       I    between atoms: C_30  and  N_31 
ROOT
HETATM    1  C   UNL     1      40.202 -14.345   0.786  1.00  0.00     0.111 A 
HETATM    2  C   UNL     1      40.652 -15.289  -0.159  1.00  0.00     0.071 A 
HETATM    3  C   UNL     1      41.401 -16.397   0.260  1.00  0.00     0.062 A 
HETATM    4  C   UNL     1      41.681 -16.580   1.621  1.00  0.00     0.038 A 
HETATM    5  C   UNL     1      41.218 -15.639   2.550  1.00  0.00     0.049 A 
HETATM    6  C   UNL     1      40.448 -14.540   2.149  1.00  0.00     0.069 A 
ENDROOT
BRANCH   2   7
HETATM    7  N   UNL     1      40.225 -15.093  -1.497  1.00  0.00    -0.320 N 
HETATM    8  C   UNL     1      41.018 -14.835  -2.589  1.00  0.00     0.256 C 
HETATM    9  O   UNL     1      41.057 -15.635  -3.522  1.00  0.00    -0.267 OA
HETATM   10  H   UNL     1      39.440 -15.698  -1.725  1.00  0.00     0.169 HD
BRANCH   8  11
HETATM   11  C   UNL     1      41.614 -13.474  -2.744  1.00  0.00     0.032 A 
HETATM   12  C   UNL     1      41.065 -12.619  -3.708  1.00  0.00     0.019 A 
HETATM   13  C   UNL     1      41.453 -11.277  -3.772  1.00  0.00     0.024 A 
HETATM   14  C   UNL     1      42.426 -10.772  -2.907  1.00  0.00     0.005 A 
HETATM   15  C   UNL     1      42.949 -11.618  -1.925  1.00  0.00     0.024 A 
HETATM   16  C   UNL     1      42.562 -12.963  -1.852  1.00  0.00     0.019 A 
BRANCH  14  17
HETATM   17  N   UNL     1      42.679  -9.397  -2.858  1.00  0.00    -0.303 NA
HETATM   18  H   UNL     1      42.351  -8.891  -3.675  1.00  0.00     0.124 HD
HETATM   19  H   UNL     1      43.636  -9.162  -2.617  1.00  0.00     0.124 HD
ENDBRANCH  14  17
ENDBRANCH   8  11
ENDBRANCH   2   7
BRANCH   1  20
HETATM   20  O   UNL     1      39.469 -13.277   0.317  1.00  0.00    -0.348 OA
BRANCH  20  21
HETATM   21  C   UNL     1      38.077 -13.608   0.172  1.00  0.00     0.171 C 
HETATM   22  C   UNL     1      37.208 -12.436   0.593  1.00  0.00     0.034 C 
ENDBRANCH  20  21
ENDBRANCH   1  20
BRANCH   6  23
HETATM   23  C   UNL     1      39.894 -13.684   3.230  1.00  0.00     0.252 C 
HETATM   24  N   UNL     1      39.865 -12.337   3.016  1.00  0.00    -0.366 N 
HETATM   25  H   UNL     1      40.198 -11.916   2.156  1.00  0.00     0.159 HD
HETATM   26  H   UNL     1      39.440 -11.746   3.718  1.00  0.00     0.159 HD
HETATM   27  O   UNL     1      39.435 -14.172   4.256  1.00  0.00    -0.268 OA
ENDBRANCH   6  23
BRANCH   4  28
HETATM   28  N   UNL     1      42.341 -17.705   2.164  1.00  0.00    -0.323 N 
HETATM   29  C   UNL     1      43.660 -18.080   1.993  1.00  0.00     0.256 C 
HETATM   30  O   UNL     1      44.540 -17.396   1.487  1.00  0.00    -0.267 OA
HETATM   31  H   UNL     1      41.759 -18.317   2.720  1.00  0.00     0.169 HD
BRANCH  29  32
HETATM   32  C   UNL     1      44.007 -19.451   2.496  1.00  0.00     0.032 A 
HETATM   33  C   UNL     1      44.522 -19.676   3.781  1.00  0.00     0.019 A 
HETATM   34  C   UNL     1      44.812 -20.979   4.207  1.00  0.00     0.024 A 
HETATM   35  C   UNL     1      44.615 -22.072   3.361  1.00  0.00     0.005 A 
HETATM   36  C   UNL     1      44.021 -21.850   2.115  1.00  0.00     0.024 A 
HETATM   37  C   UNL     1      43.738 -20.552   1.677  1.00  0.00     0.019 A 
BRANCH  35  38
HETATM   38  N   UNL     1      44.777 -23.373   3.845  1.00  0.00    -0.303 NA
HETATM   39  H   UNL     1      43.965 -23.970   3.713  1.00  0.00     0.124 HD
HETATM   40  H   UNL     1      45.138 -23.421   4.793  1.00  0.00     0.124 HD
ENDBRANCH  35  38
ENDBRANCH  29  32
ENDBRANCH   4  28
TORSDOF 9
ENDMDL
MODEL 2
REMARK VINA RESULT:      -8.7      2.019      4.918
REMARK  9 active torsions:
REMARK  status: ('A' for Active; 'I' for Inactive)
REMARK    1  A    between atoms: C_2  and  O_3 
REMARK    2  A    between atoms: O_3  and  C_4 
REMARK    3  A    between atoms: C_5  and  N_6 
REMARK       I    between atoms: N_6  and  C_7 
REMARK    4  A    between atoms: C_7  and  C_8 
REMARK    5  A    between atoms: C_11  and  N_12 
REMARK    6  A    between atoms: C_17  and  N_18 
REMARK       I    between atoms: N_18  and  C_19 
REMARK    7  A    between atoms: C_19  and  C_20 
REMARK    8  A    between atoms: C_23  and  N_24 
REMARK    9  A    between atoms: C_29  and  C_30 
REMARK       I    between atoms: C_30  and  N_31 
ROOT
HETATM    1  C   UNL     1      39.970 -14.453  -0.219  1.00  0.00     0.111 A 
HETATM    2  C   UNL     1      39.624 -14.716   1.122  1.00  0.00     0.071 A 
HETATM    3  C   UNL     1      40.166 -15.831   1.778  1.00  0.00     0.062 A 
HETATM    4  C   UNL     1      41.070 -16.667   1.110  1.00  0.00     0.038 A 
HETATM    5  C   UNL     1      41.413 -16.386  -0.219  1.00  0.00     0.049 A 
HETATM    6  C   UNL     1      40.899 -15.264  -0.880  1.00  0.00     0.069 A 
ENDROOT
BRANCH   2   7
HETATM    7  N   UNL     1      38.799 -13.756   1.760  1.00  0.00    -0.320 N 
HETATM    8  C   UNL     1      39.196 -12.569   2.325  1.00  0.00     0.256 C 
HETATM    9  O   UNL     1      38.781 -11.504   1.872  1.00  0.00    -0.267 OA
HETATM   10  H   UNL     1      37.897 -13.680   1.297  1.00  0.00     0.169 HD
BRANCH   8  11
HETATM   11  C   UNL     1      39.913 -12.596   3.636  1.00  0.00     0.032 A 
HETATM   12  C   UNL     1      41.312 -12.645   3.623  1.00  0.00     0.019 A 
HETATM   13  C   UNL     1      42.041 -12.484   4.806  1.00  0.00     0.024 A 
HETATM   14  C   UNL     1      41.389 -12.317   6.030  1.00  0.00     0.005 A 
HETATM   15  C   UNL     1      39.993 -12.237   6.036  1.00  0.00     0.024 A 
HETATM   16  C   UNL     1      39.257 -12.392   4.855  1.00  0.00     0.019 A 
BRANCH  14  17
HETATM   17  N   UNL     1      42.119 -11.982   7.175  1.00  0.00    -0.303 NA
HETATM   18  H   UNL     1      41.814 -12.469   8.013  1.00  0.00     0.124 HD
HETATM   19  H   UNL     1      42.217 -10.983   7.325  1.00  0.00     0.124 HD
ENDBRANCH  14  17
ENDBRANCH   8  11
ENDBRANCH   2   7
BRANCH   1  20
HETATM   20  O   UNL     1      39.408 -13.344  -0.813  1.00  0.00    -0.348 OA
BRANCH  20  21
HETATM   21  C   UNL     1      38.229 -13.683  -1.565  1.00  0.00     0.171 C 
HETATM   22  C   UNL     1      38.337 -13.157  -2.985  1.00  0.00     0.034 C 
ENDBRANCH  20  21
ENDBRANCH   1  20
BRANCH   6  23
HETATM   23  C   UNL     1      41.435 -14.985  -2.237  1.00  0.00     0.252 C 
HETATM   24  N   UNL     1      42.195 -13.862  -2.398  1.00  0.00    -0.366 N 
HETATM   25  H   UNL     1      42.401 -13.233  -1.632  1.00  0.00     0.159 HD
HETATM   26  H   UNL     1      42.612 -13.689  -3.302  1.00  0.00     0.159 HD
HETATM   27  O   UNL     1      41.245 -15.759  -3.168  1.00  0.00    -0.268 OA
ENDBRANCH   6  23
BRANCH   4  28
HETATM   28  N   UNL     1      41.749 -17.755   1.701  1.00  0.00    -0.323 N 
HETATM   29  C   UNL     1      43.035 -17.782   2.206  1.00  0.00     0.256 C 
HETATM   30  O   UNL     1      43.750 -16.806   2.397  1.00  0.00    -0.267 OA
HETATM   31  H   UNL     1      41.230 -18.623   1.727  1.00  0.00     0.169 HD
BRANCH  29  32
HETATM   32  C   UNL     1      43.563 -19.144   2.549  1.00  0.00     0.032 A 
HETATM   33  C   UNL     1      44.232 -19.415   3.751  1.00  0.00     0.019 A 
HETATM   34  C   UNL     1      44.688 -20.710   4.029  1.00  0.00     0.024 A 
HETATM   35  C   UNL     1      44.504 -21.748   3.114  1.00  0.00     0.005 A 
HETATM   36  C   UNL     1      43.762 -21.492   1.958  1.00  0.00     0.024 A 
HETATM   37  C   UNL     1      43.311 -20.199   1.667  1.00  0.00     0.019 A 
BRANCH  35  38
HETATM   38  N   UNL     1      44.839 -23.060   3.462  1.00  0.00    -0.303 NA
HETATM   39  H   UNL     1      45.838 -23.246   3.467  1.00  0.00     0.124 HD
HETATM   40  H   UNL     1      44.319 -23.769   2.956  1.00  0.00     0.124 HD
ENDBRANCH  35  38
ENDBRANCH  29  32
ENDBRANCH   4  28
TORSDOF 9
ENDMDL
MODEL 3
REMARK VINA RESULT:      -8.4      2.505      3.586
REMARK  9 active torsions:
REMARK  status: ('A' for Active; 'I' for Inactive)
REMARK    1  A    between atoms: C_2  and  O_3 
REMARK    2  A    between atoms: O_3  and  C_4 
REMARK    3  A    between atoms: C_5  and  N_6 
REMARK       I    between atoms: N_6  and  C_7 
REMARK    4  A    between atoms: C_7  and  C_8 
REMARK    5  A    between atoms: C_11  and  N_12 
REMARK    6  A    between atoms: C_17  and  N_18 
REMARK       I    between atoms: N_18  and  C_19 
REMARK    7  A    between atoms: C_19  and  C_20 
REMARK    8  A    between atoms: C_23  and  N_24 
REMARK    9  A    between atoms: C_29  and  C_30 
REMARK       I    between atoms: C_30  and  N_31 
ROOT
HETATM    1  C   UNL     1      40.972 -12.326   3.722  1.00  0.00     0.111 A 
HETATM    2  C   UNL     1      41.835 -12.632   2.650  1.00  0.00     0.071 A 
HETATM    3  C   UNL     1      42.337 -13.933   2.505  1.00  0.00     0.062 A 
HETATM    4  C   UNL     1      41.961 -14.934   3.409  1.00  0.00     0.038 A 
HETATM    5  C   UNL     1      41.094 -14.618   4.463  1.00  0.00     0.049 A 
HETATM    6  C   UNL     1      40.566 -13.330   4.608  1.00  0.00     0.069 A 
ENDROOT
BRANCH   2   7
HETATM    7  N   UNL     1      42.069 -11.593   1.714  1.00  0.00    -0.320 N 
HETATM    8  C   UNL     1      41.297 -11.273   0.623  1.00  0.00     0.256 C 
HETATM    9  O   UNL     1      40.752 -10.173   0.558  1.00  0.00    -0.267 OA
HETATM   10  H   UNL     1      42.456 -10.769   2.167  1.00  0.00     0.169 HD
BRANCH   8  11
HETATM   11  C   UNL     1      41.345 -12.157  -0.580  1.00  0.00     0.032 A 
HETATM   12  C   UNL     1      42.444 -12.042  -1.440  1.00  0.00     0.019 A 
HETATM   13  C   UNL     1      42.638 -12.965  -2.474  1.00  0.00     0.024 A 
HETATM   14  C   UNL     1      41.718 -13.992  -2.697  1.00  0.00     0.005 A 
HETATM   15  C   UNL     1      40.639 -14.124  -1.817  1.00  0.00     0.024 A 
HETATM   16  C   UNL     1      40.441 -13.206  -0.778  1.00  0.00     0.019 A 
BRANCH  14  17
HETATM   17  N   UNL     1      42.008 -15.009  -3.612  1.00  0.00    -0.303 NA
HETATM   18  H   UNL     1      42.774 -15.612  -3.328  1.00  0.00     0.124 HD
HETATM   19  H   UNL     1      42.107 -14.687  -4.570  1.00  0.00     0.124 HD
ENDBRANCH  14  17
ENDBRANCH   8  11
ENDBRANCH   2   7
BRANCH   1  20
HETATM   20  O   UNL     1      40.509 -11.032   3.815  1.00  0.00    -0.348 OA
BRANCH  20  21
HETATM   21  C   UNL     1      41.285 -10.254   4.745  1.00  0.00     0.171 C 
HETATM   22  C   UNL     1      40.372  -9.501   5.695  1.00  0.00     0.034 C 
ENDBRANCH  20  21
ENDBRANCH   1  20
BRANCH   6  23
HETATM   23  C   UNL     1      39.550 -13.141   5.676  1.00  0.00     0.252 C 
HETATM   24  N   UNL     1      39.833 -13.646   6.912  1.00  0.00    -0.366 N 
HETATM   25  H   UNL     1      40.700 -14.129   7.116  1.00  0.00     0.159 HD
HETATM   26  H   UNL     1      39.178 -13.477   7.663  1.00  0.00     0.159 HD
HETATM   27  O   UNL     1      38.518 -12.513   5.470  1.00  0.00    -0.268 OA
ENDBRANCH   6  23
BRANCH   4  28
HETATM   28  N   UNL     1      42.327 -16.295   3.303  1.00  0.00    -0.323 N 
HETATM   29  C   UNL     1      43.199 -17.005   4.106  1.00  0.00     0.256 C 
HETATM   30  O   UNL     1      43.668 -16.621   5.170  1.00  0.00    -0.267 OA
HETATM   31  H   UNL     1      41.916 -16.791   2.524  1.00  0.00     0.169 HD
BRANCH  29  32
HETATM   32  C   UNL     1      43.572 -18.368   3.601  1.00  0.00     0.032 A 
HETATM   33  C   UNL     1      44.402 -19.239   4.320  1.00  0.00     0.019 A 
HETATM   34  C   UNL     1      44.703 -20.509   3.811  1.00  0.00     0.024 A 
HETATM   35  C   UNL     1      44.203 -20.925   2.576  1.00  0.00     0.005 A 
HETATM   36  C   UNL     1      43.307 -20.087   1.906  1.00  0.00     0.024 A 
HETATM   37  C   UNL     1      43.008 -18.813   2.401  1.00  0.00     0.019 A 
BRANCH  35  38
HETATM   38  N   UNL     1      44.397 -22.240   2.146  1.00  0.00    -0.303 NA
HETATM   39  H   UNL     1      43.714 -22.901   2.505  1.00  0.00     0.124 HD
HETATM   40  H   UNL     1      45.349 -22.576   2.255  1.00  0.00     0.124 HD
ENDBRANCH  35  38
ENDBRANCH  29  32
ENDBRANCH   4  28
TORSDOF 9
ENDMDL
MODEL 4
REMARK VINA RESULT:      -8.3      1.208      1.254
REMARK  9 active torsions:
REMARK  status: ('A' for Active; 'I' for Inactive)
REMARK    1  A    between atoms: C_2  and  O_3 
REMARK    2  A    between atoms: O_3  and  C_4 
REMARK    3  A    between atoms: C_5  and  N_6 
REMARK       I    between atoms: N_6  and  C_7 
REMARK    4  A    between atoms: C_7  and  C_8 
REMARK    5  A    between atoms: C_11  and  N_12 
REMARK    6  A    between atoms: C_17  and  N_18 
REMARK       I    between atoms: N_18  and  C_19 
REMARK    7  A    between atoms: C_19  and  C_20 
REMARK    8  A    between atoms: C_23  and  N_24 
REMARK    9  A    between atoms: C_29  and  C_30 
REMARK       I    between atoms: C_30  and  N_31 
ROOT
HETATM    1  C   UNL     1      39.989 -14.144   1.965  1.00  0.00     0.111 A 
HETATM    2  C   UNL     1      40.298 -15.006   0.894  1.00  0.00     0.071 A 
HETATM    3  C   UNL     1      41.097 -16.137   1.114  1.00  0.00     0.062 A 
HETATM    4  C   UNL     1      41.566 -16.424   2.402  1.00  0.00     0.038 A 
HETATM    5  C   UNL     1      41.241 -15.563   3.460  1.00  0.00     0.049 A 
HETATM    6  C   UNL     1      40.425 -14.443   3.260  1.00  0.00     0.069 A 
ENDROOT
BRANCH   2   7
HETATM    7  N   UNL     1      39.686 -14.710  -0.350  1.00  0.00    -0.320 N 
HETATM    8  C   UNL     1      40.310 -14.567  -1.566  1.00  0.00     0.256 C 
HETATM    9  O   UNL     1      40.048 -15.340  -2.485  1.00  0.00    -0.267 OA
HETATM   10  H   UNL     1      38.780 -15.166  -0.433  1.00  0.00     0.169 HD
BRANCH   8  11
HETATM   11  C   UNL     1      41.096 -13.325  -1.833  1.00  0.00     0.032 A 
HETATM   12  C   UNL     1      40.534 -12.356  -2.672  1.00  0.00     0.019 A 
HETATM   13  C   UNL     1      41.133 -11.099  -2.810  1.00  0.00     0.024 A 
HETATM   14  C   UNL     1      42.326 -10.800  -2.149  1.00  0.00     0.005 A 
HETATM   15  C   UNL     1      42.868 -11.757  -1.287  1.00  0.00     0.024 A 
HETATM   16  C   UNL     1      42.272 -13.016  -1.140  1.00  0.00     0.019 A 
BRANCH  14  17
HETATM   17  N   UNL     1      42.822  -9.492  -2.150  1.00  0.00    -0.303 NA
HETATM   18  H   UNL     1      42.359  -8.877  -1.488  1.00  0.00     0.124 HD
HETATM   19  H   UNL     1      42.894  -9.078  -3.074  1.00  0.00     0.124 HD
ENDBRANCH  14  17
ENDBRANCH   8  11
ENDBRANCH   2   7
BRANCH   1  20
HETATM   20  O   UNL     1      39.200 -13.048   1.690  1.00  0.00    -0.348 OA
BRANCH  20  21
HETATM   21  C   UNL     1      39.990 -11.885   1.389  1.00  0.00     0.171 C 
HETATM   22  C   UNL     1      39.224 -10.947   0.473  1.00  0.00     0.034 C 
ENDBRANCH  20  21
ENDBRANCH   1  20
BRANCH   6  23
HETATM   23  C   UNL     1      40.032 -13.680   4.472  1.00  0.00     0.252 C 
HETATM   24  N   UNL     1      39.329 -14.343   5.436  1.00  0.00    -0.366 N 
HETATM   25  H   UNL     1      39.079 -15.321   5.349  1.00  0.00     0.159 HD
HETATM   26  H   UNL     1      39.102 -13.853   6.290  1.00  0.00     0.159 HD
HETATM   27  O   UNL     1      40.368 -12.511   4.626  1.00  0.00    -0.268 OA
ENDBRANCH   6  23
BRANCH   4  28
HETATM   28  N   UNL     1      42.293 -17.582   2.756  1.00  0.00    -0.323 N 
HETATM   29  C   UNL     1      43.506 -18.011   2.250  1.00  0.00     0.256 C 
HETATM   30  O   UNL     1      44.254 -17.359   1.534  1.00  0.00    -0.267 OA
HETATM   31  H   UNL     1      41.849 -18.176   3.444  1.00  0.00     0.169 HD
BRANCH  29  32
HETATM   32  C   UNL     1      43.911 -19.401   2.646  1.00  0.00     0.032 A 
HETATM   33  C   UNL     1      44.480 -19.697   3.893  1.00  0.00     0.019 A 
HETATM   34  C   UNL     1      44.822 -21.015   4.218  1.00  0.00     0.024 A 
HETATM   35  C   UNL     1      44.624 -22.054   3.307  1.00  0.00     0.005 A 
HETATM   36  C   UNL     1      43.979 -21.768   2.102  1.00  0.00     0.024 A 
HETATM   37  C   UNL     1      43.642 -20.452   1.763  1.00  0.00     0.019 A 
BRANCH  35  38
HETATM   38  N   UNL     1      44.841 -23.380   3.695  1.00  0.00    -0.303 NA
HETATM   39  H   UNL     1      44.224 -24.050   3.247  1.00  0.00     0.124 HD
HETATM   40  H   UNL     1      44.890 -23.515   4.700  1.00  0.00     0.124 HD
ENDBRANCH  35  38
ENDBRANCH  29  32
ENDBRANCH   4  28
TORSDOF 9
ENDMDL
MODEL 5
REMARK VINA RESULT:      -8.0      2.023      2.982
REMARK  9 active torsions:
REMARK  status: ('A' for Active; 'I' for Inactive)
REMARK    1  A    between atoms: C_2  and  O_3 
REMARK    2  A    between atoms: O_3  and  C_4 
REMARK    3  A    between atoms: C_5  and  N_6 
REMARK       I    between atoms: N_6  and  C_7 
REMARK    4  A    between atoms: C_7  and  C_8 
REMARK    5  A    between atoms: C_11  and  N_12 
REMARK    6  A    between atoms: C_17  and  N_18 
REMARK       I    between atoms: N_18  and  C_19 
REMARK    7  A    between atoms: C_19  and  C_20 
REMARK    8  A    between atoms: C_23  and  N_24 
REMARK    9  A    between atoms: C_29  and  C_30 
REMARK       I    between atoms: C_30  and  N_31 
ROOT
HETATM    1  C   UNL     1      39.848 -13.013   3.772  1.00  0.00     0.111 A 
HETATM    2  C   UNL     1      39.809 -13.757   2.576  1.00  0.00     0.071 A 
HETATM    3  C   UNL     1      40.555 -14.938   2.462  1.00  0.00     0.062 A 
HETATM    4  C   UNL     1      41.319 -15.392   3.545  1.00  0.00     0.038 A 
HETATM    5  C   UNL     1      41.340 -14.647   4.732  1.00  0.00     0.049 A 
HETATM    6  C   UNL     1      40.581 -13.478   4.868  1.00  0.00     0.069 A 
ENDROOT
BRANCH   2   7
HETATM    7  N   UNL     1      38.919 -13.293   1.574  1.00  0.00    -0.320 N 
HETATM    8  C   UNL     1      38.707 -13.849   0.335  1.00  0.00     0.256 C 
HETATM    9  O   UNL     1      37.597 -14.290   0.042  1.00  0.00    -0.267 OA
HETATM   10  H   UNL     1      38.065 -12.924   1.982  1.00  0.00     0.169 HD
BRANCH   8  11
HETATM   11  C   UNL     1      39.746 -13.673  -0.724  1.00  0.00     0.032 A 
HETATM   12  C   UNL     1      40.555 -12.531  -0.672  1.00  0.00     0.019 A 
HETATM   13  C   UNL     1      41.661 -12.403  -1.519  1.00  0.00     0.024 A 
HETATM   14  C   UNL     1      41.955 -13.389  -2.463  1.00  0.00     0.005 A 
HETATM   15  C   UNL     1      41.166 -14.542  -2.492  1.00  0.00     0.024 A 
HETATM   16  C   UNL     1      40.059 -14.679  -1.644  1.00  0.00     0.019 A 
BRANCH  14  17
HETATM   17  N   UNL     1      43.155 -13.340  -3.180  1.00  0.00    -0.303 NA
HETATM   18  H   UNL     1      43.565 -14.251  -3.359  1.00  0.00     0.124 HD
HETATM   19  H   UNL     1      43.832 -12.680  -2.809  1.00  0.00     0.124 HD
ENDBRANCH  14  17
ENDBRANCH   8  11
ENDBRANCH   2   7
BRANCH   1  20
HETATM   20  O   UNL     1      39.094 -11.861   3.827  1.00  0.00    -0.348 OA
BRANCH  20  21
HETATM   21  C   UNL     1      39.909 -10.683   3.683  1.00  0.00     0.171 C 
HETATM   22  C   UNL     1      39.551  -9.945   2.406  1.00  0.00     0.034 C 
ENDBRANCH  20  21
ENDBRANCH   1  20
BRANCH   6  23
HETATM   23  C   UNL     1      40.568 -12.845   6.212  1.00  0.00     0.252 C 
HETATM   24  N   UNL     1      39.465 -13.041   6.993  1.00  0.00    -0.366 N 
HETATM   25  H   UNL     1      38.677 -13.600   6.687  1.00  0.00     0.159 HD
HETATM   26  H   UNL     1      39.465 -12.663   7.930  1.00  0.00     0.159 HD
HETATM   27  O   UNL     1      41.531 -12.210   6.626  1.00  0.00    -0.268 OA
ENDBRANCH   6  23
BRANCH   4  28
HETATM   28  N   UNL     1      42.030 -16.612   3.575  1.00  0.00    -0.323 N 
HETATM   29  C   UNL     1      43.217 -16.920   2.938  1.00  0.00     0.256 C 
HETATM   30  O   UNL     1      43.960 -16.122   2.381  1.00  0.00    -0.267 OA
HETATM   31  H   UNL     1      41.592 -17.352   4.108  1.00  0.00     0.169 HD
BRANCH  29  32
HETATM   32  C   UNL     1      43.601 -18.371   2.962  1.00  0.00     0.032 A 
HETATM   33  C   UNL     1      44.233 -18.967   4.063  1.00  0.00     0.019 A 
HETATM   34  C   UNL     1      44.553 -20.331   4.040  1.00  0.00     0.024 A 
HETATM   35  C   UNL     1      44.269 -21.116   2.922  1.00  0.00     0.005 A 
HETATM   36  C   UNL     1      43.562 -20.538   1.864  1.00  0.00     0.024 A 
HETATM   37  C   UNL     1      43.247 -19.174   1.873  1.00  0.00     0.019 A 
BRANCH  35  38
HETATM   38  N   UNL     1      44.467 -22.499   2.966  1.00  0.00    -0.303 NA
HETATM   39  H   UNL     1      45.208 -22.794   3.596  1.00  0.00     0.124 HD
HETATM   40  H   UNL     1      44.545 -22.937   2.053  1.00  0.00     0.124 HD
ENDBRANCH  35  38
ENDBRANCH  29  32
ENDBRANCH   4  28
TORSDOF 9
ENDMDL
MODEL 6
REMARK VINA RESULT:      -8.0      2.309      3.201
REMARK  9 active torsions:
REMARK  status: ('A' for Active; 'I' for Inactive)
REMARK    1  A    between atoms: C_2  and  O_3 
REMARK    2  A    between atoms: O_3  and  C_4 
REMARK    3  A    between atoms: C_5  and  N_6 
REMARK       I    between atoms: N_6  and  C_7 
REMARK    4  A    between atoms: C_7  and  C_8 
REMARK    5  A    between atoms: C_11  and  N_12 
REMARK    6  A    between atoms: C_17  and  N_18 
REMARK       I    between atoms: N_18  and  C_19 
REMARK    7  A    between atoms: C_19  and  C_20 
REMARK    8  A    between atoms: C_23  and  N_24 
REMARK    9  A    between atoms: C_29  and  C_30 
REMARK       I    between atoms: C_30  and  N_31 
ROOT
HETATM    1  C   UNL     1      40.552 -12.857   2.394  1.00  0.00     0.111 A 
HETATM    2  C   UNL     1      41.145 -13.401   1.237  1.00  0.00     0.071 A 
HETATM    3  C   UNL     1      41.722 -14.678   1.282  1.00  0.00     0.062 A 
HETATM    4  C   UNL     1      41.686 -15.423   2.468  1.00  0.00     0.038 A 
HETATM    5  C   UNL     1      41.083 -14.873   3.607  1.00  0.00     0.049 A 
HETATM    6  C   UNL     1      40.482 -13.608   3.571  1.00  0.00     0.069 A 
ENDROOT
BRANCH   2   7
HETATM    7  N   UNL     1      41.034 -12.633   0.051  1.00  0.00    -0.320 N 
HETATM    8  C   UNL     1      39.961 -12.588  -0.808  1.00  0.00     0.256 C 
HETATM    9  O   UNL     1      39.353 -11.533  -0.974  1.00  0.00    -0.267 OA
HETATM   10  H   UNL     1      41.482 -11.727   0.155  1.00  0.00     0.169 HD
BRANCH   8  11
HETATM   11  C   UNL     1      39.716 -13.747  -1.718  1.00  0.00     0.032 A 
HETATM   12  C   UNL     1      38.428 -13.914  -2.241  1.00  0.00     0.019 A 
HETATM   13  C   UNL     1      38.182 -14.863  -3.240  1.00  0.00     0.024 A 
HETATM   14  C   UNL     1      39.205 -15.692  -3.704  1.00  0.00     0.005 A 
HETATM   15  C   UNL     1      40.497 -15.501  -3.204  1.00  0.00     0.024 A 
HETATM   16  C   UNL     1      40.751 -14.551  -2.208  1.00  0.00     0.019 A 
BRANCH  14  17
HETATM   17  N   UNL     1      38.996 -16.510  -4.819  1.00  0.00    -0.303 NA
HETATM   18  H   UNL     1      38.242 -17.180  -4.701  1.00  0.00     0.124 HD
HETATM   19  H   UNL     1      39.841 -16.941  -5.180  1.00  0.00     0.124 HD
ENDBRANCH  14  17
ENDBRANCH   8  11
ENDBRANCH   2   7
BRANCH   1  20
HETATM   20  O   UNL     1      40.000 -11.598   2.291  1.00  0.00    -0.348 OA
BRANCH  20  21
HETATM   21  C   UNL     1      40.948 -10.571   2.636  1.00  0.00     0.171 C 
HETATM   22  C   UNL     1      40.229  -9.347   3.173  1.00  0.00     0.034 C 
ENDBRANCH  20  21
ENDBRANCH   1  20
BRANCH   6  23
HETATM   23  C   UNL     1      39.752 -13.182   4.793  1.00  0.00     0.252 C 
HETATM   24  N   UNL     1      38.678 -12.355   4.632  1.00  0.00    -0.366 N 
HETATM   25  H   UNL     1      38.370 -12.038   3.720  1.00  0.00     0.159 HD
HETATM   26  H   UNL     1      38.139 -12.102   5.448  1.00  0.00     0.159 HD
HETATM   27  O   UNL     1      40.071 -13.596   5.902  1.00  0.00    -0.268 OA
ENDBRANCH   6  23
BRANCH   4  28
HETATM   28  N   UNL     1      42.147 -16.751   2.600  1.00  0.00    -0.323 N 
HETATM   29  C   UNL     1      43.072 -17.244   3.502  1.00  0.00     0.256 C 
HETATM   30  O   UNL     1      43.517 -16.644   4.472  1.00  0.00    -0.267 OA
HETATM   31  H   UNL     1      41.770 -17.407   1.929  1.00  0.00     0.169 HD
BRANCH  29  32
HETATM   32  C   UNL     1      43.538 -18.646   3.242  1.00  0.00     0.032 A 
HETATM   33  C   UNL     1      44.330 -19.360   4.153  1.00  0.00     0.019 A 
HETATM   34  C   UNL     1      44.722 -20.675   3.868  1.00  0.00     0.024 A 
HETATM   35  C   UNL     1      44.353 -21.291   2.672  1.00  0.00     0.005 A 
HETATM   36  C   UNL     1      43.493 -20.607   1.808  1.00  0.00     0.024 A 
HETATM   37  C   UNL     1      43.104 -19.290   2.079  1.00  0.00     0.019 A 
BRANCH  35  38
HETATM   38  N   UNL     1      44.633 -22.645   2.463  1.00  0.00    -0.303 NA
HETATM   39  H   UNL     1      43.845 -23.263   2.631  1.00  0.00     0.124 HD
HETATM   40  H   UNL     1      45.480 -22.969   2.921  1.00  0.00     0.124 HD
ENDBRANCH  35  38
ENDBRANCH  29  32
ENDBRANCH   4  28
TORSDOF 9
ENDMDL
MODEL 7
REMARK VINA RESULT:      -7.7      5.164      7.880
REMARK  9 active torsions:
REMARK  status: ('A' for Active; 'I' for Inactive)
REMARK    1  A    between atoms: C_2  and  O_3 
REMARK    2  A    between atoms: O_3  and  C_4 
REMARK    3  A    between atoms: C_5  and  N_6 
REMARK       I    between atoms: N_6  and  C_7 
REMARK    4  A    between atoms: C_7  and  C_8 
REMARK    5  A    between atoms: C_11  and  N_12 
REMARK    6  A    between atoms: C_17  and  N_18 
REMARK       I    between atoms: N_18  and  C_19 
REMARK    7  A    between atoms: C_19  and  C_20 
REMARK    8  A    between atoms: C_23  and  N_24 
REMARK    9  A    between atoms: C_29  and  C_30 
REMARK       I    between atoms: C_30  and  N_31 
ROOT
HETATM    1  C   UNL     1      42.838 -15.823   3.885  1.00  0.00     0.111 A 
HETATM    2  C   UNL     1      42.790 -14.454   3.553  1.00  0.00     0.071 A 
HETATM    3  C   UNL     1      42.889 -13.485   4.562  1.00  0.00     0.062 A 
HETATM    4  C   UNL     1      43.062 -13.877   5.896  1.00  0.00     0.038 A 
HETATM    5  C   UNL     1      43.119 -15.242   6.209  1.00  0.00     0.049 A 
HETATM    6  C   UNL     1      43.045 -16.220   5.210  1.00  0.00     0.069 A 
ENDROOT
BRANCH   2   7
HETATM    7  N   UNL     1      42.733 -14.142   2.171  1.00  0.00    -0.320 N 
HETATM    8  C   UNL     1      42.068 -13.091   1.587  1.00  0.00     0.256 C 
HETATM    9  O   UNL     1      42.697 -12.228   0.978  1.00  0.00    -0.267 OA
HETATM   10  H   UNL     1      43.619 -14.340   1.713  1.00  0.00     0.169 HD
BRANCH   8  11
HETATM   11  C   UNL     1      40.579 -13.151   1.476  1.00  0.00     0.032 A 
HETATM   12  C   UNL     1      39.822 -12.266   2.252  1.00  0.00     0.019 A 
HETATM   13  C   UNL     1      38.442 -12.145   2.055  1.00  0.00     0.024 A 
HETATM   14  C   UNL     1      37.785 -12.937   1.111  1.00  0.00     0.005 A 
HETATM   15  C   UNL     1      38.546 -13.797   0.314  1.00  0.00     0.024 A 
HETATM   16  C   UNL     1      39.929 -13.920   0.503  1.00  0.00     0.019 A 
BRANCH  14  17
HETATM   17  N   UNL     1      36.445 -12.688   0.796  1.00  0.00    -0.303 NA
HETATM   18  H   UNL     1      35.786 -13.219   1.358  1.00  0.00     0.124 HD
HETATM   19  H   UNL     1      36.236 -12.743  -0.196  1.00  0.00     0.124 HD
ENDBRANCH  14  17
ENDBRANCH   8  11
ENDBRANCH   2   7
BRANCH   1  20
HETATM   20  O   UNL     1      42.736 -16.730   2.853  1.00  0.00    -0.348 OA
BRANCH  20  21
HETATM   21  C   UNL     1      41.371 -17.123   2.623  1.00  0.00     0.171 C 
HETATM   22  C   UNL     1      41.143 -17.403   1.148  1.00  0.00     0.034 C 
ENDBRANCH  20  21
ENDBRANCH   1  20
BRANCH   6  23
HETATM   23  C   UNL     1      43.256 -17.627   5.638  1.00  0.00     0.252 C 
HETATM   24  N   UNL     1      44.009 -18.427   4.829  1.00  0.00    -0.366 N 
HETATM   25  H   UNL     1      44.424 -18.092   3.967  1.00  0.00     0.159 HD
HETATM   26  H   UNL     1      44.207 -19.371   5.134  1.00  0.00     0.159 HD
HETATM   27  O   UNL     1      42.811 -18.043   6.702  1.00  0.00    -0.268 OA
ENDBRANCH   6  23
BRANCH   4  28
HETATM   28  N   UNL     1      43.270 -12.991   6.976  1.00  0.00    -0.323 N 
HETATM   29  C   UNL     1      44.410 -12.839   7.743  1.00  0.00     0.256 C 
HETATM   30  O   UNL     1      45.509 -13.320   7.497  1.00  0.00    -0.267 OA
HETATM   31  H   UNL     1      42.471 -12.425   7.228  1.00  0.00     0.169 HD
BRANCH  29  32
HETATM   32  C   UNL     1      44.250 -11.992   8.971  1.00  0.00     0.032 A 
HETATM   33  C   UNL     1      43.156 -11.135   9.161  1.00  0.00     0.019 A 
HETATM   34  C   UNL     1      43.047 -10.381  10.336  1.00  0.00     0.024 A 
HETATM   35  C   UNL     1      44.025 -10.450  11.328  1.00  0.00     0.005 A 
HETATM   36  C   UNL     1      45.067 -11.369  11.173  1.00  0.00     0.024 A 
HETATM   37  C   UNL     1      45.191 -12.119   9.998  1.00  0.00     0.019 A 
BRANCH  35  38
HETATM   38  N   UNL     1      43.834  -9.800  12.551  1.00  0.00    -0.303 NA
HETATM   39  H   UNL     1      44.135 -10.337  13.359  1.00  0.00     0.124 HD
HETATM   40  H   UNL     1      42.904  -9.411  12.673  1.00  0.00     0.124 HD
ENDBRANCH  35  38
ENDBRANCH  29  32
ENDBRANCH   4  28
TORSDOF 9
ENDMDL
MODEL 8
REMARK VINA RESULT:      -7.7      1.719      4.329
REMARK  9 active torsions:
REMARK  status: ('A' for Active; 'I' for Inactive)
REMARK    1  A    between atoms: C_2  and  O_3 
REMARK    2  A    between atoms: O_3  and  C_4 
REMARK    3  A    between atoms: C_5  and  N_6 
REMARK       I    between atoms: N_6  and  C_7 
REMARK    4  A    between atoms: C_7  and  C_8 
REMARK    5  A    between atoms: C_11  and  N_12 
REMARK    6  A    between atoms: C_17  and  N_18 
REMARK       I    between atoms: N_18  and  C_19 
REMARK    7  A    between atoms: C_19  and  C_20 
REMARK    8  A    between atoms: C_23  and  N_24 
REMARK    9  A    between atoms: C_29  and  C_30 
REMARK       I    between atoms: C_30  and  N_31 
ROOT
HETATM    1  C   UNL     1      40.841 -14.058  -0.409  1.00  0.00     0.111 A 
HETATM    2  C   UNL     1      41.237 -13.869   0.931  1.00  0.00     0.071 A 
HETATM    3  C   UNL     1      41.730 -14.952   1.673  1.00  0.00     0.062 A 
HETATM    4  C   UNL     1      41.853 -16.213   1.077  1.00  0.00     0.038 A 
HETATM    5  C   UNL     1      41.466 -16.382  -0.259  1.00  0.00     0.049 A 
HETATM    6  C   UNL     1      40.994 -15.306  -1.020  1.00  0.00     0.069 A 
ENDROOT
BRANCH   2   7
HETATM    7  N   UNL     1      41.193 -12.539   1.420  1.00  0.00    -0.320 N 
HETATM    8  C   UNL     1      40.204 -11.972   2.187  1.00  0.00     0.256 C 
HETATM    9  O   UNL     1      40.459 -11.573   3.321  1.00  0.00    -0.267 OA
HETATM   10  H   UNL     1      42.120 -12.213   1.684  1.00  0.00     0.169 HD
BRANCH   8  11
HETATM   11  C   UNL     1      38.906 -11.613   1.541  1.00  0.00     0.032 A 
HETATM   12  C   UNL     1      38.798 -10.358   0.929  1.00  0.00     0.019 A 
HETATM   13  C   UNL     1      37.681 -10.039   0.150  1.00  0.00     0.024 A 
HETATM   14  C   UNL     1      36.630 -10.948   0.003  1.00  0.00     0.005 A 
HETATM   15  C   UNL     1      36.754 -12.211   0.588  1.00  0.00     0.024 A 
HETATM   16  C   UNL     1      37.872 -12.539   1.366  1.00  0.00     0.019 A 
BRANCH  14  17
HETATM   17  N   UNL     1      35.604 -10.694  -0.914  1.00  0.00    -0.303 NA
HETATM   18  H   UNL     1      34.856 -11.380  -0.892  1.00  0.00     0.124 HD
HETATM   19  H   UNL     1      35.930 -10.509  -1.858  1.00  0.00     0.124 HD
ENDBRANCH  14  17
ENDBRANCH   8  11
ENDBRANCH   2   7
BRANCH   1  20
HETATM   20  O   UNL     1      40.365 -12.958  -1.090  1.00  0.00    -0.348 OA
BRANCH  20  21
HETATM   21  C   UNL     1      41.419 -12.258  -1.774  1.00  0.00     0.171 C 
HETATM   22  C   UNL     1      41.017 -10.817  -2.032  1.00  0.00     0.034 C 
ENDBRANCH  20  21
ENDBRANCH   1  20
BRANCH   6  23
HETATM   23  C   UNL     1      40.743 -15.567  -2.461  1.00  0.00     0.252 C 
HETATM   24  N   UNL     1      39.444 -15.617  -2.877  1.00  0.00    -0.366 N 
HETATM   25  H   UNL     1      38.666 -15.478  -2.244  1.00  0.00     0.159 HD
HETATM   26  H   UNL     1      39.259 -15.739  -3.863  1.00  0.00     0.159 HD
HETATM   27  O   UNL     1      41.668 -15.686  -3.257  1.00  0.00    -0.268 OA
ENDBRANCH   6  23
BRANCH   4  28
HETATM   28  N   UNL     1      42.425 -17.346   1.697  1.00  0.00    -0.323 N 
HETATM   29  C   UNL     1      43.753 -17.730   1.706  1.00  0.00     0.256 C 
HETATM   30  O   UNL     1      44.699 -17.050   1.330  1.00  0.00    -0.267 OA
HETATM   31  H   UNL     1      41.769 -17.958   2.165  1.00  0.00     0.169 HD
BRANCH  29  32
HETATM   32  C   UNL     1      44.020 -19.106   2.242  1.00  0.00     0.032 A 
HETATM   33  C   UNL     1      44.533 -19.330   3.528  1.00  0.00     0.019 A 
HETATM   34  C   UNL     1      44.746 -20.637   3.986  1.00  0.00     0.024 A 
HETATM   35  C   UNL     1      44.472 -21.736   3.171  1.00  0.00     0.005 A 
HETATM   36  C   UNL     1      43.880 -21.511   1.926  1.00  0.00     0.024 A 
HETATM   37  C   UNL     1      43.673 -20.209   1.455  1.00  0.00     0.019 A 
BRANCH  35  38
HETATM   38  N   UNL     1      44.557 -23.032   3.688  1.00  0.00    -0.303 NA
HETATM   39  H   UNL     1      43.791 -23.641   3.415  1.00  0.00     0.124 HD
HETATM   40  H   UNL     1      44.739 -23.070   4.687  1.00  0.00     0.124 HD
ENDBRANCH  35  38
ENDBRANCH  29  32
ENDBRANCH   4  28
TORSDOF 9
ENDMDL
MODEL 9
REMARK VINA RESULT:      -7.6      6.260     10.001
REMARK  9 active torsions:
REMARK  status: ('A' for Active; 'I' for Inactive)
REMARK    1  A    between atoms: C_2  and  O_3 
REMARK    2  A    between atoms: O_3  and  C_4 
REMARK    3  A    between atoms: C_5  and  N_6 
REMARK       I    between atoms: N_6  and  C_7 
REMARK    4  A    between atoms: C_7  and  C_8 
REMARK    5  A    between atoms: C_11  and  N_12 
REMARK    6  A    between atoms: C_17  and  N_18 
REMARK       I    between atoms: N_18  and  C_19 
REMARK    7  A    between atoms: C_19  and  C_20 
REMARK    8  A    between atoms: C_23  and  N_24 
REMARK    9  A    between atoms: C_29  and  C_30 
REMARK       I    between atoms: C_30  and  N_31 
ROOT
HETATM    1  C   UNL     1      40.647 -11.696   4.688  1.00  0.00     0.111 A 
HETATM    2  C   UNL     1      41.733 -12.357   5.297  1.00  0.00     0.071 A 
HETATM    3  C   UNL     1      42.080 -12.059   6.622  1.00  0.00     0.062 A 
HETATM    4  C   UNL     1      41.334 -11.123   7.349  1.00  0.00     0.038 A 
HETATM    5  C   UNL     1      40.250 -10.481   6.734  1.00  0.00     0.049 A 
HETATM    6  C   UNL     1      39.877 -10.786   5.419  1.00  0.00     0.069 A 
ENDROOT
BRANCH   2   7
HETATM    7  N   UNL     1      42.359 -13.375   4.534  1.00  0.00    -0.320 N 
HETATM    8  C   UNL     1      42.072 -14.718   4.552  1.00  0.00     0.256 C 
HETATM    9  O   UNL     1      41.654 -15.271   3.537  1.00  0.00    -0.267 OA
HETATM   10  H   UNL     1      42.595 -13.044   3.601  1.00  0.00     0.169 HD
BRANCH   8  11
HETATM   11  C   UNL     1      42.517 -15.537   5.721  1.00  0.00     0.032 A 
HETATM   12  C   UNL     1      41.668 -16.553   6.177  1.00  0.00     0.019 A 
HETATM   13  C   UNL     1      42.107 -17.468   7.139  1.00  0.00     0.024 A 
HETATM   14  C   UNL     1      43.383 -17.361   7.697  1.00  0.00     0.005 A 
HETATM   15  C   UNL     1      44.240 -16.366   7.218  1.00  0.00     0.024 A 
HETATM   16  C   UNL     1      43.809 -15.449   6.251  1.00  0.00     0.019 A 
BRANCH  14  17
HETATM   17  N   UNL     1      43.877 -18.377   8.523  1.00  0.00    -0.303 NA
HETATM   18  H   UNL     1      44.702 -18.840   8.155  1.00  0.00     0.124 HD
HETATM   19  H   UNL     1      43.171 -19.037   8.833  1.00  0.00     0.124 HD
ENDBRANCH  14  17
ENDBRANCH   8  11
ENDBRANCH   2   7
BRANCH   1  20
HETATM   20  O   UNL     1      40.351 -12.030   3.385  1.00  0.00    -0.348 OA
BRANCH  20  21
HETATM   21  C   UNL     1      41.024 -11.168   2.449  1.00  0.00     0.171 C 
HETATM   22  C   UNL     1      41.599 -11.980   1.301  1.00  0.00     0.034 C 
ENDBRANCH  20  21
ENDBRANCH   1  20
BRANCH   6  23
HETATM   23  C   UNL     1      38.632 -10.150   4.915  1.00  0.00     0.252 C 
HETATM   24  N   UNL     1      37.891 -10.846   4.005  1.00  0.00    -0.366 N 
HETATM   25  H   UNL     1      38.159 -11.767   3.677  1.00  0.00     0.159 HD
HETATM   26  H   UNL     1      37.014 -10.451   3.694  1.00  0.00     0.159 HD
HETATM   27  O   UNL     1      38.258  -9.061   5.336  1.00  0.00    -0.268 OA
ENDBRANCH   6  23
BRANCH   4  28
HETATM   28  N   UNL     1      41.533 -10.817   8.714  1.00  0.00    -0.323 N 
HETATM   29  C   UNL     1      42.732 -10.659   9.383  1.00  0.00     0.256 C 
HETATM   30  O   UNL     1      43.837 -10.574   8.863  1.00  0.00    -0.267 OA
HETATM   31  H   UNL     1      40.688 -10.734   9.263  1.00  0.00     0.169 HD
BRANCH  29  32
HETATM   32  C   UNL     1      42.627 -10.577  10.877  1.00  0.00     0.032 A 
HETATM   33  C   UNL     1      43.586  -9.929  11.668  1.00  0.00     0.019 A 
HETATM   34  C   UNL     1      43.430  -9.865  13.059  1.00  0.00     0.024 A 
HETATM   35  C   UNL     1      42.333 -10.459  13.686  1.00  0.00     0.005 A 
HETATM   36  C   UNL     1      41.338 -11.028  12.887  1.00  0.00     0.024 A 
HETATM   37  C   UNL     1      41.490 -11.105  11.497  1.00  0.00     0.019 A 
BRANCH  35  38
HETATM   38  N   UNL     1      42.119 -10.270  15.054  1.00  0.00    -0.303 NA
HETATM   39  H   UNL     1      42.352 -11.075  15.627  1.00  0.00     0.124 HD
HETATM   40  H   UNL     1      41.205  -9.889  15.281  1.00  0.00     0.124 HD
ENDBRANCH  35  38
ENDBRANCH  29  32
ENDBRANCH   4  28
TORSDOF 9
ENDMDL
MODEL 10
REMARK VINA RESULT:      -7.5      4.819      8.904
REMARK  9 active torsions:
REMARK  status: ('A' for Active; 'I' for Inactive)
REMARK    1  A    between atoms: C_2  and  O_3 
REMARK    2  A    between atoms: O_3  and  C_4 
REMARK    3  A    between atoms: C_5  and  N_6 
REMARK       I    between atoms: N_6  and  C_7 
REMARK    4  A    between atoms: C_7  and  C_8 
REMARK    5  A    between atoms: C_11  and  N_12 
REMARK    6  A    between atoms: C_17  and  N_18 
REMARK       I    between atoms: N_18  and  C_19 
REMARK    7  A    between atoms: C_19  and  C_20 
REMARK    8  A    between atoms: C_23  and  N_24 
REMARK    9  A    between atoms: C_29  and  C_30 
REMARK       I    between atoms: C_30  and  N_31 
ROOT
HETATM    1  C   UNL     1      41.312 -14.437   3.111  1.00  0.00     0.111 A 
HETATM    2  C   UNL     1      41.329 -15.167   4.317  1.00  0.00     0.071 A 
HETATM    3  C   UNL     1      41.802 -14.567   5.492  1.00  0.00     0.062 A 
HETATM    4  C   UNL     1      42.233 -13.234   5.474  1.00  0.00     0.038 A 
HETATM    5  C   UNL     1      42.200 -12.517   4.270  1.00  0.00     0.049 A 
HETATM    6  C   UNL     1      41.708 -13.096   3.094  1.00  0.00     0.069 A 
ENDROOT
BRANCH   2   7
HETATM    7  N   UNL     1      40.765 -16.468   4.274  1.00  0.00    -0.320 N 
HETATM    8  C   UNL     1      41.101 -17.541   5.063  1.00  0.00     0.256 C 
HETATM    9  O   UNL     1      40.266 -18.031   5.821  1.00  0.00    -0.267 OA
HETATM   10  H   UNL     1      39.768 -16.431   4.077  1.00  0.00     0.169 HD
BRANCH   8  11
HETATM   11  C   UNL     1      42.385 -18.258   4.800  1.00  0.00     0.032 A 
HETATM   12  C   UNL     1      43.083 -18.785   5.893  1.00  0.00     0.019 A 
HETATM   13  C   UNL     1      44.186 -19.623   5.697  1.00  0.00     0.024 A 
HETATM   14  C   UNL     1      44.641 -19.914   4.409  1.00  0.00     0.005 A 
HETATM   15  C   UNL     1      43.924 -19.414   3.319  1.00  0.00     0.024 A 
HETATM   16  C   UNL     1      42.816 -18.578   3.508  1.00  0.00     0.019 A 
BRANCH  14  17
HETATM   17  N   UNL     1      45.628 -20.887   4.216  1.00  0.00    -0.303 NA
HETATM   18  H   UNL     1      45.865 -21.404   5.057  1.00  0.00     0.124 HD
HETATM   19  H   UNL     1      46.451 -20.549   3.727  1.00  0.00     0.124 HD
ENDBRANCH  14  17
ENDBRANCH   8  11
ENDBRANCH   2   7
BRANCH   1  20
HETATM   20  O   UNL     1      40.836 -15.078   1.988  1.00  0.00    -0.348 OA
BRANCH  20  21
HETATM   21  C   UNL     1      41.906 -15.581   1.169  1.00  0.00     0.171 C 
HETATM   22  C   UNL     1      41.496 -16.882   0.502  1.00  0.00     0.034 C 
ENDBRANCH  20  21
ENDBRANCH   1  20
BRANCH   6  23
HETATM   23  C   UNL     1      41.589 -12.204   1.911  1.00  0.00     0.252 C 
HETATM   24  N   UNL     1      40.363 -11.668   1.645  1.00  0.00    -0.366 N 
HETATM   25  H   UNL     1      39.552 -11.853   2.224  1.00  0.00     0.159 HD
HETATM   26  H   UNL     1      40.279 -11.016   0.877  1.00  0.00     0.159 HD
HETATM   27  O   UNL     1      42.566 -11.920   1.227  1.00  0.00    -0.268 OA
ENDBRANCH   6  23
BRANCH   4  28
HETATM   28  N   UNL     1      42.635 -12.502   6.613  1.00  0.00    -0.323 N 
HETATM   29  C   UNL     1      43.733 -12.726   7.423  1.00  0.00     0.256 C 
HETATM   30  O   UNL     1      44.656 -13.494   7.183  1.00  0.00    -0.267 OA
HETATM   31  H   UNL     1      42.023 -11.741   6.874  1.00  0.00     0.169 HD
BRANCH  29  32
HETATM   32  C   UNL     1      43.765 -11.931   8.695  1.00  0.00     0.032 A 
HETATM   33  C   UNL     1      42.822 -10.937   8.989  1.00  0.00     0.019 A 
HETATM   34  C   UNL     1      42.887 -10.238  10.201  1.00  0.00     0.024 A 
HETATM   35  C   UNL     1      43.897 -10.500  11.128  1.00  0.00     0.005 A 
HETATM   36  C   UNL     1      44.781 -11.550  10.869  1.00  0.00     0.024 A 
HETATM   37  C   UNL     1      44.730 -12.248   9.656  1.00  0.00     0.019 A 
BRANCH  35  38
HETATM   38  N   UNL     1      43.869  -9.895  12.388  1.00  0.00    -0.303 NA
HETATM   39  H   UNL     1      42.940  -9.817  12.792  1.00  0.00     0.124 HD
HETATM   40  H   UNL     1      44.385  -9.022  12.440  1.00  0.00     0.124 HD
ENDBRANCH  35  38
ENDBRANCH  29  32
ENDBRANCH   4  28
TORSDOF 9
ENDMDL
