MODEL 1
REMARK VINA RESULT:      -8.2      0.000      0.000
REMARK  4 active torsions:
REMARK  status: ('A' for Active; 'I' for Inactive)
REMARK    1  A    between atoms: C_7  and  C_8 
REMARK    2  A    between atoms: C_8  and  N_9 
REMARK    3  A    between atoms: N_15  and  C_17 
REMARK    4  A    between atoms: C_17  and  C_18 
ROOT
HETATM    1  N   UNL     1      39.883 -15.233   0.458  1.00  0.00    -0.067 N 
HETATM    2  H   UNL     1      39.433 -15.984  -0.083  1.00  0.00     0.280 HD
HETATM    3  C   UNL     1      41.286 -15.715   0.714  1.00  0.00     0.236 C 
HETATM    4  C   UNL     1      41.998 -14.811   1.719  1.00  0.00     0.039 C 
HETATM    5  C   UNL     1      41.239 -14.642   3.064  1.00  0.00    -0.013 C 
HETATM    6  C   UNL     1      41.229 -15.938   3.917  1.00  0.00     0.244 C 
HETATM    7  N   UNL     1      42.615 -16.288   4.385  1.00  0.00    -0.065 N 
HETATM    8  H   UNL     1      43.221 -16.440   3.561  1.00  0.00     0.280 HD
HETATM    9  C   UNL     1      43.235 -15.224   5.245  1.00  0.00     0.235 C 
HETATM   10  C   UNL     1      43.274 -13.916   4.466  1.00  0.00     0.029 C 
HETATM   11  C   UNL     1      41.902 -13.526   3.915  1.00  0.00     0.013 C 
HETATM   12  C   UNL     1      39.781 -14.210   2.737  1.00  0.00     0.039 C 
HETATM   13  C   UNL     1      39.070 -15.098   1.716  1.00  0.00     0.236 C 
ENDROOT
BRANCH   7  14
HETATM   14  C   UNL     1      42.676 -17.676   5.029  1.00  0.00     0.293 C 
BRANCH  14  15
HETATM   15  C   UNL     1      43.342 -18.670   4.099  1.00  0.00     0.060 A 
HETATM   16  N   UNL     1      44.250 -19.519   4.675  1.00  0.00    -0.264 NA
HETATM   17  C   UNL     1      44.793 -20.461   3.864  1.00  0.00     0.117 A 
HETATM   18  C   UNL     1      44.517 -20.569   2.512  1.00  0.00     0.019 A 
HETATM   19  C   UNL     1      43.611 -19.677   1.950  1.00  0.00     0.003 A 
HETATM   20  C   UNL     1      43.001 -18.718   2.752  1.00  0.00     0.029 A 
ENDBRANCH  14  15
ENDBRANCH   7  14
BRANCH   1  21
HETATM   21  C   UNL     1      39.763 -14.027  -0.474  1.00  0.00     0.278 C 
BRANCH  21  22
HETATM   22  C   UNL     1      40.718 -14.049  -1.603  1.00  0.00     0.025 A 
HETATM   23  C   UNL     1      41.852 -13.208  -1.802  1.00  0.00     0.068 A 
HETATM   24  C   UNL     1      42.346 -12.081  -0.973  1.00  0.00     0.073 C 
HETATM   25  N   UNL     1      42.527 -13.561  -2.896  1.00  0.00    -0.133 NA
HETATM   26  O   UNL     1      41.814 -14.582  -3.478  1.00  0.00    -0.217 OA
HETATM   27  C   UNL     1      40.723 -14.864  -2.720  1.00  0.00     0.085 A 
HETATM   28  C   UNL     1      39.853 -15.937  -3.240  1.00  0.00     0.079 C 
ENDBRANCH  21  22
ENDBRANCH   1  21
TORSDOF 4
ENDMDL
MODEL 2
REMARK VINA RESULT:      -7.8      2.561      7.316
REMARK  4 active torsions:
REMARK  status: ('A' for Active; 'I' for Inactive)
REMARK    1  A    between atoms: C_7  and  C_8 
REMARK    2  A    between atoms: C_8  and  N_9 
REMARK    3  A    between atoms: N_15  and  C_17 
REMARK    4  A    between atoms: C_17  and  C_18 
ROOT
HETATM    1  N   UNL     1      42.692 -17.577   2.188  1.00  0.00    -0.067 N 
HETATM    2  H   UNL     1      43.246 -18.230   1.617  1.00  0.00     0.280 HD
HETATM    3  C   UNL     1      41.402 -17.386   1.434  1.00  0.00     0.236 C 
HETATM    4  C   UNL     1      40.580 -16.250   2.038  1.00  0.00     0.039 C 
HETATM    5  C   UNL     1      41.344 -14.901   2.137  1.00  0.00    -0.013 C 
HETATM    6  C   UNL     1      41.608 -14.255   0.751  1.00  0.00     0.244 C 
HETATM    7  N   UNL     1      40.321 -13.835   0.097  1.00  0.00    -0.065 N 
HETATM    8  H   UNL     1      39.722 -14.668  -0.036  1.00  0.00     0.280 HD
HETATM    9  C   UNL     1      39.556 -12.818   0.895  1.00  0.00     0.235 C 
HETATM   10  C   UNL     1      39.264 -13.389   2.276  1.00  0.00     0.029 C 
HETATM   11  C   UNL     1      40.528 -13.885   2.980  1.00  0.00     0.013 C 
HETATM   12  C   UNL     1      42.693 -15.170   2.864  1.00  0.00     0.039 C 
HETATM   13  C   UNL     1      43.512 -16.320   2.276  1.00  0.00     0.236 C 
ENDROOT
BRANCH   7  14
HETATM   14  C   UNL     1      40.523 -13.409  -1.360  1.00  0.00     0.293 C 
BRANCH  14  15
HETATM   15  C   UNL     1      39.845 -14.383  -2.303  1.00  0.00     0.060 A 
HETATM   16  N   UNL     1      38.580 -14.046  -2.708  1.00  0.00    -0.264 NA
HETATM   17  C   UNL     1      37.996 -14.875  -3.611  1.00  0.00     0.117 A 
HETATM   18  C   UNL     1      38.584 -16.032  -4.090  1.00  0.00     0.019 A 
HETATM   19  C   UNL     1      39.858 -16.362  -3.641  1.00  0.00     0.003 A 
HETATM   20  C   UNL     1      40.509 -15.523  -2.743  1.00  0.00     0.029 A 
ENDBRANCH  14  15
ENDBRANCH   7  14
BRANCH   1  21
HETATM   21  C   UNL     1      42.569 -18.315   3.521  1.00  0.00     0.278 C 
BRANCH  21  22
HETATM   22  C   UNL     1      43.675 -19.261   3.783  1.00  0.00     0.025 A 
HETATM   23  C   UNL     1      44.604 -19.237   4.865  1.00  0.00     0.068 A 
HETATM   24  C   UNL     1      44.739 -18.256   5.970  1.00  0.00     0.073 C 
HETATM   25  N   UNL     1      45.421 -20.290   4.821  1.00  0.00    -0.133 NA
HETATM   26  O   UNL     1      45.100 -20.981   3.677  1.00  0.00    -0.217 OA
HETATM   27  C   UNL     1      44.071 -20.361   3.044  1.00  0.00     0.085 A 
HETATM   28  C   UNL     1      43.633 -20.991   1.783  1.00  0.00     0.079 C 
ENDBRANCH  21  22
ENDBRANCH   1  21
TORSDOF 4
ENDMDL
MODEL 3
REMARK VINA RESULT:      -7.7      1.732      2.293
REMARK  4 active torsions:
REMARK  status: ('A' for Active; 'I' for Inactive)
REMARK    1  A    between atoms: C_7  and  C_8 
REMARK    2  A    between atoms: C_8  and  N_9 
REMARK    3  A    between atoms: N_15  and  C_17 
REMARK    4  A    between atoms: C_17  and  C_18 
ROOT
HETATM    1  N   UNL     1      39.960 -15.059  -0.108  1.00  0.00    -0.067 N 
HETATM    2  H   UNL     1      39.394 -15.776  -0.584  1.00  0.00     0.280 HD
HETATM    3  C   UNL     1      41.281 -15.723   0.180  1.00  0.00     0.236 C 
HETATM    4  C   UNL     1      42.135 -14.859   1.104  1.00  0.00     0.039 C 
HETATM    5  C   UNL     1      41.433 -14.472   2.435  1.00  0.00    -0.013 C 
HETATM    6  C   UNL     1      41.245 -15.681   3.390  1.00  0.00     0.244 C 
HETATM    7  N   UNL     1      42.572 -16.194   3.878  1.00  0.00    -0.065 N 
HETATM    8  H   UNL     1      43.135 -16.500   3.066  1.00  0.00     0.280 HD
HETATM    9  C   UNL     1      43.357 -15.169   4.646  1.00  0.00     0.235 C 
HETATM   10  C   UNL     1      43.576 -13.948   3.764  1.00  0.00     0.029 C 
HETATM   11  C   UNL     1      42.268 -13.403   3.190  1.00  0.00     0.013 C 
HETATM   12  C   UNL     1      40.049 -13.855   2.081  1.00  0.00     0.039 C 
HETATM   13  C   UNL     1      39.198 -14.706   1.139  1.00  0.00     0.236 C 
ENDROOT
BRANCH   7  14
HETATM   14  C   UNL     1      42.438 -17.521   4.632  1.00  0.00     0.293 C 
BRANCH  14  15
HETATM   15  C   UNL     1      43.179 -18.627   3.907  1.00  0.00     0.060 A 
HETATM   16  N   UNL     1      44.084 -19.334   4.653  1.00  0.00    -0.264 NA
HETATM   17  C   UNL     1      44.695 -20.375   4.032  1.00  0.00     0.117 A 
HETATM   18  C   UNL     1      44.486 -20.713   2.706  1.00  0.00     0.019 A 
HETATM   19  C   UNL     1      43.580 -19.961   1.967  1.00  0.00     0.003 A 
HETATM   20  C   UNL     1      42.904 -18.908   2.573  1.00  0.00     0.029 A 
ENDBRANCH  14  15
ENDBRANCH   7  14
BRANCH   1  21
HETATM   21  C   UNL     1      40.004 -13.927  -1.133  1.00  0.00     0.278 C 
BRANCH  21  22
HETATM   22  C   UNL     1      38.953 -14.020  -2.171  1.00  0.00     0.025 A 
HETATM   23  C   UNL     1      38.860 -14.967  -3.233  1.00  0.00     0.068 A 
HETATM   24  C   UNL     1      39.789 -16.062  -3.605  1.00  0.00     0.073 C 
HETATM   25  N   UNL     1      37.739 -14.794  -3.934  1.00  0.00    -0.133 NA
HETATM   26  O   UNL     1      37.115 -13.691  -3.400  1.00  0.00    -0.217 OA
HETATM   27  C   UNL     1      37.846 -13.214  -2.360  1.00  0.00     0.085 A 
HETATM   28  C   UNL     1      37.298 -12.012  -1.701  1.00  0.00     0.079 C 
ENDBRANCH  21  22
ENDBRANCH   1  21
TORSDOF 4
ENDMDL
MODEL 4
REMARK VINA RESULT:      -7.6      2.931      8.077
REMARK  4 active torsions:
REMARK  status: ('A' for Active; 'I' for Inactive)
REMARK    1  A    between atoms: C_7  and  C_8 
REMARK    2  A    between atoms: C_8  and  N_9 
REMARK    3  A    between atoms: N_15  and  C_17 
REMARK    4  A    between atoms: C_17  and  C_18 
ROOT
HETATM    1  N   UNL     1      42.692 -17.340   2.253  1.00  0.00    -0.067 N 
HETATM    2  H   UNL     1      43.523 -17.791   1.846  1.00  0.00     0.280 HD
HETATM    3  C   UNL     1      41.579 -17.599   1.272  1.00  0.00     0.236 C 
HETATM    4  C   UNL     1      40.341 -16.777   1.623  1.00  0.00     0.039 C 
HETATM    5  C   UNL     1      40.607 -15.250   1.734  1.00  0.00    -0.013 C 
HETATM    6  C   UNL     1      40.917 -14.591   0.364  1.00  0.00     0.244 C 
HETATM    7  N   UNL     1      39.714 -14.630  -0.538  1.00  0.00    -0.065 N 
HETATM    8  H   UNL     1      39.445 -15.616  -0.699  1.00  0.00     0.280 HD
HETATM    9  C   UNL     1      38.529 -13.897   0.023  1.00  0.00     0.235 C 
HETATM   10  C   UNL     1      38.171 -14.494   1.377  1.00  0.00     0.029 C 
HETATM   11  C   UNL     1      39.367 -14.533   2.330  1.00  0.00     0.013 C 
HETATM   12  C   UNL     1      41.806 -15.046   2.704  1.00  0.00     0.039 C 
HETATM   13  C   UNL     1      43.042 -15.882   2.371  1.00  0.00     0.236 C 
ENDROOT
BRANCH   7  14
HETATM   14  C   UNL     1      40.049 -14.201  -1.970  1.00  0.00     0.293 C 
BRANCH  14  15
HETATM   15  C   UNL     1      38.783 -13.976  -2.773  1.00  0.00     0.060 A 
HETATM   16  N   UNL     1      38.399 -12.672  -2.940  1.00  0.00    -0.264 NA
HETATM   17  C   UNL     1      37.310 -12.460  -3.722  1.00  0.00     0.117 A 
HETATM   18  C   UNL     1      36.565 -13.472  -4.299  1.00  0.00     0.019 A 
HETATM   19  C   UNL     1      36.963 -14.788  -4.090  1.00  0.00     0.003 A 
HETATM   20  C   UNL     1      38.095 -15.051  -3.326  1.00  0.00     0.029 A 
ENDBRANCH  14  15
ENDBRANCH   7  14
BRANCH   1  21
HETATM   21  C   UNL     1      42.553 -18.042   3.603  1.00  0.00     0.278 C 
BRANCH  21  22
HETATM   22  C   UNL     1      43.660 -18.975   3.907  1.00  0.00     0.025 A 
HETATM   23  C   UNL     1      44.061 -20.123   3.161  1.00  0.00     0.068 A 
HETATM   24  C   UNL     1      43.466 -20.705   1.933  1.00  0.00     0.073 C 
HETATM   25  N   UNL     1      45.146 -20.686   3.694  1.00  0.00    -0.133 NA
HETATM   26  O   UNL     1      45.433 -19.974   4.834  1.00  0.00    -0.217 OA
HETATM   27  C   UNL     1      44.537 -18.963   4.975  1.00  0.00     0.085 A 
HETATM   28  C   UNL     1      44.718 -18.123   6.176  1.00  0.00     0.079 C 
ENDBRANCH  21  22
ENDBRANCH   1  21
TORSDOF 4
ENDMDL
MODEL 5
REMARK VINA RESULT:      -7.5      1.691      2.293
REMARK  4 active torsions:
REMARK  status: ('A' for Active; 'I' for Inactive)
REMARK    1  A    between atoms: C_7  and  C_8 
REMARK    2  A    between atoms: C_8  and  N_9 
REMARK    3  A    between atoms: N_15  and  C_17 
REMARK    4  A    between atoms: C_17  and  C_18 
ROOT
HETATM    1  N   UNL     1      40.716 -14.822   1.983  1.00  0.00    -0.067 N 
HETATM    2  H   UNL     1      40.226 -15.489   1.371  1.00  0.00     0.280 HD
HETATM    3  C   UNL     1      42.108 -15.377   2.139  1.00  0.00     0.236 C 
HETATM    4  C   UNL     1      42.877 -14.622   3.220  1.00  0.00     0.039 C 
HETATM    5  C   UNL     1      42.160 -14.587   4.598  1.00  0.00    -0.013 C 
HETATM    6  C   UNL     1      42.124 -15.974   5.294  1.00  0.00     0.244 C 
HETATM    7  N   UNL     1      43.509 -16.421   5.677  1.00  0.00    -0.065 N 
HETATM    8  H   UNL     1      44.087 -16.496   4.823  1.00  0.00     0.280 HD
HETATM    9  C   UNL     1      44.188 -15.487   6.636  1.00  0.00     0.235 C 
HETATM   10  C   UNL     1      44.255 -14.099   6.014  1.00  0.00     0.029 C 
HETATM   11  C   UNL     1      42.885 -13.602   5.554  1.00  0.00     0.013 C 
HETATM   12  C   UNL     1      40.711 -14.071   4.367  1.00  0.00     0.039 C 
HETATM   13  C   UNL     1      39.942 -14.809   3.271  1.00  0.00     0.236 C 
ENDROOT
BRANCH   7  14
HETATM   14  C   UNL     1      43.535 -17.877   6.153  1.00  0.00     0.293 C 
BRANCH  14  15
HETATM   15  C   UNL     1      43.999 -18.796   5.040  1.00  0.00     0.060 A 
HETATM   16  N   UNL     1      44.616 -19.954   5.434  1.00  0.00    -0.264 NA
HETATM   17  C   UNL     1      44.966 -20.817   4.446  1.00  0.00     0.117 A 
HETATM   18  C   UNL     1      44.775 -20.566   3.098  1.00  0.00     0.019 A 
HETATM   19  C   UNL     1      44.170 -19.371   2.728  1.00  0.00     0.003 A 
HETATM   20  C   UNL     1      43.762 -18.473   3.708  1.00  0.00     0.029 A 
ENDBRANCH  14  15
ENDBRANCH   7  14
BRANCH   1  21
HETATM   21  C   UNL     1      40.617 -13.512   1.202  1.00  0.00     0.278 C 
BRANCH  21  22
HETATM   22  C   UNL     1      39.903 -13.638  -0.087  1.00  0.00     0.025 A 
HETATM   23  C   UNL     1      38.504 -13.827  -0.293  1.00  0.00     0.068 A 
HETATM   24  C   UNL     1      37.418 -13.989   0.704  1.00  0.00     0.073 C 
HETATM   25  N   UNL     1      38.206 -13.825  -1.593  1.00  0.00    -0.133 NA
HETATM   26  O   UNL     1      39.400 -13.714  -2.265  1.00  0.00    -0.217 OA
HETATM   27  C   UNL     1      40.418 -13.621  -1.370  1.00  0.00     0.085 A 
HETATM   28  C   UNL     1      41.768 -13.513  -1.958  1.00  0.00     0.079 C 
ENDBRANCH  21  22
ENDBRANCH   1  21
TORSDOF 4
ENDMDL
MODEL 6
REMARK VINA RESULT:      -7.4      2.947      7.360
REMARK  4 active torsions:
REMARK  status: ('A' for Active; 'I' for Inactive)
REMARK    1  A    between atoms: C_7  and  C_8 
REMARK    2  A    between atoms: C_8  and  N_9 
REMARK    3  A    between atoms: N_15  and  C_17 
REMARK    4  A    between atoms: C_17  and  C_18 
ROOT
HETATM    1  N   UNL     1      43.097 -17.708   3.076  1.00  0.00    -0.067 N 
HETATM    2  H   UNL     1      43.222 -17.820   4.092  1.00  0.00     0.280 HD
HETATM    3  C   UNL     1      43.334 -16.245   2.807  1.00  0.00     0.236 C 
HETATM    4  C   UNL     1      42.941 -15.883   1.377  1.00  0.00     0.039 C 
HETATM    5  C   UNL     1      41.480 -16.263   1.008  1.00  0.00    -0.013 C 
HETATM    6  C   UNL     1      40.428 -15.390   1.743  1.00  0.00     0.244 C 
HETATM    7  N   UNL     1      40.500 -13.959   1.288  1.00  0.00    -0.065 N 
HETATM    8  H   UNL     1      41.441 -13.585   1.497  1.00  0.00     0.280 HD
HETATM    9  C   UNL     1      40.234 -13.791  -0.181  1.00  0.00     0.235 C 
HETATM   10  C   UNL     1      41.235 -14.626  -0.966  1.00  0.00     0.029 C 
HETATM   11  C   UNL     1      41.251 -16.088  -0.517  1.00  0.00     0.013 C 
HETATM   12  C   UNL     1      41.273 -17.762   1.368  1.00  0.00     0.039 C 
HETATM   13  C   UNL     1      41.684 -18.135   2.792  1.00  0.00     0.236 C 
ENDROOT
BRANCH   7  14
HETATM   14  C   UNL     1      39.640 -13.032   2.152  1.00  0.00     0.293 C 
BRANCH  14  15
HETATM   15  C   UNL     1      40.290 -12.803   3.503  1.00  0.00     0.060 A 
HETATM   16  N   UNL     1      39.448 -12.807   4.584  1.00  0.00    -0.264 NA
HETATM   17  C   UNL     1      40.033 -12.680   5.803  1.00  0.00     0.117 A 
HETATM   18  C   UNL     1      41.392 -12.504   5.993  1.00  0.00     0.019 A 
HETATM   19  C   UNL     1      42.218 -12.478   4.875  1.00  0.00     0.003 A 
HETATM   20  C   UNL     1      41.667 -12.641   3.608  1.00  0.00     0.029 A 
ENDBRANCH  14  15
ENDBRANCH   7  14
BRANCH   1  21
HETATM   21  C   UNL     1      44.146 -18.659   2.500  1.00  0.00     0.278 C 
BRANCH  21  22
HETATM   22  C   UNL     1      44.407 -19.843   3.347  1.00  0.00     0.025 A 
HETATM   23  C   UNL     1      44.373 -21.215   2.961  1.00  0.00     0.068 A 
HETATM   24  C   UNL     1      44.031 -21.817   1.649  1.00  0.00     0.073 C 
HETATM   25  N   UNL     1      44.733 -22.007   3.971  1.00  0.00    -0.133 NA
HETATM   26  O   UNL     1      44.935 -21.186   5.055  1.00  0.00    -0.217 OA
HETATM   27  C   UNL     1      44.723 -19.895   4.692  1.00  0.00     0.085 A 
HETATM   28  C   UNL     1      44.889 -18.900   5.771  1.00  0.00     0.079 C 
ENDBRANCH  21  22
ENDBRANCH   1  21
TORSDOF 4
ENDMDL
MODEL 7
REMARK VINA RESULT:      -7.4      2.871      7.215
REMARK  4 active torsions:
REMARK  status: ('A' for Active; 'I' for Inactive)
REMARK    1  A    between atoms: C_7  and  C_8 
REMARK    2  A    between atoms: C_8  and  N_9 
REMARK    3  A    between atoms: N_15  and  C_17 
REMARK    4  A    between atoms: C_17  and  C_18 
ROOT
HETATM    1  N   UNL     1      43.089 -17.694   3.090  1.00  0.00    -0.067 N 
HETATM    2  H   UNL     1      43.204 -17.828   4.104  1.00  0.00     0.280 HD
HETATM    3  C   UNL     1      43.292 -16.220   2.858  1.00  0.00     0.236 C 
HETATM    4  C   UNL     1      42.907 -15.834   1.432  1.00  0.00     0.039 C 
HETATM    5  C   UNL     1      41.461 -16.242   1.035  1.00  0.00    -0.013 C 
HETATM    6  C   UNL     1      40.378 -15.415   1.777  1.00  0.00     0.244 C 
HETATM    7  N   UNL     1      40.418 -13.971   1.356  1.00  0.00    -0.065 N 
HETATM    8  H   UNL     1      41.348 -13.579   1.586  1.00  0.00     0.280 HD
HETATM    9  C   UNL     1      40.166 -13.776  -0.112  1.00  0.00     0.235 C 
HETATM   10  C   UNL     1      41.198 -14.567  -0.903  1.00  0.00     0.029 C 
HETATM   11  C   UNL     1      41.247 -16.038  -0.488  1.00  0.00     0.013 C 
HETATM   12  C   UNL     1      41.288 -17.754   1.357  1.00  0.00     0.039 C 
HETATM   13  C   UNL     1      41.691 -18.150   2.778  1.00  0.00     0.236 C 
ENDROOT
BRANCH   7  14
HETATM   14  C   UNL     1      39.525 -13.087   2.231  1.00  0.00     0.293 C 
BRANCH  14  15
HETATM   15  C   UNL     1      40.192 -12.800   3.561  1.00  0.00     0.060 A 
HETATM   16  N   UNL     1      39.365 -12.752   4.652  1.00  0.00    -0.264 NA
HETATM   17  C   UNL     1      39.965 -12.571   5.856  1.00  0.00     0.117 A 
HETATM   18  C   UNL     1      41.327 -12.391   6.020  1.00  0.00     0.019 A 
HETATM   19  C   UNL     1      42.139 -12.419   4.892  1.00  0.00     0.003 A 
HETATM   20  C   UNL     1      41.571 -12.638   3.641  1.00  0.00     0.029 A 
ENDBRANCH  14  15
ENDBRANCH   7  14
BRANCH   1  21
HETATM   21  C   UNL     1      44.169 -18.604   2.505  1.00  0.00     0.278 C 
BRANCH  21  22
HETATM   22  C   UNL     1      44.414 -19.827   3.301  1.00  0.00     0.025 A 
HETATM   23  C   UNL     1      44.766 -19.912   4.680  1.00  0.00     0.068 A 
HETATM   24  C   UNL     1      45.019 -18.825   5.657  1.00  0.00     0.073 C 
HETATM   25  N   UNL     1      44.837 -21.182   5.080  1.00  0.00    -0.133 NA
HETATM   26  O   UNL     1      44.612 -21.953   3.965  1.00  0.00    -0.217 OA
HETATM   27  C   UNL     1      44.378 -21.148   2.896  1.00  0.00     0.085 A 
HETATM   28  C   UNL     1      44.136 -21.849   1.619  1.00  0.00     0.079 C 
ENDBRANCH  21  22
ENDBRANCH   1  21
TORSDOF 4
ENDMDL
MODEL 8
REMARK VINA RESULT:      -7.2      3.750      7.788
REMARK  4 active torsions:
REMARK  status: ('A' for Active; 'I' for Inactive)
REMARK    1  A    between atoms: C_7  and  C_8 
REMARK    2  A    between atoms: C_8  and  N_9 
REMARK    3  A    between atoms: N_15  and  C_17 
REMARK    4  A    between atoms: C_17  and  C_18 
ROOT
HETATM    1  N   UNL     1      42.528 -16.911   4.338  1.00  0.00    -0.067 N 
HETATM    2  H   UNL     1      42.597 -17.504   5.177  1.00  0.00     0.280 HD
HETATM    3  C   UNL     1      42.780 -15.508   4.822  1.00  0.00     0.236 C 
HETATM    4  C   UNL     1      42.466 -14.490   3.728  1.00  0.00     0.039 C 
HETATM    5  C   UNL     1      41.027 -14.605   3.152  1.00  0.00    -0.013 C 
HETATM    6  C   UNL     1      39.937 -14.168   4.166  1.00  0.00     0.244 C 
HETATM    7  N   UNL     1      40.034 -12.697   4.464  1.00  0.00    -0.065 N 
HETATM    8  H   UNL     1      40.963 -12.496   4.873  1.00  0.00     0.280 HD
HETATM    9  C   UNL     1      39.849 -11.833   3.249  1.00  0.00     0.235 C 
HETATM   10  C   UNL     1      40.891 -12.213   2.207  1.00  0.00     0.029 C 
HETATM   11  C   UNL     1      40.882 -13.709   1.893  1.00  0.00     0.013 C 
HETATM   12  C   UNL     1      40.800 -16.085   2.732  1.00  0.00     0.039 C 
HETATM   13  C   UNL     1      41.133 -17.110   3.816  1.00  0.00     0.236 C 
ENDROOT
BRANCH   7  14
HETATM   14  C   UNL     1      39.129 -12.280   5.627  1.00  0.00     0.293 C 
BRANCH  14  15
HETATM   15  C   UNL     1      39.880 -11.393   6.600  1.00  0.00     0.060 A 
HETATM   16  N   UNL     1      39.112 -10.566   7.377  1.00  0.00    -0.264 NA
HETATM   17  C   UNL     1      39.772  -9.825   8.303  1.00  0.00     0.117 A 
HETATM   18  C   UNL     1      41.147  -9.831   8.461  1.00  0.00     0.019 A 
HETATM   19  C   UNL     1      41.902 -10.662   7.640  1.00  0.00     0.003 A 
HETATM   20  C   UNL     1      41.265 -11.466   6.702  1.00  0.00     0.029 A 
ENDBRANCH  14  15
ENDBRANCH   7  14
BRANCH   1  21
HETATM   21  C   UNL     1      43.607 -17.493   3.424  1.00  0.00     0.278 C 
BRANCH  21  22
HETATM   22  C   UNL     1      44.148 -18.789   3.890  1.00  0.00     0.025 A 
HETATM   23  C   UNL     1      44.125 -20.040   3.207  1.00  0.00     0.068 A 
HETATM   24  C   UNL     1      43.526 -20.385   1.894  1.00  0.00     0.073 C 
HETATM   25  N   UNL     1      44.771 -20.978   3.899  1.00  0.00    -0.133 NA
HETATM   26  O   UNL     1      45.164 -20.389   5.077  1.00  0.00    -0.217 OA
HETATM   27  C   UNL     1      44.777 -19.087   5.085  1.00  0.00     0.085 A 
HETATM   28  C   UNL     1      45.121 -18.333   6.307  1.00  0.00     0.079 C 
ENDBRANCH  21  22
ENDBRANCH   1  21
TORSDOF 4
ENDMDL
MODEL 9
REMARK VINA RESULT:      -7.1      3.199      8.148
REMARK  4 active torsions:
REMARK  status: ('A' for Active; 'I' for Inactive)
REMARK    1  A    between atoms: C_7  and  C_8 
REMARK    2  A    between atoms: C_8  and  N_9 
REMARK    3  A    between atoms: N_15  and  C_17 
REMARK    4  A    between atoms: C_17  and  C_18 
ROOT
HETATM    1  N   UNL     1      41.966 -16.337   4.721  1.00  0.00    -0.067 N 
HETATM    2  H   UNL     1      41.553 -16.321   5.664  1.00  0.00     0.280 HD
HETATM    3  C   UNL     1      41.675 -14.980   4.137  1.00  0.00     0.236 C 
HETATM    4  C   UNL     1      42.012 -14.944   2.649  1.00  0.00     0.039 C 
HETATM    5  C   UNL     1      41.304 -16.046   1.813  1.00  0.00    -0.013 C 
HETATM    6  C   UNL     1      39.774 -15.817   1.688  1.00  0.00     0.244 C 
HETATM    7  N   UNL     1      39.477 -14.581   0.884  1.00  0.00    -0.065 N 
HETATM    8  H   UNL     1      39.896 -13.762   1.358  1.00  0.00     0.280 HD
HETATM    9  C   UNL     1      40.009 -14.645  -0.519  1.00  0.00     0.235 C 
HETATM   10  C   UNL     1      41.514 -14.872  -0.470  1.00  0.00     0.029 C 
HETATM   11  C   UNL     1      41.891 -16.088   0.377  1.00  0.00     0.013 C 
HETATM   12  C   UNL     1      41.582 -17.414   2.498  1.00  0.00     0.039 C 
HETATM   13  C   UNL     1      41.266 -17.451   3.994  1.00  0.00     0.236 C 
ENDROOT
BRANCH   7  14
HETATM   14  C   UNL     1      37.995 -14.198   0.936  1.00  0.00     0.293 C 
BRANCH  14  15
HETATM   15  C   UNL     1      37.828 -12.761   1.387  1.00  0.00     0.060 A 
HETATM   16  N   UNL     1      36.800 -12.064   0.807  1.00  0.00    -0.264 NA
HETATM   17  C   UNL     1      36.597 -10.801   1.261  1.00  0.00     0.117 A 
HETATM   18  C   UNL     1      37.385 -10.189   2.219  1.00  0.00     0.019 A 
HETATM   19  C   UNL     1      38.436 -10.912   2.771  1.00  0.00     0.003 A 
HETATM   20  C   UNL     1      38.660 -12.222   2.362  1.00  0.00     0.029 A 
ENDBRANCH  14  15
ENDBRANCH   7  14
BRANCH   1  21
HETATM   21  C   UNL     1      43.439 -16.628   5.003  1.00  0.00     0.278 C 
BRANCH  21  22
HETATM   22  C   UNL     1      43.671 -17.907   5.709  1.00  0.00     0.025 A 
HETATM   23  C   UNL     1      43.597 -18.153   7.112  1.00  0.00     0.068 A 
HETATM   24  C   UNL     1      43.319 -17.209   8.221  1.00  0.00     0.073 C 
HETATM   25  N   UNL     1      43.796 -19.443   7.384  1.00  0.00    -0.133 NA
HETATM   26  O   UNL     1      44.079 -20.053   6.186  1.00  0.00    -0.217 OA
HETATM   27  C   UNL     1      44.024 -19.137   5.185  1.00  0.00     0.085 A 
HETATM   28  C   UNL     1      44.326 -19.655   3.836  1.00  0.00     0.079 C 
ENDBRANCH  21  22
ENDBRANCH   1  21
TORSDOF 4
ENDMDL
MODEL 10
REMARK VINA RESULT:      -7.1      3.720      6.073
REMARK  4 active torsions:
REMARK  status: ('A' for Active; 'I' for Inactive)
REMARK    1  A    between atoms: C_7  and  C_8 
REMARK    2  A    between atoms: C_8  and  N_9 
REMARK    3  A    between atoms: N_15  and  C_17 
REMARK    4  A    between atoms: C_17  and  C_18 
ROOT
HETATM    1  N   UNL     1      42.153 -13.519   5.750  1.00  0.00    -0.067 N 
HETATM    2  H   UNL     1      42.879 -13.302   6.446  1.00  0.00     0.280 HD
HETATM    3  C   UNL     1      41.957 -15.010   5.834  1.00  0.00     0.236 C 
HETATM    4  C   UNL     1      41.084 -15.511   4.685  1.00  0.00     0.039 C 
HETATM    5  C   UNL     1      41.612 -15.122   3.276  1.00  0.00    -0.013 C 
HETATM    6  C   UNL     1      42.915 -15.871   2.893  1.00  0.00     0.244 C 
HETATM    7  N   UNL     1      42.663 -17.346   2.733  1.00  0.00    -0.065 N 
HETATM    8  H   UNL     1      42.315 -17.727   3.629  1.00  0.00     0.280 HD
HETATM    9  C   UNL     1      41.665 -17.662   1.657  1.00  0.00     0.235 C 
HETATM   10  C   UNL     1      40.355 -16.952   1.970  1.00  0.00     0.029 C 
HETATM   11  C   UNL     1      40.547 -15.452   2.197  1.00  0.00     0.013 C 
HETATM   12  C   UNL     1      41.860 -13.586   3.268  1.00  0.00     0.039 C 
HETATM   13  C   UNL     1      42.715 -13.076   4.428  1.00  0.00     0.236 C 
ENDROOT
BRANCH   7  14
HETATM   14  C   UNL     1      43.963 -18.142   2.584  1.00  0.00     0.293 C 
BRANCH  14  15
HETATM   15  C   UNL     1      44.097 -19.162   3.698  1.00  0.00     0.060 A 
HETATM   16  N   UNL     1      44.637 -20.371   3.345  1.00  0.00    -0.264 NA
HETATM   17  C   UNL     1      44.831 -21.260   4.352  1.00  0.00     0.117 A 
HETATM   18  C   UNL     1      44.476 -21.027   5.669  1.00  0.00     0.019 A 
HETATM   19  C   UNL     1      43.907 -19.800   5.992  1.00  0.00     0.003 A 
HETATM   20  C   UNL     1      43.723 -18.844   4.999  1.00  0.00     0.029 A 
ENDBRANCH  14  15
ENDBRANCH   7  14
BRANCH   1  21
HETATM   21  C   UNL     1      40.970 -12.674   6.221  1.00  0.00     0.278 C 
BRANCH  21  22
HETATM   22  C   UNL     1      41.279 -11.233   6.347  1.00  0.00     0.025 A 
HETATM   23  C   UNL     1      40.959 -10.190   5.429  1.00  0.00     0.068 A 
HETATM   24  C   UNL     1      40.284 -10.269   4.111  1.00  0.00     0.073 C 
HETATM   25  N   UNL     1      41.330  -9.001   5.905  1.00  0.00    -0.133 NA
HETATM   26  O   UNL     1      41.966  -9.243   7.099  1.00  0.00    -0.217 OA
HETATM   27  C   UNL     1      41.955 -10.576   7.358  1.00  0.00     0.085 A 
HETATM   28  C   UNL     1      42.624 -10.982   8.610  1.00  0.00     0.079 C 
ENDBRANCH  21  22
ENDBRANCH   1  21
TORSDOF 4
ENDMDL
