MODEL 1
REMARK VINA RESULT:      -9.4      0.000      0.000
REMARK  2 active torsions:
REMARK  status: ('A' for Active; 'I' for Inactive)
REMARK    1  A    between atoms: C_4  and  C_5 
REMARK       I    between atoms: N_12  and  C_13 
REMARK    2  A    between atoms: C_13  and  C_14 
ROOT
HETATM    1  C   UNL     1      44.200 -18.674   5.140  1.00  0.00     0.097 A 
HETATM    2  N   UNL     1      44.659 -19.194   6.295  1.00  0.00    -0.173 NA
HETATM    3  N   UNL     1      44.629 -18.182   7.174  1.00  0.00    -0.281 N 
HETATM    4  H   UNL     1      44.924 -18.362   8.127  1.00  0.00     0.189 HD
HETATM    5  C   UNL     1      44.155 -17.035   6.632  1.00  0.00     0.039 A 
HETATM    6  C   UNL     1      43.887 -17.293   5.309  1.00  0.00     0.015 A 
HETATM    7  C   UNL     1      43.334 -16.278   4.372  1.00  0.00     0.169 C 
HETATM    8  N   UNL     1      42.886 -15.071   5.109  1.00  0.00    -0.343 N 
HETATM    9  C   UNL     1      42.151 -14.055   4.487  1.00  0.00     0.254 C 
HETATM   10  O   UNL     1      42.012 -12.928   4.959  1.00  0.00    -0.267 OA
HETATM   11  C   UNL     1      43.697 -14.653   6.275  1.00  0.00     0.132 C 
HETATM   12  C   UNL     1      43.894 -15.758   7.330  1.00  0.00     0.079 C 
ENDROOT
BRANCH   9  13
HETATM   13  C   UNL     1      41.543 -14.298   3.162  1.00  0.00     0.035 A 
HETATM   14  C   UNL     1      42.159 -13.714   2.047  1.00  0.00     0.056 A 
HETATM   15  C   UNL     1      41.570 -13.919   0.820  1.00  0.00     0.106 A 
HETATM   16  C   UNL     1      40.418 -14.658   0.681  1.00  0.00     0.105 A 
HETATM   17  O   UNL     1      42.025 -13.437  -0.367  1.00  0.00    -0.323 OA
HETATM   18  O   UNL     1      40.007 -14.734  -0.613  1.00  0.00    -0.323 OA
HETATM   19  C   UNL     1      39.781 -15.226   1.765  1.00  0.00     0.041 A 
HETATM   20  C   UNL     1      41.013 -13.934  -1.268  1.00  0.00     0.352 A 
HETATM   21  C   UNL     1      40.347 -15.032   3.029  1.00  0.00     0.020 A 
ENDBRANCH   9  13
BRANCH   1  22
HETATM   22  C   UNL     1      44.033 -19.521   3.956  1.00  0.00    -0.005 A 
HETATM   23  C   UNL     1      44.670 -20.772   3.903  1.00  0.00     0.014 A 
HETATM   24  C   UNL     1      44.503 -21.615   2.802  1.00  0.00     0.001 A 
HETATM   25  C   UNL     1      43.697 -21.216   1.737  1.00  0.00     0.000 A 
HETATM   26  C   UNL     1      43.070 -19.972   1.770  1.00  0.00     0.001 A 
HETATM   27  C   UNL     1      43.240 -19.126   2.870  1.00  0.00     0.014 A 
ENDBRANCH   1  22
TORSDOF 2
ENDMDL
MODEL 2
REMARK VINA RESULT:      -8.7      1.331      1.736
REMARK  2 active torsions:
REMARK  status: ('A' for Active; 'I' for Inactive)
REMARK    1  A    between atoms: C_4  and  C_5 
REMARK       I    between atoms: N_12  and  C_13 
REMARK    2  A    between atoms: C_13  and  C_14 
ROOT
HETATM    1  C   UNL     1      43.819 -17.904   4.765  1.00  0.00     0.097 A 
HETATM    2  N   UNL     1      43.986 -18.083   6.090  1.00  0.00    -0.173 NA
HETATM    3  N   UNL     1      43.789 -16.873   6.635  1.00  0.00    -0.281 N 
HETATM    4  H   UNL     1      43.854 -16.783   7.644  1.00  0.00     0.189 HD
HETATM    5  C   UNL     1      43.490 -15.927   5.714  1.00  0.00     0.039 A 
HETATM    6  C   UNL     1      43.522 -16.539   4.483  1.00  0.00     0.015 A 
HETATM    7  C   UNL     1      43.232 -15.828   3.209  1.00  0.00     0.169 C 
HETATM    8  N   UNL     1      42.668 -14.482   3.473  1.00  0.00    -0.343 N 
HETATM    9  C   UNL     1      42.128 -13.692   2.451  1.00  0.00     0.254 C 
HETATM   10  O   UNL     1      41.923 -12.484   2.560  1.00  0.00    -0.267 OA
HETATM   11  C   UNL     1      43.205 -13.743   4.639  1.00  0.00     0.132 C 
HETATM   12  C   UNL     1      43.120 -14.519   5.966  1.00  0.00     0.079 C 
ENDROOT
BRANCH   9  13
HETATM   13  C   UNL     1      41.831 -14.298   1.137  1.00  0.00     0.035 A 
HETATM   14  C   UNL     1      41.824 -13.456   0.018  1.00  0.00     0.056 A 
HETATM   15  C   UNL     1      41.517 -14.022  -1.198  1.00  0.00     0.106 A 
HETATM   16  C   UNL     1      41.216 -15.359  -1.322  1.00  0.00     0.105 A 
HETATM   17  O   UNL     1      41.466 -13.365  -2.387  1.00  0.00    -0.323 OA
HETATM   18  O   UNL     1      40.941 -15.709  -2.607  1.00  0.00    -0.323 OA
HETATM   19  C   UNL     1      41.195 -16.206  -0.233  1.00  0.00     0.041 A 
HETATM   20  C   UNL     1      41.073 -14.435  -3.272  1.00  0.00     0.352 A 
HETATM   21  C   UNL     1      41.496 -15.663   1.020  1.00  0.00     0.020 A 
ENDBRANCH   9  13
BRANCH   1  22
HETATM   22  C   UNL     1      43.898 -19.042   3.845  1.00  0.00    -0.005 A 
HETATM   23  C   UNL     1      44.673 -20.162   4.191  1.00  0.00     0.014 A 
HETATM   24  C   UNL     1      44.741 -21.274   3.350  1.00  0.00     0.001 A 
HETATM   25  C   UNL     1      44.036 -21.280   2.148  1.00  0.00     0.000 A 
HETATM   26  C   UNL     1      43.275 -20.171   1.784  1.00  0.00     0.001 A 
HETATM   27  C   UNL     1      43.209 -19.056   2.625  1.00  0.00     0.014 A 
ENDBRANCH   1  22
TORSDOF 2
ENDMDL
MODEL 3
REMARK VINA RESULT:      -8.3      2.365      3.602
REMARK  2 active torsions:
REMARK  status: ('A' for Active; 'I' for Inactive)
REMARK    1  A    between atoms: C_4  and  C_5 
REMARK       I    between atoms: N_12  and  C_13 
REMARK    2  A    between atoms: C_13  and  C_14 
ROOT
HETATM    1  C   UNL     1      41.380 -16.450   4.539  1.00  0.00     0.097 A 
HETATM    2  N   UNL     1      40.899 -16.852   5.732  1.00  0.00    -0.173 NA
HETATM    3  N   UNL     1      40.186 -15.813   6.192  1.00  0.00    -0.281 N 
HETATM    4  H   UNL     1      39.716 -15.909   7.086  1.00  0.00     0.189 HD
HETATM    5  C   UNL     1      40.180 -14.764   5.335  1.00  0.00     0.039 A 
HETATM    6  C   UNL     1      40.961 -15.116   4.260  1.00  0.00     0.015 A 
HETATM    7  C   UNL     1      41.192 -14.226   3.090  1.00  0.00     0.169 C 
HETATM    8  N   UNL     1      40.282 -13.056   3.131  1.00  0.00    -0.343 N 
HETATM    9  C   UNL     1      40.160 -12.175   2.050  1.00  0.00     0.254 C 
HETATM   10  O   UNL     1      39.659 -11.056   2.136  1.00  0.00    -0.267 OA
HETATM   11  C   UNL     1      39.980 -12.482   4.462  1.00  0.00     0.132 C 
HETATM   12  C   UNL     1      39.423 -13.502   5.473  1.00  0.00     0.079 C 
ENDROOT
BRANCH   9  13
HETATM   13  C   UNL     1      40.706 -12.556   0.730  1.00  0.00     0.035 A 
HETATM   14  C   UNL     1      39.995 -13.501  -0.020  1.00  0.00     0.056 A 
HETATM   15  C   UNL     1      40.526 -13.874  -1.233  1.00  0.00     0.106 A 
HETATM   16  C   UNL     1      41.711 -13.354  -1.699  1.00  0.00     0.105 A 
HETATM   17  O   UNL     1      39.977 -14.770  -2.096  1.00  0.00    -0.323 OA
HETATM   18  O   UNL     1      42.054 -13.857  -2.915  1.00  0.00    -0.323 OA
HETATM   19  C   UNL     1      42.442 -12.437  -0.971  1.00  0.00     0.041 A 
HETATM   20  C   UNL     1      40.965 -14.776  -3.147  1.00  0.00     0.352 A 
HETATM   21  C   UNL     1      41.936 -12.041   0.272  1.00  0.00     0.020 A 
ENDBRANCH   9  13
BRANCH   1  22
HETATM   22  C   UNL     1      42.166 -17.365   3.707  1.00  0.00    -0.005 A 
HETATM   23  C   UNL     1      43.258 -18.047   4.266  1.00  0.00     0.014 A 
HETATM   24  C   UNL     1      44.005 -18.950   3.507  1.00  0.00     0.001 A 
HETATM   25  C   UNL     1      43.669 -19.181   2.174  1.00  0.00     0.000 A 
HETATM   26  C   UNL     1      42.596 -18.501   1.601  1.00  0.00     0.001 A 
HETATM   27  C   UNL     1      41.851 -17.594   2.361  1.00  0.00     0.014 A 
ENDBRANCH   1  22
TORSDOF 2
ENDMDL
MODEL 4
REMARK VINA RESULT:      -8.3      3.180      6.050
REMARK  2 active torsions:
REMARK  status: ('A' for Active; 'I' for Inactive)
REMARK    1  A    between atoms: C_4  and  C_5 
REMARK       I    between atoms: N_12  and  C_13 
REMARK    2  A    between atoms: C_13  and  C_14 
ROOT
HETATM    1  C   UNL     1      42.767 -15.007   3.768  1.00  0.00     0.097 A 
HETATM    2  N   UNL     1      42.808 -13.679   3.995  1.00  0.00    -0.173 NA
HETATM    3  N   UNL     1      43.215 -13.552   5.267  1.00  0.00    -0.281 N 
HETATM    4  H   UNL     1      43.331 -12.618   5.645  1.00  0.00     0.189 HD
HETATM    5  C   UNL     1      43.450 -14.746   5.862  1.00  0.00     0.039 A 
HETATM    6  C   UNL     1      43.149 -15.722   4.940  1.00  0.00     0.015 A 
HETATM    7  C   UNL     1      43.292 -17.177   5.215  1.00  0.00     0.169 C 
HETATM    8  N   UNL     1      44.026 -17.405   6.484  1.00  0.00    -0.343 N 
HETATM    9  C   UNL     1      44.463 -18.678   6.867  1.00  0.00     0.254 C 
HETATM   10  O   UNL     1      44.805 -18.964   8.013  1.00  0.00    -0.267 OA
HETATM   11  C   UNL     1      43.770 -16.454   7.590  1.00  0.00     0.132 C 
HETATM   12  C   UNL     1      43.998 -14.978   7.214  1.00  0.00     0.079 C 
ENDROOT
BRANCH   9  13
HETATM   13  C   UNL     1      44.473 -19.777   5.879  1.00  0.00     0.035 A 
HETATM   14  C   UNL     1      44.485 -19.432   4.522  1.00  0.00     0.056 A 
HETATM   15  C   UNL     1      44.463 -20.460   3.608  1.00  0.00     0.106 A 
HETATM   16  C   UNL     1      44.420 -21.778   3.998  1.00  0.00     0.105 A 
HETATM   17  O   UNL     1      44.475 -20.318   2.256  1.00  0.00    -0.323 OA
HETATM   18  O   UNL     1      44.402 -22.630   2.938  1.00  0.00    -0.323 OA
HETATM   19  C   UNL     1      44.386 -22.145   5.328  1.00  0.00     0.041 A 
HETATM   20  C   UNL     1      44.408 -21.697   1.837  1.00  0.00     0.352 A 
HETATM   21  C   UNL     1      44.399 -21.125   6.285  1.00  0.00     0.020 A 
ENDBRANCH   9  13
BRANCH   1  22
HETATM   22  C   UNL     1      42.420 -15.524   2.442  1.00  0.00    -0.005 A 
HETATM   23  C   UNL     1      43.144 -16.601   1.905  1.00  0.00     0.014 A 
HETATM   24  C   UNL     1      42.814 -17.137   0.659  1.00  0.00     0.001 A 
HETATM   25  C   UNL     1      41.755 -16.599  -0.070  1.00  0.00     0.000 A 
HETATM   26  C   UNL     1      41.036 -15.521   0.443  1.00  0.00     0.001 A 
HETATM   27  C   UNL     1      41.368 -14.983   1.690  1.00  0.00     0.014 A 
ENDBRANCH   1  22
TORSDOF 2
ENDMDL
MODEL 5
REMARK VINA RESULT:      -8.2      2.957      6.274
REMARK  2 active torsions:
REMARK  status: ('A' for Active; 'I' for Inactive)
REMARK    1  A    between atoms: C_4  and  C_5 
REMARK       I    between atoms: N_12  and  C_13 
REMARK    2  A    between atoms: C_13  and  C_14 
ROOT
HETATM    1  C   UNL     1      41.731 -13.743   4.393  1.00  0.00     0.097 A 
HETATM    2  N   UNL     1      41.755 -12.497   4.907  1.00  0.00    -0.173 NA
HETATM    3  N   UNL     1      42.551 -12.576   5.984  1.00  0.00    -0.281 N 
HETATM    4  H   UNL     1      42.722 -11.732   6.520  1.00  0.00     0.189 HD
HETATM    5  C   UNL     1      43.050 -13.821   6.174  1.00  0.00     0.039 A 
HETATM    6  C   UNL     1      42.528 -14.620   5.185  1.00  0.00     0.015 A 
HETATM    7  C   UNL     1      42.852 -16.066   5.045  1.00  0.00     0.169 C 
HETATM    8  N   UNL     1      43.978 -16.441   5.934  1.00  0.00    -0.343 N 
HETATM    9  C   UNL     1      44.604 -17.691   5.849  1.00  0.00     0.254 C 
HETATM   10  O   UNL     1      45.325 -18.153   6.731  1.00  0.00    -0.267 OA
HETATM   11  C   UNL     1      44.040 -15.783   7.260  1.00  0.00     0.132 C 
HETATM   12  C   UNL     1      44.030 -14.244   7.196  1.00  0.00     0.079 C 
ENDROOT
BRANCH   9  13
HETATM   13  C   UNL     1      44.360 -18.552   4.673  1.00  0.00     0.035 A 
HETATM   14  C   UNL     1      44.671 -19.913   4.788  1.00  0.00     0.056 A 
HETATM   15  C   UNL     1      44.470 -20.703   3.679  1.00  0.00     0.106 A 
HETATM   16  C   UNL     1      43.991 -20.188   2.497  1.00  0.00     0.105 A 
HETATM   17  O   UNL     1      44.711 -22.039   3.605  1.00  0.00    -0.323 OA
HETATM   18  O   UNL     1      43.869 -21.139   1.532  1.00  0.00    -0.323 OA
HETATM   19  C   UNL     1      43.696 -18.848   2.351  1.00  0.00     0.041 A 
HETATM   20  C   UNL     1      44.354 -22.303   2.232  1.00  0.00     0.352 A 
HETATM   21  C   UNL     1      43.896 -18.013   3.455  1.00  0.00     0.020 A 
ENDBRANCH   9  13
BRANCH   1  22
HETATM   22  C   UNL     1      41.000 -14.022   3.155  1.00  0.00    -0.005 A 
HETATM   23  C   UNL     1      41.490 -13.532   1.933  1.00  0.00     0.014 A 
HETATM   24  C   UNL     1      40.832 -13.811   0.733  1.00  0.00     0.001 A 
HETATM   25  C   UNL     1      39.671 -14.582   0.740  1.00  0.00     0.000 A 
HETATM   26  C   UNL     1      39.165 -15.063   1.946  1.00  0.00     0.001 A 
HETATM   27  C   UNL     1      39.822 -14.782   3.148  1.00  0.00     0.014 A 
ENDBRANCH   1  22
TORSDOF 2
ENDMDL
MODEL 6
REMARK VINA RESULT:      -8.2      3.081      6.354
REMARK  2 active torsions:
REMARK  status: ('A' for Active; 'I' for Inactive)
REMARK    1  A    between atoms: C_4  and  C_5 
REMARK       I    between atoms: N_12  and  C_13 
REMARK    2  A    between atoms: C_13  and  C_14 
ROOT
HETATM    1  C   UNL     1      42.036 -13.910   2.522  1.00  0.00     0.097 A 
HETATM    2  N   UNL     1      41.973 -12.578   2.716  1.00  0.00    -0.173 NA
HETATM    3  N   UNL     1      42.373 -12.387   3.982  1.00  0.00    -0.281 N 
HETATM    4  H   UNL     1      42.416 -11.437   4.337  1.00  0.00     0.189 HD
HETATM    5  C   UNL     1      42.702 -13.543   4.606  1.00  0.00     0.039 A 
HETATM    6  C   UNL     1      42.476 -14.563   3.711  1.00  0.00     0.015 A 
HETATM    7  C   UNL     1      42.734 -15.995   4.021  1.00  0.00     0.169 C 
HETATM    8  N   UNL     1      43.486 -16.133   5.291  1.00  0.00    -0.343 N 
HETATM    9  C   UNL     1      44.024 -17.357   5.704  1.00  0.00     0.254 C 
HETATM   10  O   UNL     1      44.390 -17.587   6.855  1.00  0.00    -0.267 OA
HETATM   11  C   UNL     1      43.160 -15.178   6.375  1.00  0.00     0.132 C 
HETATM   12  C   UNL     1      43.270 -13.698   5.961  1.00  0.00     0.079 C 
ENDROOT
BRANCH   9  13
HETATM   13  C   UNL     1      44.116 -18.477   4.744  1.00  0.00     0.035 A 
HETATM   14  C   UNL     1      44.382 -19.753   5.256  1.00  0.00     0.056 A 
HETATM   15  C   UNL     1      44.497 -20.785   4.354  1.00  0.00     0.106 A 
HETATM   16  C   UNL     1      44.368 -20.584   2.999  1.00  0.00     0.105 A 
HETATM   17  O   UNL     1      44.748 -22.085   4.664  1.00  0.00    -0.323 OA
HETATM   18  O   UNL     1      44.519 -21.734   2.289  1.00  0.00    -0.323 OA
HETATM   19  C   UNL     1      44.126 -19.334   2.467  1.00  0.00     0.041 A 
HETATM   20  C   UNL     1      44.788 -22.676   3.349  1.00  0.00     0.352 A 
HETATM   21  C   UNL     1      44.011 -18.259   3.355  1.00  0.00     0.020 A 
ENDBRANCH   9  13
BRANCH   1  22
HETATM   22  C   UNL     1      41.726 -14.486   1.212  1.00  0.00    -0.005 A 
HETATM   23  C   UNL     1      41.744 -15.880   1.045  1.00  0.00     0.014 A 
HETATM   24  C   UNL     1      41.421 -16.460  -0.184  1.00  0.00     0.001 A 
HETATM   25  C   UNL     1      41.078 -15.650  -1.265  1.00  0.00     0.000 A 
HETATM   26  C   UNL     1      41.070 -14.264  -1.119  1.00  0.00     0.001 A 
HETATM   27  C   UNL     1      41.396 -13.684   0.111  1.00  0.00     0.014 A 
ENDBRANCH   1  22
TORSDOF 2
ENDMDL
MODEL 7
REMARK VINA RESULT:      -8.1      2.954      5.658
REMARK  2 active torsions:
REMARK  status: ('A' for Active; 'I' for Inactive)
REMARK    1  A    between atoms: C_4  and  C_5 
REMARK       I    between atoms: N_12  and  C_13 
REMARK    2  A    between atoms: C_13  and  C_14 
ROOT
HETATM    1  C   UNL     1      42.378 -17.647   4.015  1.00  0.00     0.097 A 
HETATM    2  N   UNL     1      42.688 -18.552   3.066  1.00  0.00    -0.173 NA
HETATM    3  N   UNL     1      42.010 -18.165   1.976  1.00  0.00    -0.281 N 
HETATM    4  H   UNL     1      42.113 -18.708   1.125  1.00  0.00     0.189 HD
HETATM    5  C   UNL     1      41.287 -17.039   2.183  1.00  0.00     0.039 A 
HETATM    6  C   UNL     1      41.470 -16.677   3.497  1.00  0.00     0.015 A 
HETATM    7  C   UNL     1      40.845 -15.474   4.109  1.00  0.00     0.169 C 
HETATM    8  N   UNL     1      40.232 -14.612   3.070  1.00  0.00    -0.343 N 
HETATM    9  C   UNL     1      39.755 -13.329   3.360  1.00  0.00     0.254 C 
HETATM   10  O   UNL     1      38.992 -12.704   2.626  1.00  0.00    -0.267 OA
HETATM   11  C   UNL     1      39.585 -15.293   1.925  1.00  0.00     0.132 C 
HETATM   12  C   UNL     1      40.504 -16.283   1.184  1.00  0.00     0.079 C 
ENDROOT
BRANCH   9  13
HETATM   13  C   UNL     1      40.122 -12.683   4.638  1.00  0.00     0.035 A 
HETATM   14  C   UNL     1      39.214 -12.780   5.700  1.00  0.00     0.056 A 
HETATM   15  C   UNL     1      39.548 -12.150   6.877  1.00  0.00     0.106 A 
HETATM   16  C   UNL     1      40.720 -11.443   7.015  1.00  0.00     0.105 A 
HETATM   17  O   UNL     1      38.797 -12.139   8.010  1.00  0.00    -0.323 OA
HETATM   18  O   UNL     1      40.852 -10.901   8.255  1.00  0.00    -0.323 OA
HETATM   19  C   UNL     1      41.622 -11.315   5.979  1.00  0.00     0.041 A 
HETATM   20  C   UNL     1      39.617 -11.321   8.871  1.00  0.00     0.352 A 
HETATM   21  C   UNL     1      41.311 -11.935   4.765  1.00  0.00     0.020 A 
ENDBRANCH   9  13
BRANCH   1  22
HETATM   22  C   UNL     1      42.996 -17.718   5.342  1.00  0.00    -0.005 A 
HETATM   23  C   UNL     1      44.347 -18.086   5.459  1.00  0.00     0.014 A 
HETATM   24  C   UNL     1      44.972 -18.130   6.707  1.00  0.00     0.001 A 
HETATM   25  C   UNL     1      44.251 -17.811   7.856  1.00  0.00     0.000 A 
HETATM   26  C   UNL     1      42.906 -17.459   7.757  1.00  0.00     0.001 A 
HETATM   27  C   UNL     1      42.280 -17.417   6.508  1.00  0.00     0.014 A 
ENDBRANCH   1  22
TORSDOF 2
ENDMDL
MODEL 8
REMARK VINA RESULT:      -8.0      4.472      7.355
REMARK  2 active torsions:
REMARK  status: ('A' for Active; 'I' for Inactive)
REMARK    1  A    between atoms: C_4  and  C_5 
REMARK       I    between atoms: N_12  and  C_13 
REMARK    2  A    between atoms: C_13  and  C_14 
ROOT
HETATM    1  C   UNL     1      41.337 -14.948   4.715  1.00  0.00     0.097 A 
HETATM    2  N   UNL     1      41.261 -15.346   3.430  1.00  0.00    -0.173 NA
HETATM    3  N   UNL     1      40.475 -14.441   2.828  1.00  0.00    -0.281 N 
HETATM    4  H   UNL     1      40.295 -14.545   1.834  1.00  0.00     0.189 HD
HETATM    5  C   UNL     1      40.054 -13.470   3.672  1.00  0.00     0.039 A 
HETATM    6  C   UNL     1      40.563 -13.767   4.914  1.00  0.00     0.015 A 
HETATM    7  C   UNL     1      40.332 -12.922   6.117  1.00  0.00     0.169 C 
HETATM    8  N   UNL     1      39.716 -11.626   5.739  1.00  0.00    -0.343 N 
HETATM    9  C   UNL     1      39.579 -10.577   6.656  1.00  0.00     0.254 C 
HETATM   10  O   UNL     1      38.831  -9.616   6.484  1.00  0.00    -0.267 OA
HETATM   11  C   UNL     1      38.730 -11.645   4.634  1.00  0.00     0.132 C 
HETATM   12  C   UNL     1      39.262 -12.271   3.331  1.00  0.00     0.079 C 
ENDROOT
BRANCH   9  13
HETATM   13  C   UNL     1      40.316 -10.623   7.936  1.00  0.00     0.035 A 
HETATM   14  C   UNL     1      41.707 -10.470   7.892  1.00  0.00     0.056 A 
HETATM   15  C   UNL     1      42.390 -10.545   9.085  1.00  0.00     0.106 A 
HETATM   16  C   UNL     1      41.744 -10.770  10.279  1.00  0.00     0.105 A 
HETATM   17  O   UNL     1      43.735 -10.417   9.237  1.00  0.00    -0.323 OA
HETATM   18  O   UNL     1      42.604 -10.809  11.331  1.00  0.00    -0.323 OA
HETATM   19  C   UNL     1      40.377 -10.945  10.347  1.00  0.00     0.041 A 
HETATM   20  C   UNL     1      43.867 -10.613  10.661  1.00  0.00     0.352 A 
HETATM   21  C   UNL     1      39.652 -10.883   9.153  1.00  0.00     0.020 A 
ENDBRANCH   9  13
BRANCH   1  22
HETATM   22  C   UNL     1      42.176 -15.675   5.671  1.00  0.00    -0.005 A 
HETATM   23  C   UNL     1      41.623 -16.723   6.423  1.00  0.00     0.014 A 
HETATM   24  C   UNL     1      42.406 -17.456   7.317  1.00  0.00     0.001 A 
HETATM   25  C   UNL     1      43.756 -17.146   7.472  1.00  0.00     0.000 A 
HETATM   26  C   UNL     1      44.316 -16.099   6.743  1.00  0.00     0.001 A 
HETATM   27  C   UNL     1      43.531 -15.364   5.850  1.00  0.00     0.014 A 
ENDBRANCH   1  22
TORSDOF 2
ENDMDL
MODEL 9
REMARK VINA RESULT:      -8.0      2.777      5.601
REMARK  2 active torsions:
REMARK  status: ('A' for Active; 'I' for Inactive)
REMARK    1  A    between atoms: C_4  and  C_5 
REMARK       I    between atoms: N_12  and  C_13 
REMARK    2  A    between atoms: C_13  and  C_14 
ROOT
HETATM    1  C   UNL     1      41.996 -17.741   2.546  1.00  0.00     0.097 A 
HETATM    2  N   UNL     1      41.490 -18.162   1.370  1.00  0.00    -0.173 NA
HETATM    3  N   UNL     1      40.642 -17.197   0.986  1.00  0.00    -0.281 N 
HETATM    4  H   UNL     1      40.154 -17.307   0.103  1.00  0.00     0.189 HD
HETATM    5  C   UNL     1      40.593 -16.166   1.863  1.00  0.00     0.039 A 
HETATM    6  C   UNL     1      41.433 -16.482   2.905  1.00  0.00     0.015 A 
HETATM    7  C   UNL     1      41.663 -15.586   4.070  1.00  0.00     0.169 C 
HETATM    8  N   UNL     1      41.081 -14.244   3.826  1.00  0.00    -0.343 N 
HETATM    9  C   UNL     1      41.330 -13.162   4.679  1.00  0.00     0.254 C 
HETATM   10  O   UNL     1      40.657 -12.134   4.690  1.00  0.00    -0.267 OA
HETATM   11  C   UNL     1      39.804 -14.188   3.078  1.00  0.00     0.132 C 
HETATM   12  C   UNL     1      39.846 -14.900   1.712  1.00  0.00     0.079 C 
ENDROOT
BRANCH   9  13
HETATM   13  C   UNL     1      42.420 -13.252   5.674  1.00  0.00     0.035 A 
HETATM   14  C   UNL     1      42.476 -12.266   6.667  1.00  0.00     0.056 A 
HETATM   15  C   UNL     1      43.510 -12.338   7.572  1.00  0.00     0.106 A 
HETATM   16  C   UNL     1      44.464 -13.328   7.508  1.00  0.00     0.105 A 
HETATM   17  O   UNL     1      43.724 -11.476   8.602  1.00  0.00    -0.323 OA
HETATM   18  O   UNL     1      45.394 -13.212   8.493  1.00  0.00    -0.323 OA
HETATM   19  C   UNL     1      44.443 -14.298   6.527  1.00  0.00     0.041 A 
HETATM   20  C   UNL     1      44.936 -12.020   9.165  1.00  0.00     0.352 A 
HETATM   21  C   UNL     1      43.410 -14.252   5.586  1.00  0.00     0.020 A 
ENDBRANCH   9  13
BRANCH   1  22
HETATM   22  C   UNL     1      43.020 -18.526   3.239  1.00  0.00    -0.005 A 
HETATM   23  C   UNL     1      43.653 -19.587   2.570  1.00  0.00     0.014 A 
HETATM   24  C   UNL     1      44.656 -20.332   3.193  1.00  0.00     0.001 A 
HETATM   25  C   UNL     1      45.038 -20.027   4.498  1.00  0.00     0.000 A 
HETATM   26  C   UNL     1      44.409 -18.987   5.180  1.00  0.00     0.001 A 
HETATM   27  C   UNL     1      43.403 -18.243   4.557  1.00  0.00     0.014 A 
ENDBRANCH   1  22
TORSDOF 2
ENDMDL
MODEL 10
REMARK VINA RESULT:      -7.5      5.123      8.241
REMARK  2 active torsions:
REMARK  status: ('A' for Active; 'I' for Inactive)
REMARK    1  A    between atoms: C_4  and  C_5 
REMARK       I    between atoms: N_12  and  C_13 
REMARK    2  A    between atoms: C_13  and  C_14 
ROOT
HETATM    1  C   UNL     1      41.956  -9.916  10.140  1.00  0.00     0.097 A 
HETATM    2  N   UNL     1      41.499  -9.110  11.119  1.00  0.00    -0.173 NA
HETATM    3  N   UNL     1      40.370  -8.572  10.633  1.00  0.00    -0.281 N 
HETATM    4  H   UNL     1      39.847  -7.935  11.225  1.00  0.00     0.189 HD
HETATM    5  C   UNL     1      40.077  -9.010   9.386  1.00  0.00     0.039 A 
HETATM    6  C   UNL     1      41.088  -9.863   9.010  1.00  0.00     0.015 A 
HETATM    7  C   UNL     1      41.120 -10.565   7.698  1.00  0.00     0.169 C 
HETATM    8  N   UNL     1      39.825 -10.420   6.991  1.00  0.00    -0.343 N 
HETATM    9  C   UNL     1      39.529 -11.148   5.833  1.00  0.00     0.254 C 
HETATM   10  O   UNL     1      38.616 -10.858   5.061  1.00  0.00    -0.267 OA
HETATM   11  C   UNL     1      39.121  -9.125   7.132  1.00  0.00     0.132 C 
HETATM   12  C   UNL     1      38.870  -8.703   8.592  1.00  0.00     0.079 C 
ENDROOT
BRANCH   9  13
HETATM   13  C   UNL     1      40.375 -12.299   5.456  1.00  0.00     0.035 A 
HETATM   14  C   UNL     1      41.353 -12.094   4.474  1.00  0.00     0.056 A 
HETATM   15  C   UNL     1      42.117 -13.177   4.106  1.00  0.00     0.106 A 
HETATM   16  C   UNL     1      41.931 -14.421   4.665  1.00  0.00     0.105 A 
HETATM   17  O   UNL     1      43.111 -13.167   3.178  1.00  0.00    -0.323 OA
HETATM   18  O   UNL     1      42.789 -15.347   4.159  1.00  0.00    -0.323 OA
HETATM   19  C   UNL     1      40.962 -14.655   5.618  1.00  0.00     0.041 A 
HETATM   20  C   UNL     1      43.514 -14.553   3.197  1.00  0.00     0.352 A 
HETATM   21  C   UNL     1      40.161 -13.577   6.011  1.00  0.00     0.020 A 
ENDBRANCH   9  13
BRANCH   1  22
HETATM   22  C   UNL     1      43.157 -10.729  10.346  1.00  0.00    -0.005 A 
HETATM   23  C   UNL     1      43.184 -11.677  11.381  1.00  0.00     0.014 A 
HETATM   24  C   UNL     1      44.302 -12.489  11.580  1.00  0.00     0.001 A 
HETATM   25  C   UNL     1      45.411 -12.361  10.746  1.00  0.00     0.000 A 
HETATM   26  C   UNL     1      45.405 -11.414   9.724  1.00  0.00     0.001 A 
HETATM   27  C   UNL     1      44.286 -10.599   9.526  1.00  0.00     0.014 A 
ENDBRANCH   1  22
TORSDOF 2
ENDMDL
