MODEL 1
REMARK VINA RESULT:      -8.3      0.000      0.000
REMARK  4 active torsions:
REMARK  status: ('A' for Active; 'I' for Inactive)
REMARK    1  A    between atoms: C_2  and  C_3 
REMARK    2  A    between atoms: C_3  and  N_4 
REMARK    3  A    between atoms: N_8  and  C_9 
REMARK    4  A    between atoms: C_9  and  C_10 
ROOT
HETATM    1  N   UNL     1      42.564 -16.229   3.995  1.00  0.00    -0.061 N 
HETATM    2  H   UNL     1      42.100 -17.008   3.515  1.00  0.00     0.280 HD
HETATM    3  C   UNL     1      43.215 -15.394   2.890  1.00  0.00     0.216 C 
HETATM    4  C   UNL     1      42.269 -15.318   1.654  1.00  0.00     0.305 C 
HETATM    5  N   UNL     1      41.271 -14.248   1.680  1.00  0.00     0.095 N 
HETATM    6  C   UNL     1      40.414 -14.222   2.865  1.00  0.00     0.279 C 
HETATM    7  C   UNL     1      41.174 -14.134   4.203  1.00  0.00     0.040 C 
HETATM    8  C   UNL     1      41.496 -15.507   4.776  1.00  0.00     0.242 C 
HETATM    9  C   UNL     1      43.609 -14.020   3.440  1.00  0.00     0.035 C 
HETATM   10  C   UNL     1      42.449 -13.282   4.118  1.00  0.00     0.010 C 
ENDROOT
BRANCH   1  11
HETATM   11  C   UNL     1      43.558 -16.904   4.926  1.00  0.00     0.274 C 
BRANCH  11  12
HETATM   12  C   UNL     1      43.885 -18.322   4.546  1.00  0.00    -0.032 A 
HETATM   13  C   UNL     1      44.417 -19.204   5.498  1.00  0.00     0.011 A 
HETATM   14  C   UNL     1      44.730 -20.528   5.173  1.00  0.00     0.031 A 
HETATM   15  C   UNL     1      44.490 -20.947   3.862  1.00  0.00     0.042 A 
HETATM   16  C   UNL     1      43.960 -20.104   2.887  1.00  0.00    -0.008 A 
HETATM   17  N   UNL     1      44.685 -22.178   3.274  1.00  0.00    -0.365 N 
HETATM   18  C   UNL     1      43.653 -18.773   3.232  1.00  0.00     0.022 A 
HETATM   19  C   UNL     1      43.843 -20.865   1.692  1.00  0.00     0.030 A 
HETATM   20  C   UNL     1      44.298 -22.136   1.960  1.00  0.00     0.089 A 
HETATM   21  H   UNL     1      45.048 -22.995   3.746  1.00  0.00     0.165 HD
ENDBRANCH  11  12
ENDBRANCH   1  11
BRANCH   5  22
HETATM   22  C   UNL     1      40.490 -14.218   0.424  1.00  0.00     0.311 C 
BRANCH  22  23
HETATM   23  C   UNL     1      41.262 -13.649  -0.744  1.00  0.00    -0.027 A 
HETATM   24  C   UNL     1      42.070 -12.517  -0.586  1.00  0.00     0.028 A 
HETATM   25  C   UNL     1      42.752 -12.027  -1.688  1.00  0.00     0.116 A 
HETATM   26  N   UNL     1      42.689 -12.582  -2.915  1.00  0.00    -0.273 NA
HETATM   27  C   UNL     1      41.921 -13.683  -3.047  1.00  0.00     0.116 A 
HETATM   28  C   UNL     1      41.197 -14.247  -2.006  1.00  0.00     0.028 A 
ENDBRANCH  22  23
ENDBRANCH   5  22
TORSDOF 4
ENDMDL
MODEL 2
REMARK VINA RESULT:      -8.2      1.908      7.871
REMARK  4 active torsions:
REMARK  status: ('A' for Active; 'I' for Inactive)
REMARK    1  A    between atoms: C_2  and  C_3 
REMARK    2  A    between atoms: C_3  and  N_4 
REMARK    3  A    between atoms: N_8  and  C_9 
REMARK    4  A    between atoms: C_9  and  C_10 
ROOT
HETATM    1  N   UNL     1      42.221 -14.957   2.234  1.00  0.00    -0.061 N 
HETATM    2  H   UNL     1      42.764 -14.583   3.019  1.00  0.00     0.280 HD
HETATM    3  C   UNL     1      43.117 -16.009   1.578  1.00  0.00     0.216 C 
HETATM    4  C   UNL     1      43.881 -16.814   2.671  1.00  0.00     0.305 C 
HETATM    5  N   UNL     1      43.172 -17.968   3.225  1.00  0.00     0.095 N 
HETATM    6  C   UNL     1      41.842 -17.684   3.766  1.00  0.00     0.279 C 
HETATM    7  C   UNL     1      40.873 -17.021   2.768  1.00  0.00     0.040 C 
HETATM    8  C   UNL     1      40.942 -15.502   2.817  1.00  0.00     0.242 C 
HETATM    9  C   UNL     1      42.284 -16.891   0.643  1.00  0.00     0.035 C 
HETATM   10  C   UNL     1      41.062 -17.514   1.325  1.00  0.00     0.010 C 
ENDROOT
BRANCH   1  11
HETATM   11  C   UNL     1      41.948 -13.745   1.358  1.00  0.00     0.274 C 
BRANCH  11  12
HETATM   12  C   UNL     1      40.819 -13.938   0.382  1.00  0.00    -0.032 A 
HETATM   13  C   UNL     1      39.497 -13.674   0.769  1.00  0.00     0.011 A 
HETATM   14  C   UNL     1      38.428 -13.845  -0.116  1.00  0.00     0.031 A 
HETATM   15  C   UNL     1      38.722 -14.287  -1.408  1.00  0.00     0.042 A 
HETATM   16  C   UNL     1      40.021 -14.559  -1.834  1.00  0.00    -0.008 A 
HETATM   17  N   UNL     1      37.886 -14.525  -2.477  1.00  0.00    -0.365 N 
HETATM   18  C   UNL     1      41.085 -14.383  -0.927  1.00  0.00     0.022 A 
HETATM   19  C   UNL     1      39.941 -14.970  -3.192  1.00  0.00     0.030 A 
HETATM   20  C   UNL     1      38.615 -14.941  -3.560  1.00  0.00     0.089 A 
HETATM   21  H   UNL     1      36.882 -14.399  -2.467  1.00  0.00     0.165 HD
ENDBRANCH  11  12
ENDBRANCH   1  11
BRANCH   5  22
HETATM   22  C   UNL     1      44.021 -18.704   4.187  1.00  0.00     0.311 C 
BRANCH  22  23
HETATM   23  C   UNL     1      44.257 -20.144   3.793  1.00  0.00    -0.027 A 
HETATM   24  C   UNL     1      44.059 -20.568   2.474  1.00  0.00     0.028 A 
HETATM   25  C   UNL     1      44.280 -21.899   2.162  1.00  0.00     0.116 A 
HETATM   26  N   UNL     1      44.683 -22.821   3.059  1.00  0.00    -0.273 NA
HETATM   27  C   UNL     1      44.888 -22.393   4.321  1.00  0.00     0.116 A 
HETATM   28  C   UNL     1      44.692 -21.083   4.733  1.00  0.00     0.028 A 
ENDBRANCH  22  23
ENDBRANCH   5  22
TORSDOF 4
ENDMDL
MODEL 3
REMARK VINA RESULT:      -8.1      2.169      3.329
REMARK  4 active torsions:
REMARK  status: ('A' for Active; 'I' for Inactive)
REMARK    1  A    between atoms: C_2  and  C_3 
REMARK    2  A    between atoms: C_3  and  N_4 
REMARK    3  A    between atoms: N_8  and  C_9 
REMARK    4  A    between atoms: C_9  and  C_10 
ROOT
HETATM    1  N   UNL     1      40.704 -15.635   2.059  1.00  0.00    -0.061 N 
HETATM    2  H   UNL     1      40.976 -16.323   1.350  1.00  0.00     0.280 HD
HETATM    3  C   UNL     1      41.474 -14.359   1.712  1.00  0.00     0.216 C 
HETATM    4  C   UNL     1      41.511 -14.164   0.167  1.00  0.00     0.305 C 
HETATM    5  N   UNL     1      40.366 -13.462  -0.414  1.00  0.00     0.095 N 
HETATM    6  C   UNL     1      39.056 -14.031  -0.095  1.00  0.00     0.279 C 
HETATM    7  C   UNL     1      38.764 -14.158   1.413  1.00  0.00     0.040 C 
HETATM    8  C   UNL     1      39.205 -15.501   1.977  1.00  0.00     0.242 C 
HETATM    9  C   UNL     1      40.872 -13.167   2.462  1.00  0.00     0.035 C 
HETATM   10  C   UNL     1      39.363 -13.012   2.242  1.00  0.00     0.010 C 
ENDROOT
BRANCH   1  11
HETATM   11  C   UNL     1      41.123 -16.270   3.375  1.00  0.00     0.274 C 
BRANCH  11  12
HETATM   12  C   UNL     1      42.101 -17.404   3.222  1.00  0.00    -0.032 A 
HETATM   13  C   UNL     1      42.379 -17.931   1.953  1.00  0.00     0.011 A 
HETATM   14  C   UNL     1      43.282 -18.984   1.780  1.00  0.00     0.031 A 
HETATM   15  C   UNL     1      43.906 -19.495   2.921  1.00  0.00     0.042 A 
HETATM   16  C   UNL     1      43.660 -18.999   4.200  1.00  0.00    -0.008 A 
HETATM   17  N   UNL     1      44.836 -20.504   3.048  1.00  0.00    -0.365 N 
HETATM   18  C   UNL     1      42.745 -17.939   4.354  1.00  0.00     0.022 A 
HETATM   19  C   UNL     1      44.470 -19.742   5.102  1.00  0.00     0.030 A 
HETATM   20  C   UNL     1      45.181 -20.661   4.364  1.00  0.00     0.089 A 
HETATM   21  H   UNL     1      45.217 -21.041   2.280  1.00  0.00     0.165 HD
ENDBRANCH  11  12
ENDBRANCH   1  11
BRANCH   5  22
HETATM   22  C   UNL     1      40.547 -13.259  -1.868  1.00  0.00     0.311 C 
BRANCH  22  23
HETATM   23  C   UNL     1      39.724 -14.206  -2.710  1.00  0.00    -0.027 A 
HETATM   24  C   UNL     1      38.433 -13.858  -3.126  1.00  0.00     0.028 A 
HETATM   25  C   UNL     1      37.713 -14.762  -3.890  1.00  0.00     0.116 A 
HETATM   26  N   UNL     1      38.185 -15.969  -4.265  1.00  0.00    -0.273 NA
HETATM   27  C   UNL     1      39.437 -16.282  -3.871  1.00  0.00     0.116 A 
HETATM   28  C   UNL     1      40.235 -15.446  -3.103  1.00  0.00     0.028 A 
ENDBRANCH  22  23
ENDBRANCH   5  22
TORSDOF 4
ENDMDL
MODEL 4
REMARK VINA RESULT:      -8.1      2.665      4.670
REMARK  4 active torsions:
REMARK  status: ('A' for Active; 'I' for Inactive)
REMARK    1  A    between atoms: C_2  and  C_3 
REMARK    2  A    between atoms: C_3  and  N_4 
REMARK    3  A    between atoms: N_8  and  C_9 
REMARK    4  A    between atoms: C_9  and  C_10 
ROOT
HETATM    1  N   UNL     1      42.726 -15.816   3.098  1.00  0.00    -0.061 N 
HETATM    2  H   UNL     1      42.796 -16.264   4.018  1.00  0.00     0.280 HD
HETATM    3  C   UNL     1      41.237 -15.530   2.891  1.00  0.00     0.216 C 
HETATM    4  C   UNL     1      40.596 -15.054   4.229  1.00  0.00     0.305 C 
HETATM    5  N   UNL     1      40.689 -13.619   4.504  1.00  0.00     0.095 N 
HETATM    6  C   UNL     1      42.041 -13.061   4.465  1.00  0.00     0.279 C 
HETATM    7  C   UNL     1      42.791 -13.295   3.139  1.00  0.00     0.040 C 
HETATM    8  C   UNL     1      43.596 -14.586   3.150  1.00  0.00     0.242 C 
HETATM    9  C   UNL     1      41.053 -14.537   1.740  1.00  0.00     0.035 C 
HETATM   10  C   UNL     1      41.872 -13.253   1.910  1.00  0.00     0.010 C 
ENDROOT
BRANCH   1  11
HETATM   11  C   UNL     1      43.296 -16.847   2.137  1.00  0.00     0.274 C 
BRANCH  11  12
HETATM   12  C   UNL     1      43.711 -18.133   2.797  1.00  0.00    -0.032 A 
HETATM   13  C   UNL     1      44.061 -18.150   4.155  1.00  0.00     0.011 A 
HETATM   14  C   UNL     1      44.451 -19.330   4.795  1.00  0.00     0.031 A 
HETATM   15  C   UNL     1      44.477 -20.502   4.034  1.00  0.00     0.042 A 
HETATM   16  C   UNL     1      44.135 -20.530   2.683  1.00  0.00    -0.008 A 
HETATM   17  N   UNL     1      44.801 -21.790   4.398  1.00  0.00    -0.365 N 
HETATM   18  C   UNL     1      43.746 -19.330   2.055  1.00  0.00     0.022 A 
HETATM   19  C   UNL     1      44.264 -21.875   2.245  1.00  0.00     0.030 A 
HETATM   20  C   UNL     1      44.676 -22.628   3.321  1.00  0.00     0.089 A 
HETATM   21  H   UNL     1      45.078 -22.078   5.328  1.00  0.00     0.165 HD
ENDBRANCH  11  12
ENDBRANCH   1  11
BRANCH   5  22
HETATM   22  C   UNL     1      39.975 -13.270   5.752  1.00  0.00     0.311 C 
BRANCH  22  23
HETATM   23  C   UNL     1      39.542 -11.823   5.805  1.00  0.00    -0.027 A 
HETATM   24  C   UNL     1      39.735 -11.058   6.961  1.00  0.00     0.028 A 
HETATM   25  C   UNL     1      39.314  -9.739   6.965  1.00  0.00     0.116 A 
HETATM   26  N   UNL     1      38.726  -9.137   5.911  1.00  0.00    -0.273 NA
HETATM   27  C   UNL     1      38.564  -9.881   4.798  1.00  0.00     0.116 A 
HETATM   28  C   UNL     1      38.950 -11.210   4.696  1.00  0.00     0.028 A 
ENDBRANCH  22  23
ENDBRANCH   5  22
TORSDOF 4
ENDMDL
MODEL 5
REMARK VINA RESULT:      -7.9      1.403      7.561
REMARK  4 active torsions:
REMARK  status: ('A' for Active; 'I' for Inactive)
REMARK    1  A    between atoms: C_2  and  C_3 
REMARK    2  A    between atoms: C_3  and  N_4 
REMARK    3  A    between atoms: N_8  and  C_9 
REMARK    4  A    between atoms: C_9  and  C_10 
ROOT
HETATM    1  N   UNL     1      41.913 -16.024   3.615  1.00  0.00    -0.061 N 
HETATM    2  H   UNL     1      42.669 -15.998   2.924  1.00  0.00     0.280 HD
HETATM    3  C   UNL     1      41.698 -17.505   3.935  1.00  0.00     0.216 C 
HETATM    4  C   UNL     1      43.070 -18.239   4.002  1.00  0.00     0.305 C 
HETATM    5  N   UNL     1      43.748 -18.203   5.298  1.00  0.00     0.095 N 
HETATM    6  C   UNL     1      43.960 -16.868   5.857  1.00  0.00     0.279 C 
HETATM    7  C   UNL     1      42.675 -16.031   6.020  1.00  0.00     0.040 C 
HETATM    8  C   UNL     1      42.371 -15.193   4.787  1.00  0.00     0.242 C 
HETATM    9  C   UNL     1      40.868 -17.646   5.214  1.00  0.00     0.035 C 
HETATM   10  C   UNL     1      41.451 -16.875   6.403  1.00  0.00     0.010 C 
ENDROOT
BRANCH   1  11
HETATM   11  C   UNL     1      40.738 -15.367   2.908  1.00  0.00     0.274 C 
BRANCH  11  12
HETATM   12  C   UNL     1      41.067 -14.839   1.538  1.00  0.00    -0.032 A 
HETATM   13  C   UNL     1      41.630 -13.563   1.389  1.00  0.00     0.011 A 
HETATM   14  C   UNL     1      41.946 -13.047   0.129  1.00  0.00     0.031 A 
HETATM   15  C   UNL     1      41.685 -13.850  -0.985  1.00  0.00     0.042 A 
HETATM   16  C   UNL     1      41.129 -15.124  -0.880  1.00  0.00    -0.008 A 
HETATM   17  N   UNL     1      41.905 -13.611  -2.323  1.00  0.00    -0.365 N 
HETATM   18  C   UNL     1      40.816 -15.627   0.398  1.00  0.00     0.022 A 
HETATM   19  C   UNL     1      41.019 -15.643  -2.199  1.00  0.00     0.030 A 
HETATM   20  C   UNL     1      41.503 -14.690  -3.065  1.00  0.00     0.089 A 
HETATM   21  H   UNL     1      42.314 -12.766  -2.702  1.00  0.00     0.165 HD
ENDBRANCH  11  12
ENDBRANCH   1  11
BRANCH   5  22
HETATM   22  C   UNL     1      44.994 -19.001   5.270  1.00  0.00     0.311 C 
BRANCH  22  23
HETATM   23  C   UNL     1      44.844 -20.314   4.536  1.00  0.00    -0.027 A 
HETATM   24  C   UNL     1      44.753 -21.521   5.239  1.00  0.00     0.028 A 
HETATM   25  C   UNL     1      44.624 -22.700   4.523  1.00  0.00     0.116 A 
HETATM   26  N   UNL     1      44.576 -22.757   3.176  1.00  0.00    -0.273 NA
HETATM   27  C   UNL     1      44.646 -21.584   2.515  1.00  0.00     0.116 A 
HETATM   28  C   UNL     1      44.779 -20.353   3.140  1.00  0.00     0.028 A 
ENDBRANCH  22  23
ENDBRANCH   5  22
TORSDOF 4
ENDMDL
MODEL 6
REMARK VINA RESULT:      -7.9      2.490      4.013
REMARK  4 active torsions:
REMARK  status: ('A' for Active; 'I' for Inactive)
REMARK    1  A    between atoms: C_2  and  C_3 
REMARK    2  A    between atoms: C_3  and  N_4 
REMARK    3  A    between atoms: N_8  and  C_9 
REMARK    4  A    between atoms: C_9  and  C_10 
ROOT
HETATM    1  N   UNL     1      40.521 -14.545   3.246  1.00  0.00    -0.061 N 
HETATM    2  H   UNL     1      40.226 -13.563   3.271  1.00  0.00     0.280 HD
HETATM    3  C   UNL     1      39.535 -15.248   2.310  1.00  0.00     0.216 C 
HETATM    4  C   UNL     1      39.201 -14.326   1.100  1.00  0.00     0.305 C 
HETATM    5  N   UNL     1      40.120 -14.410  -0.036  1.00  0.00     0.095 N 
HETATM    6  C   UNL     1      41.531 -14.188   0.282  1.00  0.00     0.279 C 
HETATM    7  C   UNL     1      42.097 -15.128   1.365  1.00  0.00     0.040 C 
HETATM    8  C   UNL     1      41.950 -14.552   2.765  1.00  0.00     0.242 C 
HETATM    9  C   UNL     1      40.090 -16.615   1.901  1.00  0.00     0.035 C 
HETATM   10  C   UNL     1      41.502 -16.543   1.308  1.00  0.00     0.010 C 
ENDROOT
BRANCH   1  11
HETATM   11  C   UNL     1      40.431 -15.000   4.694  1.00  0.00     0.274 C 
BRANCH  11  12
HETATM   12  C   UNL     1      41.668 -15.693   5.195  1.00  0.00    -0.032 A 
HETATM   13  C   UNL     1      42.634 -14.980   5.919  1.00  0.00     0.011 A 
HETATM   14  C   UNL     1      43.794 -15.598   6.396  1.00  0.00     0.031 A 
HETATM   15  C   UNL     1      43.959 -16.960   6.130  1.00  0.00     0.042 A 
HETATM   16  C   UNL     1      43.022 -17.706   5.417  1.00  0.00    -0.008 A 
HETATM   17  N   UNL     1      44.977 -17.818   6.484  1.00  0.00    -0.365 N 
HETATM   18  C   UNL     1      41.861 -17.065   4.942  1.00  0.00     0.022 A 
HETATM   19  C   UNL     1      43.509 -19.040   5.351  1.00  0.00     0.030 A 
HETATM   20  C   UNL     1      44.714 -19.078   6.015  1.00  0.00     0.089 A 
HETATM   21  H   UNL     1      45.793 -17.557   7.023  1.00  0.00     0.165 HD
ENDBRANCH  11  12
ENDBRANCH   1  11
BRANCH   5  22
HETATM   22  C   UNL     1      39.660 -13.560  -1.157  1.00  0.00     0.311 C 
BRANCH  22  23
HETATM   23  C   UNL     1      39.129 -14.354  -2.328  1.00  0.00    -0.027 A 
HETATM   24  C   UNL     1      37.810 -14.189  -2.766  1.00  0.00     0.028 A 
HETATM   25  C   UNL     1      37.365 -14.945  -3.838  1.00  0.00     0.116 A 
HETATM   26  N   UNL     1      38.134 -15.837  -4.496  1.00  0.00    -0.273 NA
HETATM   27  C   UNL     1      39.407 -15.971  -4.073  1.00  0.00     0.116 A 
HETATM   28  C   UNL     1      39.945 -15.263  -3.008  1.00  0.00     0.028 A 
ENDBRANCH  22  23
ENDBRANCH   5  22
TORSDOF 4
ENDMDL
MODEL 7
REMARK VINA RESULT:      -7.9      1.301      1.482
REMARK  4 active torsions:
REMARK  status: ('A' for Active; 'I' for Inactive)
REMARK    1  A    between atoms: C_2  and  C_3 
REMARK    2  A    between atoms: C_3  and  N_4 
REMARK    3  A    between atoms: N_8  and  C_9 
REMARK    4  A    between atoms: C_9  and  C_10 
ROOT
HETATM    1  N   UNL     1      42.009 -15.899   2.919  1.00  0.00    -0.061 N 
HETATM    2  H   UNL     1      41.942 -16.758   2.363  1.00  0.00     0.280 HD
HETATM    3  C   UNL     1      42.549 -14.832   1.965  1.00  0.00     0.216 C 
HETATM    4  C   UNL     1      41.904 -15.002   0.557  1.00  0.00     0.305 C 
HETATM    5  N   UNL     1      40.620 -14.329   0.358  1.00  0.00     0.095 N 
HETATM    6  C   UNL     1      39.583 -14.658   1.336  1.00  0.00     0.279 C 
HETATM    7  C   UNL     1      39.982 -14.402   2.803  1.00  0.00     0.040 C 
HETATM    8  C   UNL     1      40.625 -15.621   3.448  1.00  0.00     0.242 C 
HETATM    9  C   UNL     1      42.336 -13.440   2.567  1.00  0.00     0.035 C 
HETATM   10  C   UNL     1      40.884 -13.171   2.977  1.00  0.00     0.010 C 
ENDROOT
BRANCH   1  11
HETATM   11  C   UNL     1      42.962 -16.258   4.047  1.00  0.00     0.274 C 
BRANCH  11  12
HETATM   12  C   UNL     1      43.483 -17.668   3.981  1.00  0.00    -0.032 A 
HETATM   13  C   UNL     1      44.215 -18.203   5.051  1.00  0.00     0.011 A 
HETATM   14  C   UNL     1      44.712 -19.509   5.017  1.00  0.00     0.031 A 
HETATM   15  C   UNL     1      44.450 -20.272   3.876  1.00  0.00     0.042 A 
HETATM   16  C   UNL     1      43.725 -19.780   2.792  1.00  0.00    -0.008 A 
HETATM   17  N   UNL     1      44.796 -21.572   3.578  1.00  0.00    -0.365 N 
HETATM   18  C   UNL     1      43.234 -18.461   2.844  1.00  0.00     0.022 A 
HETATM   19  C   UNL     1      43.647 -20.824   1.830  1.00  0.00     0.030 A 
HETATM   20  C   UNL     1      44.316 -21.913   2.341  1.00  0.00     0.089 A 
HETATM   21  H   UNL     1      45.318 -22.187   4.188  1.00  0.00     0.165 HD
ENDBRANCH  11  12
ENDBRANCH   1  11
BRANCH   5  22
HETATM   22  C   UNL     1      40.146 -14.486  -1.034  1.00  0.00     0.311 C 
BRANCH  22  23
HETATM   23  C   UNL     1      40.455 -13.292  -1.907  1.00  0.00    -0.027 A 
HETATM   24  C   UNL     1      39.945 -12.026  -1.596  1.00  0.00     0.028 A 
HETATM   25  C   UNL     1      40.248 -10.962  -2.431  1.00  0.00     0.116 A 
HETATM   26  N   UNL     1      41.017 -11.071  -3.534  1.00  0.00    -0.273 NA
HETATM   27  C   UNL     1      41.515 -12.294  -3.810  1.00  0.00     0.116 A 
HETATM   28  C   UNL     1      41.267 -13.420  -3.038  1.00  0.00     0.028 A 
ENDBRANCH  22  23
ENDBRANCH   5  22
TORSDOF 4
ENDMDL
MODEL 8
REMARK VINA RESULT:      -7.8      3.125      5.220
REMARK  4 active torsions:
REMARK  status: ('A' for Active; 'I' for Inactive)
REMARK    1  A    between atoms: C_2  and  C_3 
REMARK    2  A    between atoms: C_3  and  N_4 
REMARK    3  A    between atoms: N_8  and  C_9 
REMARK    4  A    between atoms: C_9  and  C_10 
ROOT
HETATM    1  N   UNL     1      42.358 -15.808   3.394  1.00  0.00    -0.061 N 
HETATM    2  H   UNL     1      41.662 -15.609   2.667  1.00  0.00     0.280 HD
HETATM    3  C   UNL     1      42.669 -14.458   4.045  1.00  0.00     0.216 C 
HETATM    4  C   UNL     1      41.363 -13.621   4.185  1.00  0.00     0.305 C 
HETATM    5  N   UNL     1      40.577 -13.865   5.396  1.00  0.00     0.095 N 
HETATM    6  C   UNL     1      40.208 -15.261   5.632  1.00  0.00     0.279 C 
HETATM    7  C   UNL     1      41.399 -16.237   5.687  1.00  0.00     0.040 C 
HETATM    8  C   UNL     1      41.734 -16.819   4.321  1.00  0.00     0.242 C 
HETATM    9  C   UNL     1      43.397 -14.678   5.374  1.00  0.00     0.035 C 
HETATM   10  C   UNL     1      42.654 -15.623   6.324  1.00  0.00     0.010 C 
ENDROOT
BRANCH   1  11
HETATM   11  C   UNL     1      43.528 -16.412   2.635  1.00  0.00     0.274 C 
BRANCH  11  12
HETATM   12  C   UNL     1      43.864 -17.819   3.051  1.00  0.00    -0.032 A 
HETATM   13  C   UNL     1      44.303 -18.085   4.356  1.00  0.00     0.011 A 
HETATM   14  C   UNL     1      44.622 -19.382   4.770  1.00  0.00     0.031 A 
HETATM   15  C   UNL     1      44.485 -20.412   3.835  1.00  0.00     0.042 A 
HETATM   16  C   UNL     1      44.050 -20.191   2.529  1.00  0.00    -0.008 A 
HETATM   17  N   UNL     1      44.709 -21.765   3.966  1.00  0.00    -0.365 N 
HETATM   18  C   UNL     1      43.735 -18.877   2.130  1.00  0.00     0.022 A 
HETATM   19  C   UNL     1      44.021 -21.454   1.877  1.00  0.00     0.030 A 
HETATM   20  C   UNL     1      44.433 -22.403   2.785  1.00  0.00     0.089 A 
HETATM   21  H   UNL     1      45.020 -22.222   4.813  1.00  0.00     0.165 HD
ENDBRANCH  11  12
ENDBRANCH   1  11
BRANCH   5  22
HETATM   22  C   UNL     1      39.410 -12.958   5.465  1.00  0.00     0.311 C 
BRANCH  22  23
HETATM   23  C   UNL     1      39.559 -11.874   6.507  1.00  0.00    -0.027 A 
HETATM   24  C   UNL     1      39.929 -10.574   6.141  1.00  0.00     0.028 A 
HETATM   25  C   UNL     1      40.061  -9.615   7.132  1.00  0.00     0.116 A 
HETATM   26  N   UNL     1      39.849  -9.858   8.441  1.00  0.00    -0.273 NA
HETATM   27  C   UNL     1      39.475 -11.110   8.776  1.00  0.00     0.116 A 
HETATM   28  C   UNL     1      39.319 -12.139   7.858  1.00  0.00     0.028 A 
ENDBRANCH  22  23
ENDBRANCH   5  22
TORSDOF 4
ENDMDL
MODEL 9
REMARK VINA RESULT:      -7.7      1.995      2.870
REMARK  4 active torsions:
REMARK  status: ('A' for Active; 'I' for Inactive)
REMARK    1  A    between atoms: C_2  and  C_3 
REMARK    2  A    between atoms: C_3  and  N_4 
REMARK    3  A    between atoms: N_8  and  C_9 
REMARK    4  A    between atoms: C_9  and  C_10 
ROOT
HETATM    1  N   UNL     1      42.586 -16.145   4.313  1.00  0.00    -0.061 N 
HETATM    2  H   UNL     1      42.521 -16.708   3.458  1.00  0.00     0.280 HD
HETATM    3  C   UNL     1      43.098 -14.774   3.866  1.00  0.00     0.216 C 
HETATM    4  C   UNL     1      42.434 -14.373   2.516  1.00  0.00     0.305 C 
HETATM    5  N   UNL     1      41.139 -13.699   2.618  1.00  0.00     0.095 N 
HETATM    6  C   UNL     1      40.121 -14.413   3.390  1.00  0.00     0.279 C 
HETATM    7  C   UNL     1      40.540 -14.764   4.831  1.00  0.00     0.040 C 
HETATM    8  C   UNL     1      41.208 -16.128   4.923  1.00  0.00     0.242 C 
HETATM    9  C   UNL     1      42.879 -13.748   4.981  1.00  0.00     0.035 C 
HETATM   10  C   UNL     1      41.430 -13.693   5.478  1.00  0.00     0.010 C 
ENDROOT
BRANCH   1  11
HETATM   11  C   UNL     1      43.561 -16.913   5.191  1.00  0.00     0.274 C 
BRANCH  11  12
HETATM   12  C   UNL     1      43.904 -18.282   4.670  1.00  0.00    -0.032 A 
HETATM   13  C   UNL     1      44.643 -19.175   5.461  1.00  0.00     0.011 A 
HETATM   14  C   UNL     1      44.976 -20.453   5.003  1.00  0.00     0.031 A 
HETATM   15  C   UNL     1      44.544 -20.816   3.724  1.00  0.00     0.042 A 
HETATM   16  C   UNL     1      43.807 -19.960   2.907  1.00  0.00    -0.008 A 
HETATM   17  N   UNL     1      44.711 -21.995   3.032  1.00  0.00    -0.365 N 
HETATM   18  C   UNL     1      43.482 -18.676   3.386  1.00  0.00     0.022 A 
HETATM   19  C   UNL     1      43.536 -20.661   1.701  1.00  0.00     0.030 A 
HETATM   20  C   UNL     1      44.106 -21.910   1.806  1.00  0.00     0.089 A 
HETATM   21  H   UNL     1      45.198 -22.810   3.383  1.00  0.00     0.165 HD
ENDBRANCH  11  12
ENDBRANCH   1  11
BRANCH   5  22
HETATM   22  C   UNL     1      40.645 -13.289   1.285  1.00  0.00     0.311 C 
BRANCH  22  23
HETATM   23  C   UNL     1      39.321 -12.560   1.339  1.00  0.00    -0.027 A 
HETATM   24  C   UNL     1      38.210 -13.041   0.636  1.00  0.00     0.028 A 
HETATM   25  C   UNL     1      37.020 -12.334   0.709  1.00  0.00     0.116 A 
HETATM   26  N   UNL     1      36.864 -11.203   1.426  1.00  0.00    -0.273 NA
HETATM   27  C   UNL     1      37.939 -10.763   2.112  1.00  0.00     0.116 A 
HETATM   28  C   UNL     1      39.173 -11.398   2.101  1.00  0.00     0.028 A 
ENDBRANCH  22  23
ENDBRANCH   5  22
TORSDOF 4
ENDMDL
MODEL 10
REMARK VINA RESULT:      -7.7      1.669      2.796
REMARK  4 active torsions:
REMARK  status: ('A' for Active; 'I' for Inactive)
REMARK    1  A    between atoms: C_2  and  C_3 
REMARK    2  A    between atoms: C_3  and  N_4 
REMARK    3  A    between atoms: N_8  and  C_9 
REMARK    4  A    between atoms: C_9  and  C_10 
ROOT
HETATM    1  N   UNL     1      40.691 -15.843   1.912  1.00  0.00    -0.061 N 
HETATM    2  H   UNL     1      40.765 -16.611   1.236  1.00  0.00     0.280 HD
HETATM    3  C   UNL     1      41.728 -14.807   1.473  1.00  0.00     0.216 C 
HETATM    4  C   UNL     1      41.752 -14.704  -0.081  1.00  0.00     0.305 C 
HETATM    5  N   UNL     1      40.785 -13.779  -0.673  1.00  0.00     0.095 N 
HETATM    6  C   UNL     1      39.390 -14.002  -0.289  1.00  0.00     0.279 C 
HETATM    7  C   UNL     1      39.134 -13.980   1.230  1.00  0.00     0.040 C 
HETATM    8  C   UNL     1      39.264 -15.360   1.859  1.00  0.00     0.242 C 
HETATM    9  C   UNL     1      41.454 -13.471   2.168  1.00  0.00     0.035 C 
HETATM   10  C   UNL     1      40.018 -12.971   1.977  1.00  0.00     0.010 C 
ENDROOT
BRANCH   1  11
HETATM   11  C   UNL     1      40.996 -16.494   3.251  1.00  0.00     0.274 C 
BRANCH  11  12
HETATM   12  C   UNL     1      42.020 -17.594   3.176  1.00  0.00    -0.032 A 
HETATM   13  C   UNL     1      42.306 -18.211   1.950  1.00  0.00     0.011 A 
HETATM   14  C   UNL     1      43.251 -19.237   1.850  1.00  0.00     0.031 A 
HETATM   15  C   UNL     1      43.910 -19.626   3.019  1.00  0.00     0.042 A 
HETATM   16  C   UNL     1      43.657 -19.038   4.257  1.00  0.00    -0.008 A 
HETATM   17  N   UNL     1      44.883 -20.582   3.214  1.00  0.00    -0.365 N 
HETATM   18  C   UNL     1      42.700 -18.008   4.338  1.00  0.00     0.022 A 
HETATM   19  C   UNL     1      44.508 -19.671   5.204  1.00  0.00     0.030 A 
HETATM   20  C   UNL     1      45.249 -20.616   4.534  1.00  0.00     0.089 A 
HETATM   21  H   UNL     1      45.278 -21.163   2.486  1.00  0.00     0.165 HD
ENDBRANCH  11  12
ENDBRANCH   1  11
BRANCH   5  22
HETATM   22  C   UNL     1      40.954 -13.698  -2.140  1.00  0.00     0.311 C 
BRANCH  22  23
HETATM   23  C   UNL     1      41.596 -12.407  -2.595  1.00  0.00    -0.027 A 
HETATM   24  C   UNL     1      42.218 -11.553  -1.677  1.00  0.00     0.028 A 
HETATM   25  C   UNL     1      42.785 -10.377  -2.139  1.00  0.00     0.116 A 
HETATM   26  N   UNL     1      42.778 -10.001  -3.434  1.00  0.00    -0.273 NA
HETATM   27  C   UNL     1      42.192 -10.843  -4.310  1.00  0.00     0.116 A 
HETATM   28  C   UNL     1      41.595 -12.042  -3.945  1.00  0.00     0.028 A 
ENDBRANCH  22  23
ENDBRANCH   5  22
TORSDOF 4
ENDMDL
