MODEL 1
REMARK VINA RESULT:      -9.2      0.000      0.000
REMARK  9 active torsions:
REMARK  status: ('A' for Active; 'I' for Inactive)
REMARK    1  A    between atoms: C_2  and  C_3 
REMARK    2  A    between atoms: C_3  and  C_4 
REMARK    3  A    between atoms: C_3  and  C_39 
REMARK    4  A    between atoms: C_6  and  C_7 
REMARK    5  A    between atoms: C_14  and  C_15 
REMARK    6  A    between atoms: C_18  and  C_19 
REMARK    7  A    between atoms: C_19  and  N_20 
REMARK       I    between atoms: N_20  and  C_21 
REMARK       I    between atoms: C_21  and  N_22 
REMARK    8  A    between atoms: N_22  and  C_23 
REMARK    9  A    between atoms: C_26  and  C_27 
ROOT
HETATM    1  C   UNL     1      40.758 -16.090   2.918  1.00  0.00     0.068 C 
HETATM    2  C   UNL     1      41.090 -15.613   1.476  1.00  0.00     0.001 C 
HETATM    3  C   UNL     1      42.066 -14.413   1.536  1.00  0.00     0.040 C 
HETATM    4  C   UNL     1      41.406 -13.212   2.237  1.00  0.00     0.206 C 
HETATM    5  N   UNL     1      40.070 -13.703   2.786  1.00  0.00    -0.065 N 
HETATM    6  H   UNL     1      39.675 -12.934   3.371  1.00  0.00     0.280 HD
HETATM    7  C   UNL     1      40.202 -14.897   3.721  1.00  0.00     0.246 C 
HETATM    8  C   UNL     1      39.777 -15.130   0.819  1.00  0.00     0.033 C 
HETATM    9  C   UNL     1      39.127 -14.022   1.657  1.00  0.00     0.236 C 
ENDROOT
BRANCH   1  10
HETATM   10  C   UNL     1      41.942 -16.764   3.581  1.00  0.00     0.045 A 
HETATM   11  N   UNL     1      42.281 -17.999   3.162  1.00  0.00    -0.233 NA
HETATM   12  C   UNL     1      43.299 -18.609   3.806  1.00  0.00     0.160 A 
HETATM   13  N   UNL     1      43.939 -18.086   4.865  1.00  0.00    -0.233 NA
HETATM   14  C   UNL     1      43.578 -16.854   5.279  1.00  0.00     0.043 A 
HETATM   15  C   UNL     1      42.586 -16.140   4.635  1.00  0.00     0.055 A 
BRANCH  12  16
HETATM   16  C   UNL     1      43.738 -19.929   3.320  1.00  0.00     0.014 A 
HETATM   17  C   UNL     1      43.439 -20.364   2.020  1.00  0.00     0.034 A 
HETATM   18  C   UNL     1      43.869 -21.614   1.603  1.00  0.00     0.117 A 
HETATM   19  N   UNL     1      44.572 -22.459   2.383  1.00  0.00    -0.273 NA
HETATM   20  C   UNL     1      44.841 -22.047   3.635  1.00  0.00     0.117 A 
HETATM   21  C   UNL     1      44.455 -20.815   4.139  1.00  0.00     0.034 A 
ENDBRANCH  12  16
BRANCH  14  22
HETATM   22  C   UNL     1      44.325 -16.304   6.481  1.00  0.00     0.037 C 
BRANCH  22  23
HETATM   23  C   UNL     1      43.591 -16.536   7.822  1.00  0.00     0.006 C 
HETATM   24  C   UNL     1      43.718 -17.961   8.347  1.00  0.00     0.006 C 
ENDBRANCH  22  23
BRANCH  22  25
HETATM   25  C   UNL     1      44.638 -14.802   6.305  1.00  0.00     0.006 C 
HETATM   26  C   UNL     1      44.574 -14.017   7.611  1.00  0.00     0.006 C 
ENDBRANCH  22  25
ENDBRANCH  14  22
ENDBRANCH   1  10
BRANCH   4  27
HETATM   27  C   UNL     1      42.311 -12.537   3.302  1.00  0.00     0.157 C 
BRANCH  27  28
HETATM   28  N   UNL     1      41.631 -11.601   4.201  1.00  0.00    -0.341 N 
HETATM   29  C   UNL     1      41.459 -11.864   5.540  1.00  0.00     0.320 C 
HETATM   30  N   UNL     1      40.961 -10.788   6.224  1.00  0.00    -0.309 N 
HETATM   31  O   UNL     1      41.692 -12.978   5.998  1.00  0.00    -0.247 OA
HETATM   32  H   UNL     1      40.532 -10.058   5.673  1.00  0.00     0.170 HD
HETATM   33  H   UNL     1      41.779 -10.621   3.993  1.00  0.00     0.164 HD
BRANCH  30  34
HETATM   34  C   UNL     1      40.786 -10.697   7.623  1.00  0.00     0.036 A 
HETATM   35  C   UNL     1      41.835 -10.458   8.514  1.00  0.00     0.030 A 
HETATM   36  C   UNL     1      41.601 -10.380   9.893  1.00  0.00     0.017 A 
HETATM   37  C   UNL     1      40.309 -10.538  10.397  1.00  0.00     0.009 A 
HETATM   38  C   UNL     1      39.253 -10.756   9.504  1.00  0.00     0.017 A 
HETATM   39  C   UNL     1      39.489 -10.828   8.125  1.00  0.00     0.030 A 
BRANCH  37  40
HETATM   40  C   UNL     1      40.012 -10.482  11.859  1.00  0.00     0.155 C 
HETATM   41  C   UNL     1      40.478 -11.606  12.745  1.00  0.00     0.096 C 
HETATM   42  O   UNL     1      39.392  -9.523  12.314  1.00  0.00    -0.293 OA
ENDBRANCH  37  40
ENDBRANCH  30  34
ENDBRANCH  27  28
ENDBRANCH   4  27
TORSDOF 9
ENDMDL
MODEL 2
REMARK VINA RESULT:      -8.9      3.001     10.288
REMARK  9 active torsions:
REMARK  status: ('A' for Active; 'I' for Inactive)
REMARK    1  A    between atoms: C_2  and  C_3 
REMARK    2  A    between atoms: C_3  and  C_4 
REMARK    3  A    between atoms: C_3  and  C_39 
REMARK    4  A    between atoms: C_6  and  C_7 
REMARK    5  A    between atoms: C_14  and  C_15 
REMARK    6  A    between atoms: C_18  and  C_19 
REMARK    7  A    between atoms: C_19  and  N_20 
REMARK       I    between atoms: N_20  and  C_21 
REMARK       I    between atoms: C_21  and  N_22 
REMARK    8  A    between atoms: N_22  and  C_23 
REMARK    9  A    between atoms: C_26  and  C_27 
ROOT
HETATM    1  C   UNL     1      40.362 -10.294   6.215  1.00  0.00     0.068 C 
HETATM    2  C   UNL     1      39.200 -11.319   6.078  1.00  0.00     0.001 C 
HETATM    3  C   UNL     1      39.752 -12.756   6.234  1.00  0.00     0.040 C 
HETATM    4  C   UNL     1      40.741 -13.083   5.101  1.00  0.00     0.206 C 
HETATM    5  N   UNL     1      40.959 -11.791   4.320  1.00  0.00    -0.065 N 
HETATM    6  H   UNL     1      41.722 -11.970   3.632  1.00  0.00     0.280 HD
HETATM    7  C   UNL     1      41.454 -10.639   5.183  1.00  0.00     0.246 C 
HETATM    8  C   UNL     1      38.612 -11.183   4.654  1.00  0.00     0.033 C 
HETATM    9  C   UNL     1      39.699 -11.400   3.595  1.00  0.00     0.236 C 
ENDROOT
BRANCH   1  10
HETATM   10  C   UNL     1      40.879 -10.210   7.637  1.00  0.00     0.045 A 
HETATM   11  N   UNL     1      40.093  -9.622   8.561  1.00  0.00    -0.233 NA
HETATM   12  C   UNL     1      40.597  -9.500   9.809  1.00  0.00     0.160 A 
HETATM   13  N   UNL     1      41.841  -9.868  10.156  1.00  0.00    -0.233 NA
HETATM   14  C   UNL     1      42.618 -10.443   9.216  1.00  0.00     0.043 A 
HETATM   15  C   UNL     1      42.155 -10.658   7.932  1.00  0.00     0.055 A 
BRANCH  12  16
HETATM   16  C   UNL     1      39.731  -8.929  10.854  1.00  0.00     0.014 A 
HETATM   17  C   UNL     1      38.478  -8.380  10.545  1.00  0.00     0.034 A 
HETATM   18  C   UNL     1      37.695  -7.851  11.559  1.00  0.00     0.117 A 
HETATM   19  N   UNL     1      38.067  -7.828  12.854  1.00  0.00    -0.273 NA
HETATM   20  C   UNL     1      39.277  -8.338  13.146  1.00  0.00     0.117 A 
HETATM   21  C   UNL     1      40.127  -8.890  12.200  1.00  0.00     0.034 A 
ENDBRANCH  12  16
BRANCH  14  22
HETATM   22  C   UNL     1      44.018 -10.840   9.651  1.00  0.00     0.037 C 
BRANCH  22  23
HETATM   23  C   UNL     1      44.512 -12.158   9.010  1.00  0.00     0.006 C 
HETATM   24  C   UNL     1      45.995 -12.144   8.659  1.00  0.00     0.006 C 
ENDBRANCH  22  23
BRANCH  22  25
HETATM   25  C   UNL     1      44.119 -10.933  11.189  1.00  0.00     0.006 C 
HETATM   26  C   UNL     1      44.049 -12.363  11.712  1.00  0.00     0.006 C 
ENDBRANCH  22  25
ENDBRANCH  14  22
ENDBRANCH   1  10
BRANCH   4  27
HETATM   27  C   UNL     1      42.054 -13.747   5.593  1.00  0.00     0.157 C 
BRANCH  27  28
HETATM   28  N   UNL     1      42.796 -14.498   4.576  1.00  0.00    -0.341 N 
HETATM   29  C   UNL     1      42.949 -15.863   4.639  1.00  0.00     0.320 C 
HETATM   30  N   UNL     1      43.519 -16.378   3.506  1.00  0.00    -0.309 N 
HETATM   31  O   UNL     1      42.639 -16.486   5.650  1.00  0.00    -0.247 OA
HETATM   32  H   UNL     1      43.997 -15.726   2.901  1.00  0.00     0.170 HD
HETATM   33  H   UNL     1      42.716 -14.139   3.632  1.00  0.00     0.164 HD
BRANCH  30  34
HETATM   34  C   UNL     1      43.699 -17.748   3.211  1.00  0.00     0.036 A 
HETATM   35  C   UNL     1      43.349 -18.323   1.986  1.00  0.00     0.030 A 
HETATM   36  C   UNL     1      43.548 -19.689   1.752  1.00  0.00     0.017 A 
HETATM   37  C   UNL     1      44.106 -20.499   2.743  1.00  0.00     0.009 A 
HETATM   38  C   UNL     1      44.478 -19.920   3.963  1.00  0.00     0.017 A 
HETATM   39  C   UNL     1      44.282 -18.553   4.193  1.00  0.00     0.030 A 
BRANCH  37  40
HETATM   40  C   UNL     1      44.322 -21.962   2.548  1.00  0.00     0.155 C 
HETATM   41  C   UNL     1      44.665 -22.817   3.738  1.00  0.00     0.096 C 
HETATM   42  O   UNL     1      44.218 -22.445   1.422  1.00  0.00    -0.293 OA
ENDBRANCH  37  40
ENDBRANCH  30  34
ENDBRANCH  27  28
ENDBRANCH   4  27
TORSDOF 9
ENDMDL
MODEL 3
REMARK VINA RESULT:      -8.8      4.217      9.600
REMARK  9 active torsions:
REMARK  status: ('A' for Active; 'I' for Inactive)
REMARK    1  A    between atoms: C_2  and  C_3 
REMARK    2  A    between atoms: C_3  and  C_4 
REMARK    3  A    between atoms: C_3  and  C_39 
REMARK    4  A    between atoms: C_6  and  C_7 
REMARK    5  A    between atoms: C_14  and  C_15 
REMARK    6  A    between atoms: C_18  and  C_19 
REMARK    7  A    between atoms: C_19  and  N_20 
REMARK       I    between atoms: N_20  and  C_21 
REMARK       I    between atoms: C_21  and  N_22 
REMARK    8  A    between atoms: N_22  and  C_23 
REMARK    9  A    between atoms: C_26  and  C_27 
ROOT
HETATM    1  C   UNL     1      39.350 -10.916   1.167  1.00  0.00     0.068 C 
HETATM    2  C   UNL     1      40.457 -10.692   2.237  1.00  0.00     0.001 C 
HETATM    3  C   UNL     1      41.108 -12.047   2.603  1.00  0.00     0.040 C 
HETATM    4  C   UNL     1      40.075 -12.986   3.253  1.00  0.00     0.206 C 
HETATM    5  N   UNL     1      38.719 -12.297   3.138  1.00  0.00    -0.065 N 
HETATM    6  H   UNL     1      37.998 -12.978   3.459  1.00  0.00     0.280 HD
HETATM    7  C   UNL     1      38.339 -11.947   1.706  1.00  0.00     0.246 C 
HETATM    8  C   UNL     1      39.783 -10.124   3.507  1.00  0.00     0.033 C 
HETATM    9  C   UNL     1      38.683 -11.068   4.006  1.00  0.00     0.236 C 
ENDROOT
BRANCH   1  10
HETATM   10  C   UNL     1      39.930 -11.288  -0.182  1.00  0.00     0.045 A 
HETATM   11  N   UNL     1      39.380 -12.327  -0.841  1.00  0.00    -0.233 NA
HETATM   12  C   UNL     1      39.950 -12.684  -2.012  1.00  0.00     0.160 A 
HETATM   13  N   UNL     1      41.055 -12.110  -2.516  1.00  0.00    -0.233 NA
HETATM   14  C   UNL     1      41.599 -11.079  -1.837  1.00  0.00     0.043 A 
HETATM   15  C   UNL     1      41.041 -10.616  -0.661  1.00  0.00     0.055 A 
BRANCH  12  16
HETATM   16  C   UNL     1      39.323 -13.768  -2.788  1.00  0.00     0.014 A 
HETATM   17  C   UNL     1      37.970 -13.718  -3.152  1.00  0.00     0.034 A 
HETATM   18  C   UNL     1      37.419 -14.760  -3.880  1.00  0.00     0.117 A 
HETATM   19  N   UNL     1      38.115 -15.846  -4.271  1.00  0.00    -0.273 NA
HETATM   20  C   UNL     1      39.408 -15.901  -3.905  1.00  0.00     0.117 A 
HETATM   21  C   UNL     1      40.045 -14.907  -3.180  1.00  0.00     0.034 A 
ENDBRANCH  12  16
BRANCH  14  22
HETATM   22  C   UNL     1      42.849 -10.463  -2.441  1.00  0.00     0.037 C 
BRANCH  22  23
HETATM   23  C   UNL     1      43.849  -9.937  -1.385  1.00  0.00     0.006 C 
HETATM   24  C   UNL     1      43.977  -8.419  -1.371  1.00  0.00     0.006 C 
ENDBRANCH  22  23
BRANCH  22  25
HETATM   25  C   UNL     1      42.493  -9.337  -3.434  1.00  0.00     0.006 C 
HETATM   26  C   UNL     1      42.500  -9.792  -4.890  1.00  0.00     0.006 C 
ENDBRANCH  22  25
ENDBRANCH  14  22
ENDBRANCH   1  10
BRANCH   4  27
HETATM   27  C   UNL     1      40.096 -14.428   2.679  1.00  0.00     0.157 C 
BRANCH  27  28
HETATM   28  N   UNL     1      41.412 -15.074   2.656  1.00  0.00    -0.341 N 
HETATM   29  C   UNL     1      41.594 -16.379   3.048  1.00  0.00     0.320 C 
HETATM   30  N   UNL     1      42.857 -16.834   2.782  1.00  0.00    -0.309 N 
HETATM   31  O   UNL     1      40.699 -16.996   3.620  1.00  0.00    -0.247 OA
HETATM   32  H   UNL     1      43.563 -16.135   2.600  1.00  0.00     0.170 HD
HETATM   33  H   UNL     1      42.018 -14.787   1.898  1.00  0.00     0.164 HD
BRANCH  30  34
HETATM   34  C   UNL     1      43.320 -18.158   2.953  1.00  0.00     0.036 A 
HETATM   35  C   UNL     1      43.308 -19.114   1.933  1.00  0.00     0.030 A 
HETATM   36  C   UNL     1      43.779 -20.413   2.163  1.00  0.00     0.017 A 
HETATM   37  C   UNL     1      44.273 -20.770   3.419  1.00  0.00     0.009 A 
HETATM   38  C   UNL     1      44.307 -19.807   4.435  1.00  0.00     0.017 A 
HETATM   39  C   UNL     1      43.839 -18.508   4.201  1.00  0.00     0.030 A 
BRANCH  37  40
HETATM   40  C   UNL     1      44.770 -22.146   3.717  1.00  0.00     0.155 C 
HETATM   41  C   UNL     1      45.243 -22.467   5.109  1.00  0.00     0.096 C 
HETATM   42  O   UNL     1      44.786 -22.991   2.825  1.00  0.00    -0.293 OA
ENDBRANCH  37  40
ENDBRANCH  30  34
ENDBRANCH  27  28
ENDBRANCH   4  27
TORSDOF 9
ENDMDL
MODEL 4
REMARK VINA RESULT:      -8.7      3.122      8.406
REMARK  9 active torsions:
REMARK  status: ('A' for Active; 'I' for Inactive)
REMARK    1  A    between atoms: C_2  and  C_3 
REMARK    2  A    between atoms: C_3  and  C_4 
REMARK    3  A    between atoms: C_3  and  C_39 
REMARK    4  A    between atoms: C_6  and  C_7 
REMARK    5  A    between atoms: C_14  and  C_15 
REMARK    6  A    between atoms: C_18  and  C_19 
REMARK    7  A    between atoms: C_19  and  N_20 
REMARK       I    between atoms: N_20  and  C_21 
REMARK       I    between atoms: C_21  and  N_22 
REMARK    8  A    between atoms: N_22  and  C_23 
REMARK    9  A    between atoms: C_26  and  C_27 
ROOT
HETATM    1  C   UNL     1      39.984 -10.639   3.673  1.00  0.00     0.068 C 
HETATM    2  C   UNL     1      41.156 -10.280   4.631  1.00  0.00     0.001 C 
HETATM    3  C   UNL     1      41.724 -11.572   5.265  1.00  0.00     0.040 C 
HETATM    4  C   UNL     1      40.660 -12.261   6.138  1.00  0.00     0.206 C 
HETATM    5  N   UNL     1      39.353 -11.504   5.919  1.00  0.00    -0.065 N 
HETATM    6  H   UNL     1      38.601 -12.039   6.404  1.00  0.00     0.280 HD
HETATM    7  C   UNL     1      38.929 -11.443   4.458  1.00  0.00     0.246 C 
HETATM    8  C   UNL     1      40.589  -9.397   5.767  1.00  0.00     0.033 C 
HETATM    9  C   UNL     1      39.449 -10.118   6.496  1.00  0.00     0.236 C 
ENDROOT
BRANCH   1  10
HETATM   10  C   UNL     1      40.469 -11.340   2.420  1.00  0.00     0.045 A 
HETATM   11  N   UNL     1      40.471 -12.688   2.413  1.00  0.00    -0.233 NA
HETATM   12  C   UNL     1      40.964 -13.296   1.312  1.00  0.00     0.160 A 
HETATM   13  N   UNL     1      41.503 -12.642   0.270  1.00  0.00    -0.233 NA
HETATM   14  C   UNL     1      41.503 -11.293   0.300  1.00  0.00     0.043 A 
HETATM   15  C   UNL     1      40.963 -10.596   1.363  1.00  0.00     0.055 A 
BRANCH  12  16
HETATM   16  C   UNL     1      40.910 -14.767   1.248  1.00  0.00     0.014 A 
HETATM   17  C   UNL     1      40.148 -15.510   2.161  1.00  0.00     0.034 A 
HETATM   18  C   UNL     1      40.126 -16.892   2.066  1.00  0.00     0.117 A 
HETATM   19  N   UNL     1      40.804 -17.587   1.132  1.00  0.00    -0.273 NA
HETATM   20  C   UNL     1      41.549 -16.873   0.268  1.00  0.00     0.117 A 
HETATM   21  C   UNL     1      41.631 -15.490   0.284  1.00  0.00     0.034 A 
ENDBRANCH  12  16
BRANCH  14  22
HETATM   22  C   UNL     1      42.125 -10.595  -0.897  1.00  0.00     0.037 C 
BRANCH  22  23
HETATM   23  C   UNL     1      43.013 -11.522  -1.759  1.00  0.00     0.006 C 
HETATM   24  C   UNL     1      42.438 -11.802  -3.142  1.00  0.00     0.006 C 
ENDBRANCH  22  23
BRANCH  22  25
HETATM   25  C   UNL     1      42.928  -9.351  -0.463  1.00  0.00     0.006 C 
HETATM   26  C   UNL     1      44.242  -9.188  -1.219  1.00  0.00     0.006 C 
ENDBRANCH  22  25
ENDBRANCH  14  22
ENDBRANCH   1  10
BRANCH   4  27
HETATM   27  C   UNL     1      40.548 -13.789   5.895  1.00  0.00     0.157 C 
BRANCH  27  28
HETATM   28  N   UNL     1      41.817 -14.479   5.647  1.00  0.00    -0.341 N 
HETATM   29  C   UNL     1      41.877 -15.823   5.362  1.00  0.00     0.320 C 
HETATM   30  N   UNL     1      43.132 -16.224   4.994  1.00  0.00    -0.309 N 
HETATM   31  O   UNL     1      40.890 -16.540   5.496  1.00  0.00    -0.247 OA
HETATM   32  H   UNL     1      43.895 -15.603   5.227  1.00  0.00     0.170 HD
HETATM   33  H   UNL     1      42.520 -13.929   5.170  1.00  0.00     0.164 HD
BRANCH  30  34
HETATM   34  C   UNL     1      43.495 -17.507   4.526  1.00  0.00     0.036 A 
HETATM   35  C   UNL     1      43.539 -17.846   3.171  1.00  0.00     0.030 A 
HETATM   36  C   UNL     1      43.904 -19.137   2.767  1.00  0.00     0.017 A 
HETATM   37  C   UNL     1      44.235 -20.105   3.717  1.00  0.00     0.009 A 
HETATM   38  C   UNL     1      44.213 -19.760   5.074  1.00  0.00     0.017 A 
HETATM   39  C   UNL     1      43.852 -18.467   5.476  1.00  0.00     0.030 A 
BRANCH  37  40
HETATM   40  C   UNL     1      44.613 -21.497   3.337  1.00  0.00     0.155 C 
HETATM   41  C   UNL     1      44.598 -21.890   1.884  1.00  0.00     0.096 C 
HETATM   42  O   UNL     1      44.928 -22.300   4.213  1.00  0.00    -0.293 OA
ENDBRANCH  37  40
ENDBRANCH  30  34
ENDBRANCH  27  28
ENDBRANCH   4  27
TORSDOF 9
ENDMDL
MODEL 5
REMARK VINA RESULT:      -8.5      3.074      8.611
REMARK  9 active torsions:
REMARK  status: ('A' for Active; 'I' for Inactive)
REMARK    1  A    between atoms: C_2  and  C_3 
REMARK    2  A    between atoms: C_3  and  C_4 
REMARK    3  A    between atoms: C_3  and  C_39 
REMARK    4  A    between atoms: C_6  and  C_7 
REMARK    5  A    between atoms: C_14  and  C_15 
REMARK    6  A    between atoms: C_18  and  C_19 
REMARK    7  A    between atoms: C_19  and  N_20 
REMARK       I    between atoms: N_20  and  C_21 
REMARK       I    between atoms: C_21  and  N_22 
REMARK    8  A    between atoms: N_22  and  C_23 
REMARK    9  A    between atoms: C_26  and  C_27 
ROOT
HETATM    1  C   UNL     1      39.114 -12.883   2.149  1.00  0.00     0.068 C 
HETATM    2  C   UNL     1      38.504 -14.272   1.804  1.00  0.00     0.001 C 
HETATM    3  C   UNL     1      39.623 -15.229   1.330  1.00  0.00     0.040 C 
HETATM    4  C   UNL     1      40.262 -14.713   0.027  1.00  0.00     0.206 C 
HETATM    5  N   UNL     1      39.671 -13.330  -0.234  1.00  0.00    -0.065 N 
HETATM    6  H   UNL     1      40.191 -12.920  -1.041  1.00  0.00     0.280 HD
HETATM    7  C   UNL     1      39.878 -12.357   0.918  1.00  0.00     0.246 C 
HETATM    8  C   UNL     1      37.510 -14.079   0.636  1.00  0.00     0.033 C 
HETATM    9  C   UNL     1      38.209 -13.442  -0.571  1.00  0.00     0.236 C 
ENDROOT
BRANCH   1  10
HETATM   10  C   UNL     1      39.955 -12.929   3.408  1.00  0.00     0.045 A 
HETATM   11  N   UNL     1      40.216 -11.764   4.035  1.00  0.00    -0.233 NA
HETATM   12  C   UNL     1      41.019 -11.816   5.120  1.00  0.00     0.160 A 
HETATM   13  N   UNL     1      41.613 -12.937   5.562  1.00  0.00    -0.233 NA
HETATM   14  C   UNL     1      41.350 -14.091   4.915  1.00  0.00     0.043 A 
HETATM   15  C   UNL     1      40.492 -14.131   3.833  1.00  0.00     0.055 A 
BRANCH  12  16
HETATM   16  C   UNL     1      41.260 -10.569   5.866  1.00  0.00     0.014 A 
HETATM   17  C   UNL     1      41.396 -10.568   7.262  1.00  0.00     0.034 A 
HETATM   18  C   UNL     1      41.621  -9.372   7.925  1.00  0.00     0.117 A 
HETATM   19  N   UNL     1      41.719  -8.181   7.302  1.00  0.00    -0.273 NA
HETATM   20  C   UNL     1      41.569  -8.182   5.965  1.00  0.00     0.117 A 
HETATM   21  C   UNL     1      41.345  -9.327   5.218  1.00  0.00     0.034 A 
ENDBRANCH  12  16
BRANCH  14  22
HETATM   22  C   UNL     1      42.045 -15.332   5.447  1.00  0.00     0.037 C 
BRANCH  22  23
HETATM   23  C   UNL     1      41.082 -16.338   6.120  1.00  0.00     0.006 C 
HETATM   24  C   UNL     1      41.024 -17.688   5.417  1.00  0.00     0.006 C 
ENDBRANCH  22  23
BRANCH  22  25
HETATM   25  C   UNL     1      43.183 -14.961   6.422  1.00  0.00     0.006 C 
HETATM   26  C   UNL     1      44.187 -16.090   6.633  1.00  0.00     0.006 C 
ENDBRANCH  22  25
ENDBRANCH  14  22
ENDBRANCH   1  10
BRANCH   4  27
HETATM   27  C   UNL     1      41.813 -14.740   0.040  1.00  0.00     0.157 C 
BRANCH  27  28
HETATM   28  N   UNL     1      42.417 -16.075   0.050  1.00  0.00    -0.341 N 
HETATM   29  C   UNL     1      42.857 -16.672   1.208  1.00  0.00     0.320 C 
HETATM   30  N   UNL     1      43.221 -17.977   1.017  1.00  0.00    -0.309 N 
HETATM   31  O   UNL     1      42.943 -16.033   2.252  1.00  0.00    -0.247 OA
HETATM   32  H   UNL     1      43.390 -18.268   0.065  1.00  0.00     0.170 HD
HETATM   33  H   UNL     1      42.033 -16.726  -0.624  1.00  0.00     0.164 HD
BRANCH  30  34
HETATM   34  C   UNL     1      43.599 -18.894   2.024  1.00  0.00     0.036 A 
HETATM   35  C   UNL     1      43.701 -20.271   1.810  1.00  0.00     0.030 A 
HETATM   36  C   UNL     1      44.079 -21.132   2.849  1.00  0.00     0.017 A 
HETATM   37  C   UNL     1      44.364 -20.622   4.117  1.00  0.00     0.009 A 
HETATM   38  C   UNL     1      44.283 -19.240   4.327  1.00  0.00     0.017 A 
HETATM   39  C   UNL     1      43.910 -18.381   3.285  1.00  0.00     0.030 A 
BRANCH  37  40
HETATM   40  C   UNL     1      44.752 -21.500   5.259  1.00  0.00     0.155 C 
HETATM   41  C   UNL     1      44.077 -21.310   6.592  1.00  0.00     0.096 C 
HETATM   42  O   UNL     1      45.615 -22.359   5.097  1.00  0.00    -0.293 OA
ENDBRANCH  37  40
ENDBRANCH  30  34
ENDBRANCH  27  28
ENDBRANCH   4  27
TORSDOF 9
ENDMDL
MODEL 6
REMARK VINA RESULT:      -8.4      3.010      9.501
REMARK  9 active torsions:
REMARK  status: ('A' for Active; 'I' for Inactive)
REMARK    1  A    between atoms: C_2  and  C_3 
REMARK    2  A    between atoms: C_3  and  C_4 
REMARK    3  A    between atoms: C_3  and  C_39 
REMARK    4  A    between atoms: C_6  and  C_7 
REMARK    5  A    between atoms: C_14  and  C_15 
REMARK    6  A    between atoms: C_18  and  C_19 
REMARK    7  A    between atoms: C_19  and  N_20 
REMARK       I    between atoms: N_20  and  C_21 
REMARK       I    between atoms: C_21  and  N_22 
REMARK    8  A    between atoms: N_22  and  C_23 
REMARK    9  A    between atoms: C_26  and  C_27 
ROOT
HETATM    1  C   UNL     1      40.660  -8.430   6.348  1.00  0.00     0.068 C 
HETATM    2  C   UNL     1      39.331  -9.125   5.935  1.00  0.00     0.001 C 
HETATM    3  C   UNL     1      39.573 -10.643   5.751  1.00  0.00     0.040 C 
HETATM    4  C   UNL     1      40.560 -10.898   4.597  1.00  0.00     0.206 C 
HETATM    5  N   UNL     1      41.089  -9.535   4.161  1.00  0.00    -0.065 N 
HETATM    6  H   UNL     1      41.851  -9.707   3.470  1.00  0.00     0.280 HD
HETATM    7  C   UNL     1      41.736  -8.748   5.291  1.00  0.00     0.246 C 
HETATM    8  C   UNL     1      38.891  -8.541   4.573  1.00  0.00     0.033 C 
HETATM    9  C   UNL     1      39.990  -8.729   3.521  1.00  0.00     0.236 C 
ENDROOT
BRANCH   1  10
HETATM   10  C   UNL     1      41.075  -8.791   7.760  1.00  0.00     0.045 A 
HETATM   11  N   UNL     1      42.075  -9.681   7.915  1.00  0.00    -0.233 NA
HETATM   12  C   UNL     1      42.390 -10.038   9.179  1.00  0.00     0.160 A 
HETATM   13  N   UNL     1      41.729  -9.610  10.268  1.00  0.00    -0.233 NA
HETATM   14  C   UNL     1      40.723  -8.729  10.092  1.00  0.00     0.043 A 
HETATM   15  C   UNL     1      40.379  -8.269   8.836  1.00  0.00     0.055 A 
BRANCH  12  16
HETATM   16  C   UNL     1      43.527 -10.952   9.380  1.00  0.00     0.014 A 
HETATM   17  C   UNL     1      44.326 -10.882  10.531  1.00  0.00     0.034 A 
HETATM   18  C   UNL     1      45.388 -11.760  10.680  1.00  0.00     0.117 A 
HETATM   19  N   UNL     1      45.712 -12.700   9.770  1.00  0.00    -0.273 NA
HETATM   20  C   UNL     1      44.955 -12.754   8.659  1.00  0.00     0.117 A 
HETATM   21  C   UNL     1      43.873 -11.920   8.424  1.00  0.00     0.034 A 
ENDBRANCH  12  16
BRANCH  14  22
HETATM   22  C   UNL     1      40.002  -8.274  11.349  1.00  0.00     0.037 C 
BRANCH  22  23
HETATM   23  C   UNL     1      40.956  -7.879  12.500  1.00  0.00     0.006 C 
HETATM   24  C   UNL     1      40.349  -8.066  13.885  1.00  0.00     0.006 C 
ENDBRANCH  22  23
BRANCH  22  25
HETATM   25  C   UNL     1      39.003  -9.344  11.838  1.00  0.00     0.006 C 
HETATM   26  C   UNL     1      37.551  -9.007  11.513  1.00  0.00     0.006 C 
ENDBRANCH  22  25
ENDBRANCH  14  22
ENDBRANCH   1  10
BRANCH   4  27
HETATM   27  C   UNL     1      41.674 -11.921   4.945  1.00  0.00     0.157 C 
BRANCH  27  28
HETATM   28  N   UNL     1      41.281 -13.330   4.859  1.00  0.00    -0.341 N 
HETATM   29  C   UNL     1      42.066 -14.273   4.239  1.00  0.00     0.320 C 
HETATM   30  N   UNL     1      41.600 -15.546   4.426  1.00  0.00    -0.309 N 
HETATM   31  O   UNL     1      43.033 -13.940   3.560  1.00  0.00    -0.247 OA
HETATM   32  H   UNL     1      40.643 -15.639   4.735  1.00  0.00     0.170 HD
HETATM   33  H   UNL     1      40.773 -13.684   5.661  1.00  0.00     0.164 HD
BRANCH  30  34
HETATM   34  C   UNL     1      42.242 -16.738   4.022  1.00  0.00     0.036 A 
HETATM   35  C   UNL     1      41.986 -17.374   2.804  1.00  0.00     0.030 A 
HETATM   36  C   UNL     1      42.653 -18.556   2.458  1.00  0.00     0.017 A 
HETATM   37  C   UNL     1      43.591 -19.115   3.329  1.00  0.00     0.009 A 
HETATM   38  C   UNL     1      43.865 -18.467   4.539  1.00  0.00     0.017 A 
HETATM   39  C   UNL     1      43.200 -17.282   4.880  1.00  0.00     0.030 A 
BRANCH  37  40
HETATM   40  C   UNL     1      44.314 -20.382   3.013  1.00  0.00     0.155 C 
HETATM   41  C   UNL     1      43.863 -21.210   1.839  1.00  0.00     0.096 C 
HETATM   42  O   UNL     1      45.261 -20.730   3.715  1.00  0.00    -0.293 OA
ENDBRANCH  37  40
ENDBRANCH  30  34
ENDBRANCH  27  28
ENDBRANCH   4  27
TORSDOF 9
ENDMDL
MODEL 7
REMARK VINA RESULT:      -8.3      1.663      4.124
REMARK  9 active torsions:
REMARK  status: ('A' for Active; 'I' for Inactive)
REMARK    1  A    between atoms: C_2  and  C_3 
REMARK    2  A    between atoms: C_3  and  C_4 
REMARK    3  A    between atoms: C_3  and  C_39 
REMARK    4  A    between atoms: C_6  and  C_7 
REMARK    5  A    between atoms: C_14  and  C_15 
REMARK    6  A    between atoms: C_18  and  C_19 
REMARK    7  A    between atoms: C_19  and  N_20 
REMARK       I    between atoms: N_20  and  C_21 
REMARK       I    between atoms: C_21  and  N_22 
REMARK    8  A    between atoms: N_22  and  C_23 
REMARK    9  A    between atoms: C_26  and  C_27 
ROOT
HETATM    1  C   UNL     1      40.889 -16.074   1.332  1.00  0.00     0.068 C 
HETATM    2  C   UNL     1      41.443 -14.748   0.737  1.00  0.00     0.001 C 
HETATM    3  C   UNL     1      41.532 -13.675   1.849  1.00  0.00     0.040 C 
HETATM    4  C   UNL     1      40.131 -13.342   2.394  1.00  0.00     0.206 C 
HETATM    5  N   UNL     1      39.163 -14.333   1.755  1.00  0.00    -0.065 N 
HETATM    6  H   UNL     1      38.236 -14.199   2.214  1.00  0.00     0.280 HD
HETATM    7  C   UNL     1      39.533 -15.788   2.008  1.00  0.00     0.246 C 
HETATM    8  C   UNL     1      40.441 -14.250  -0.330  1.00  0.00     0.033 C 
HETATM    9  C   UNL     1      39.045 -14.070   0.278  1.00  0.00     0.236 C 
ENDROOT
BRANCH   1  10
HETATM   10  C   UNL     1      41.891 -16.746   2.250  1.00  0.00     0.045 A 
HETATM   11  N   UNL     1      42.235 -16.106   3.385  1.00  0.00    -0.233 NA
HETATM   12  C   UNL     1      43.175 -16.691   4.159  1.00  0.00     0.160 A 
HETATM   13  N   UNL     1      43.820 -17.823   3.832  1.00  0.00    -0.233 NA
HETATM   14  C   UNL     1      43.471 -18.443   2.687  1.00  0.00     0.043 A 
HETATM   15  C   UNL     1      42.476 -17.941   1.870  1.00  0.00     0.055 A 
BRANCH  12  16
HETATM   16  C   UNL     1      43.516 -16.050   5.441  1.00  0.00     0.014 A 
HETATM   17  C   UNL     1      43.823 -14.684   5.515  1.00  0.00     0.034 A 
HETATM   18  C   UNL     1      44.141 -14.120   6.741  1.00  0.00     0.117 A 
HETATM   19  N   UNL     1      44.174 -14.816   7.895  1.00  0.00    -0.273 NA
HETATM   20  C   UNL     1      43.897 -16.130   7.819  1.00  0.00     0.117 A 
HETATM   21  C   UNL     1      43.567 -16.779   6.640  1.00  0.00     0.034 A 
ENDBRANCH  12  16
BRANCH  14  22
HETATM   22  C   UNL     1      44.227 -19.718   2.355  1.00  0.00     0.037 C 
BRANCH  22  23
HETATM   23  C   UNL     1      43.305 -20.910   2.008  1.00  0.00     0.006 C 
HETATM   24  C   UNL     1      44.009 -22.018   1.235  1.00  0.00     0.006 C 
ENDBRANCH  22  23
BRANCH  22  25
HETATM   25  C   UNL     1      45.187 -20.111   3.498  1.00  0.00     0.006 C 
HETATM   26  C   UNL     1      44.555 -21.048   4.521  1.00  0.00     0.006 C 
ENDBRANCH  22  25
ENDBRANCH  14  22
ENDBRANCH   1  10
BRANCH   4  27
HETATM   27  C   UNL     1      40.058 -13.304   3.943  1.00  0.00     0.157 C 
BRANCH  27  28
HETATM   28  N   UNL     1      40.793 -12.207   4.580  1.00  0.00    -0.341 N 
HETATM   29  C   UNL     1      40.737 -11.976   5.934  1.00  0.00     0.320 C 
HETATM   30  N   UNL     1      41.629 -11.020   6.338  1.00  0.00    -0.309 N 
HETATM   31  O   UNL     1      39.917 -12.557   6.639  1.00  0.00    -0.247 OA
HETATM   32  H   UNL     1      42.009 -10.420   5.620  1.00  0.00     0.170 HD
HETATM   33  H   UNL     1      41.692 -11.994   4.165  1.00  0.00     0.164 HD
BRANCH  30  34
HETATM   34  C   UNL     1      41.901 -10.643   7.672  1.00  0.00     0.036 A 
HETATM   35  C   UNL     1      42.964 -11.163   8.416  1.00  0.00     0.030 A 
HETATM   36  C   UNL     1      43.183 -10.754   9.737  1.00  0.00     0.017 A 
HETATM   37  C   UNL     1      42.340  -9.812  10.330  1.00  0.00     0.009 A 
HETATM   38  C   UNL     1      41.288  -9.273   9.580  1.00  0.00     0.017 A 
HETATM   39  C   UNL     1      41.074  -9.681   8.257  1.00  0.00     0.030 A 
BRANCH  37  40
HETATM   40  C   UNL     1      42.522  -9.357  11.740  1.00  0.00     0.155 C 
HETATM   41  C   UNL     1      42.855 -10.373  12.801  1.00  0.00     0.096 C 
HETATM   42  O   UNL     1      42.396  -8.165  12.013  1.00  0.00    -0.293 OA
ENDBRANCH  37  40
ENDBRANCH  30  34
ENDBRANCH  27  28
ENDBRANCH   4  27
TORSDOF 9
ENDMDL
MODEL 8
REMARK VINA RESULT:      -8.3      3.113      8.804
REMARK  9 active torsions:
REMARK  status: ('A' for Active; 'I' for Inactive)
REMARK    1  A    between atoms: C_2  and  C_3 
REMARK    2  A    between atoms: C_3  and  C_4 
REMARK    3  A    between atoms: C_3  and  C_39 
REMARK    4  A    between atoms: C_6  and  C_7 
REMARK    5  A    between atoms: C_14  and  C_15 
REMARK    6  A    between atoms: C_18  and  C_19 
REMARK    7  A    between atoms: C_19  and  N_20 
REMARK       I    between atoms: N_20  and  C_21 
REMARK       I    between atoms: C_21  and  N_22 
REMARK    8  A    between atoms: N_22  and  C_23 
REMARK    9  A    between atoms: C_26  and  C_27 
ROOT
HETATM    1  C   UNL     1      41.354 -11.627   1.980  1.00  0.00     0.068 C 
HETATM    2  C   UNL     1      39.998 -11.233   1.327  1.00  0.00     0.001 C 
HETATM    3  C   UNL     1      39.205 -12.511   0.964  1.00  0.00     0.040 C 
HETATM    4  C   UNL     1      39.960 -13.336  -0.094  1.00  0.00     0.206 C 
HETATM    5  N   UNL     1      41.324 -12.676  -0.276  1.00  0.00    -0.065 N 
HETATM    6  H   UNL     1      41.889 -13.299  -0.893  1.00  0.00     0.280 HD
HETATM    7  C   UNL     1      42.116 -12.560   1.019  1.00  0.00     0.246 C 
HETATM    8  C   UNL     1      40.304 -10.471   0.017  1.00  0.00     0.033 C 
HETATM    9  C   UNL     1      41.168 -11.324  -0.919  1.00  0.00     0.236 C 
ENDROOT
BRANCH   1  10
HETATM   10  C   UNL     1      41.168 -12.209   3.366  1.00  0.00     0.045 A 
HETATM   11  N   UNL     1      40.637 -11.416   4.318  1.00  0.00    -0.233 NA
HETATM   12  C   UNL     1      40.537 -11.931   5.562  1.00  0.00     0.160 A 
HETATM   13  N   UNL     1      40.990 -13.146   5.911  1.00  0.00    -0.233 NA
HETATM   14  C   UNL     1      41.530 -13.922   4.949  1.00  0.00     0.043 A 
HETATM   15  C   UNL     1      41.614 -13.490   3.639  1.00  0.00     0.055 A 
BRANCH  12  16
HETATM   16  C   UNL     1      39.892 -11.112   6.603  1.00  0.00     0.014 A 
HETATM   17  C   UNL     1      39.592 -11.641   7.867  1.00  0.00     0.034 A 
HETATM   18  C   UNL     1      38.983 -10.837   8.817  1.00  0.00     0.117 A 
HETATM   19  N   UNL     1      38.652  -9.548   8.602  1.00  0.00    -0.273 NA
HETATM   20  C   UNL     1      38.924  -9.048   7.383  1.00  0.00     0.117 A 
HETATM   21  C   UNL     1      39.532  -9.775   6.372  1.00  0.00     0.034 A 
ENDBRANCH  12  16
BRANCH  14  22
HETATM   22  C   UNL     1      42.032 -15.286   5.388  1.00  0.00     0.037 C 
BRANCH  22  23
HETATM   23  C   UNL     1      40.904 -16.243   5.837  1.00  0.00     0.006 C 
HETATM   24  C   UNL     1      41.069 -17.665   5.316  1.00  0.00     0.006 C 
ENDBRANCH  22  23
BRANCH  22  25
HETATM   25  C   UNL     1      43.090 -15.159   6.505  1.00  0.00     0.006 C 
HETATM   26  C   UNL     1      44.301 -14.328   6.097  1.00  0.00     0.006 C 
ENDBRANCH  22  25
ENDBRANCH  14  22
ENDBRANCH   1  10
BRANCH   4  27
HETATM   27  C   UNL     1      40.036 -14.851   0.234  1.00  0.00     0.157 C 
BRANCH  27  28
HETATM   28  N   UNL     1      41.333 -15.322   0.727  1.00  0.00    -0.341 N 
HETATM   29  C   UNL     1      41.471 -16.507   1.411  1.00  0.00     0.320 C 
HETATM   30  N   UNL     1      42.781 -16.839   1.624  1.00  0.00    -0.309 N 
HETATM   31  O   UNL     1      40.486 -17.123   1.808  1.00  0.00    -0.247 OA
HETATM   32  H   UNL     1      43.461 -16.098   1.519  1.00  0.00     0.170 HD
HETATM   33  H   UNL     1      42.125 -15.096   0.138  1.00  0.00     0.164 HD
BRANCH  30  34
HETATM   34  C   UNL     1      43.256 -18.044   2.186  1.00  0.00     0.036 A 
HETATM   35  C   UNL     1      43.903 -18.113   3.423  1.00  0.00     0.030 A 
HETATM   36  C   UNL     1      44.355 -19.338   3.929  1.00  0.00     0.017 A 
HETATM   37  C   UNL     1      44.160 -20.514   3.203  1.00  0.00     0.009 A 
HETATM   38  C   UNL     1      43.493 -20.451   1.974  1.00  0.00     0.017 A 
HETATM   39  C   UNL     1      43.038 -19.225   1.472  1.00  0.00     0.030 A 
BRANCH  37  40
HETATM   40  C   UNL     1      44.639 -21.841   3.691  1.00  0.00     0.155 C 
HETATM   41  C   UNL     1      45.042 -21.988   5.135  1.00  0.00     0.096 C 
HETATM   42  O   UNL     1      44.698 -22.788   2.911  1.00  0.00    -0.293 OA
ENDBRANCH  37  40
ENDBRANCH  30  34
ENDBRANCH  27  28
ENDBRANCH   4  27
TORSDOF 9
ENDMDL
MODEL 9
REMARK VINA RESULT:      -8.3      4.034      9.408
REMARK  9 active torsions:
REMARK  status: ('A' for Active; 'I' for Inactive)
REMARK    1  A    between atoms: C_2  and  C_3 
REMARK    2  A    between atoms: C_3  and  C_4 
REMARK    3  A    between atoms: C_3  and  C_39 
REMARK    4  A    between atoms: C_6  and  C_7 
REMARK    5  A    between atoms: C_14  and  C_15 
REMARK    6  A    between atoms: C_18  and  C_19 
REMARK    7  A    between atoms: C_19  and  N_20 
REMARK       I    between atoms: N_20  and  C_21 
REMARK       I    between atoms: C_21  and  N_22 
REMARK    8  A    between atoms: N_22  and  C_23 
REMARK    9  A    between atoms: C_26  and  C_27 
ROOT
HETATM    1  C   UNL     1      40.932 -11.738  -0.934  1.00  0.00     0.068 C 
HETATM    2  C   UNL     1      40.279 -12.215  -2.262  1.00  0.00     0.001 C 
HETATM    3  C   UNL     1      39.848 -13.695  -2.127  1.00  0.00     0.040 C 
HETATM    4  C   UNL     1      41.075 -14.599  -1.910  1.00  0.00     0.206 C 
HETATM    5  N   UNL     1      42.275 -13.676  -1.726  1.00  0.00    -0.065 N 
HETATM    6  H   UNL     1      43.085 -14.273  -1.451  1.00  0.00     0.280 HD
HETATM    7  C   UNL     1      42.102 -12.679  -0.587  1.00  0.00     0.246 C 
HETATM    8  C   UNL     1      41.347 -12.126  -3.376  1.00  0.00     0.033 C 
HETATM    9  C   UNL     1      42.583 -12.956  -3.011  1.00  0.00     0.236 C 
ENDROOT
BRANCH   1  10
HETATM   10  C   UNL     1      39.915 -11.602   0.182  1.00  0.00     0.045 A 
HETATM   11  N   UNL     1      40.157 -12.254   1.338  1.00  0.00    -0.233 NA
HETATM   12  C   UNL     1      39.211 -12.172   2.298  1.00  0.00     0.160 A 
HETATM   13  N   UNL     1      38.035 -11.542   2.143  1.00  0.00    -0.233 NA
HETATM   14  C   UNL     1      37.805 -10.906   0.976  1.00  0.00     0.043 A 
HETATM   15  C   UNL     1      38.748 -10.892  -0.034  1.00  0.00     0.055 A 
BRANCH  12  16
HETATM   16  C   UNL     1      39.482 -12.814   3.596  1.00  0.00     0.014 A 
HETATM   17  C   UNL     1      40.062 -14.088   3.674  1.00  0.00     0.034 A 
HETATM   18  C   UNL     1      40.299 -14.656   4.916  1.00  0.00     0.117 A 
HETATM   19  N   UNL     1      40.002 -14.050   6.082  1.00  0.00    -0.273 NA
HETATM   20  C   UNL     1      39.428 -12.836   6.005  1.00  0.00     0.117 A 
HETATM   21  C   UNL     1      39.156 -12.188   4.810  1.00  0.00     0.034 A 
ENDBRANCH  12  16
BRANCH  14  22
HETATM   22  C   UNL     1      36.462 -10.209   0.844  1.00  0.00     0.037 C 
BRANCH  22  23
HETATM   23  C   UNL     1      36.043  -9.430   2.112  1.00  0.00     0.006 C 
HETATM   24  C   UNL     1      36.267  -7.927   2.004  1.00  0.00     0.006 C 
ENDBRANCH  22  23
BRANCH  22  25
HETATM   25  C   UNL     1      35.352 -11.206   0.448  1.00  0.00     0.006 C 
HETATM   26  C   UNL     1      33.953 -10.729   0.820  1.00  0.00     0.006 C 
ENDBRANCH  22  25
ENDBRANCH  14  22
ENDBRANCH   1  10
BRANCH   4  27
HETATM   27  C   UNL     1      40.895 -15.629  -0.764  1.00  0.00     0.157 C 
BRANCH  27  28
HETATM   28  N   UNL     1      42.138 -16.133  -0.172  1.00  0.00    -0.341 N 
HETATM   29  C   UNL     1      42.143 -16.990   0.904  1.00  0.00     0.320 C 
HETATM   30  N   UNL     1      43.393 -17.472   1.183  1.00  0.00    -0.309 N 
HETATM   31  O   UNL     1      41.115 -17.213   1.536  1.00  0.00    -0.247 OA
HETATM   32  H   UNL     1      44.173 -16.970   0.784  1.00  0.00     0.170 HD
HETATM   33  H   UNL     1      42.891 -16.298  -0.829  1.00  0.00     0.164 HD
BRANCH  30  34
HETATM   34  C   UNL     1      43.712 -18.458   2.143  1.00  0.00     0.036 A 
HETATM   35  C   UNL     1      43.886 -19.809   1.829  1.00  0.00     0.030 A 
HETATM   36  C   UNL     1      44.200 -20.742   2.825  1.00  0.00     0.017 A 
HETATM   37  C   UNL     1      44.347 -20.332   4.152  1.00  0.00     0.009 A 
HETATM   38  C   UNL     1      44.195 -18.975   4.465  1.00  0.00     0.017 A 
HETATM   39  C   UNL     1      43.886 -18.044   3.466  1.00  0.00     0.030 A 
BRANCH  37  40
HETATM   40  C   UNL     1      44.663 -21.290   5.251  1.00  0.00     0.155 C 
HETATM   41  C   UNL     1      44.036 -21.086   6.604  1.00  0.00     0.096 C 
HETATM   42  O   UNL     1      45.429 -22.228   5.036  1.00  0.00    -0.293 OA
ENDBRANCH  37  40
ENDBRANCH  30  34
ENDBRANCH  27  28
ENDBRANCH   4  27
TORSDOF 9
ENDMDL
MODEL 10
REMARK VINA RESULT:      -8.1      2.756      8.277
REMARK  9 active torsions:
REMARK  status: ('A' for Active; 'I' for Inactive)
REMARK    1  A    between atoms: C_2  and  C_3 
REMARK    2  A    between atoms: C_3  and  C_4 
REMARK    3  A    between atoms: C_3  and  C_39 
REMARK    4  A    between atoms: C_6  and  C_7 
REMARK    5  A    between atoms: C_14  and  C_15 
REMARK    6  A    between atoms: C_18  and  C_19 
REMARK    7  A    between atoms: C_19  and  N_20 
REMARK       I    between atoms: N_20  and  C_21 
REMARK       I    between atoms: C_21  and  N_22 
REMARK    8  A    between atoms: N_22  and  C_23 
REMARK    9  A    between atoms: C_26  and  C_27 
ROOT
HETATM    1  C   UNL     1      41.119 -11.433   1.913  1.00  0.00     0.068 C 
HETATM    2  C   UNL     1      39.637 -11.202   1.503  1.00  0.00     0.001 C 
HETATM    3  C   UNL     1      38.814 -12.481   1.784  1.00  0.00     0.040 C 
HETATM    4  C   UNL     1      39.315 -13.650   0.916  1.00  0.00     0.206 C 
HETATM    5  N   UNL     1      40.577 -13.164   0.210  1.00  0.00    -0.065 N 
HETATM    6  H   UNL     1      40.994 -13.986  -0.278  1.00  0.00     0.280 HD
HETATM    7  C   UNL     1      41.654 -12.672   1.167  1.00  0.00     0.246 C 
HETATM    8  C   UNL     1      39.600 -10.932  -0.019  1.00  0.00     0.033 C 
HETATM    9  C   UNL     1      40.236 -12.093  -0.791  1.00  0.00     0.236 C 
ENDROOT
BRANCH   1  10
HETATM   10  C   UNL     1      41.288 -11.514   3.416  1.00  0.00     0.045 A 
HETATM   11  N   UNL     1      41.833 -12.634   3.931  1.00  0.00    -0.233 NA
HETATM   12  C   UNL     1      41.918 -12.714   5.276  1.00  0.00     0.160 A 
HETATM   13  N   UNL     1      41.438 -11.783   6.117  1.00  0.00    -0.233 NA
HETATM   14  C   UNL     1      40.884 -10.674   5.584  1.00  0.00     0.043 A 
HETATM   15  C   UNL     1      40.814 -10.489   4.217  1.00  0.00     0.055 A 
BRANCH  12  16
HETATM   16  C   UNL     1      42.577 -13.895   5.861  1.00  0.00     0.014 A 
HETATM   17  C   UNL     1      41.966 -15.157   5.839  1.00  0.00     0.034 A 
HETATM   18  C   UNL     1      42.620 -16.242   6.403  1.00  0.00     0.117 A 
HETATM   19  N   UNL     1      43.833 -16.162   6.985  1.00  0.00    -0.273 NA
HETATM   20  C   UNL     1      44.408 -14.946   7.021  1.00  0.00     0.117 A 
HETATM   21  C   UNL     1      43.833 -13.807   6.483  1.00  0.00     0.034 A 
ENDBRANCH  12  16
BRANCH  14  22
HETATM   22  C   UNL     1      40.352  -9.649   6.571  1.00  0.00     0.037 C 
BRANCH  22  23
HETATM   23  C   UNL     1      41.443  -8.708   7.131  1.00  0.00     0.006 C 
HETATM   24  C   UNL     1      41.686  -7.476   6.267  1.00  0.00     0.006 C 
ENDBRANCH  22  23
BRANCH  22  25
HETATM   25  C   UNL     1      39.598 -10.330   7.733  1.00  0.00     0.006 C 
HETATM   26  C   UNL     1      40.028  -9.828   9.107  1.00  0.00     0.006 C 
ENDBRANCH  22  25
ENDBRANCH  14  22
ENDBRANCH   1  10
BRANCH   4  27
HETATM   27  C   UNL     1      39.507 -14.973   1.703  1.00  0.00     0.157 C 
BRANCH  27  28
HETATM   28  N   UNL     1      40.816 -15.613   1.545  1.00  0.00    -0.341 N 
HETATM   29  C   UNL     1      41.198 -16.696   2.301  1.00  0.00     0.320 C 
HETATM   30  N   UNL     1      42.378 -17.242   1.873  1.00  0.00    -0.309 N 
HETATM   31  O   UNL     1      40.538 -17.050   3.273  1.00  0.00    -0.247 OA
HETATM   32  H   UNL     1      42.953 -16.669   1.272  1.00  0.00     0.170 HD
HETATM   33  H   UNL     1      41.176 -15.628   0.598  1.00  0.00     0.164 HD
BRANCH  30  34
HETATM   34  C   UNL     1      42.973 -18.427   2.358  1.00  0.00     0.036 A 
HETATM   35  C   UNL     1      43.651 -18.503   3.579  1.00  0.00     0.030 A 
HETATM   36  C   UNL     1      44.224 -19.707   4.007  1.00  0.00     0.017 A 
HETATM   37  C   UNL     1      44.123 -20.855   3.219  1.00  0.00     0.009 A 
HETATM   38  C   UNL     1      43.426 -20.786   2.006  1.00  0.00     0.017 A 
HETATM   39  C   UNL     1      42.849 -19.582   1.582  1.00  0.00     0.030 A 
BRANCH  37  40
HETATM   40  C   UNL     1      44.732 -22.155   3.623  1.00  0.00     0.155 C 
HETATM   41  C   UNL     1      45.119 -22.366   5.063  1.00  0.00     0.096 C 
HETATM   42  O   UNL     1      44.908 -23.031   2.779  1.00  0.00    -0.293 OA
ENDBRANCH  37  40
ENDBRANCH  30  34
ENDBRANCH  27  28
ENDBRANCH   4  27
TORSDOF 9
ENDMDL
