MODEL 1
REMARK VINA RESULT:      -9.8      0.000      0.000
REMARK  6 active torsions:
REMARK  status: ('A' for Active; 'I' for Inactive)
REMARK    1  A    between atoms: O_2  and  C_3 
REMARK    2  A    between atoms: C_6  and  C_7 
REMARK    3  A    between atoms: C_11  and  C_12 
REMARK       I    between atoms: C_12  and  N_13 
REMARK    4  A    between atoms: N_13  and  N_14 
REMARK       I    between atoms: N_14  and  C_15 
REMARK    5  A    between atoms: C_15  and  C_16 
REMARK    6  A    between atoms: C_17  and  C_18 
ROOT
HETATM    1  C   UNL     1      45.006 -13.206   7.735  1.00  0.00     0.288 C 
HETATM    2  N   UNL     1      43.952 -14.086   7.596  1.00  0.00    -0.262 N 
HETATM    3  O   UNL     1      46.026 -13.305   7.052  1.00  0.00    -0.264 OA
HETATM    4  H   UNL     1      43.194 -14.142   8.272  1.00  0.00     0.190 HD
ENDROOT
BRANCH   1   5
HETATM    5  C   UNL     1      44.839 -12.183   8.728  1.00  0.00     0.121 A 
HETATM    6  N   UNL     1      45.844 -11.306   9.027  1.00  0.00    -0.272 N 
HETATM    7  N   UNL     1      45.536 -10.422   9.986  1.00  0.00    -0.174 NA
HETATM    8  H   UNL     1      46.768 -11.272   8.608  1.00  0.00     0.189 HD
HETATM    9  C   UNL     1      44.267 -10.709  10.322  1.00  0.00     0.089 A 
HETATM   10  C   UNL     1      43.796 -11.813   9.554  1.00  0.00     0.071 A 
BRANCH   9  11
HETATM   11  C   UNL     1      43.553  -9.945  11.352  1.00  0.00    -0.005 A 
HETATM   12  C   UNL     1      43.870 -10.077  12.709  1.00  0.00     0.016 A 
HETATM   13  C   UNL     1      43.183  -9.333  13.676  1.00  0.00     0.037 A 
HETATM   14  C   UNL     1      42.172  -8.443  13.309  1.00  0.00     0.068 A 
HETATM   15  C   UNL     1      41.843  -8.309  11.962  1.00  0.00     0.037 A 
HETATM   16  C   UNL     1      42.528  -9.057  10.994  1.00  0.00     0.016 A 
BRANCH  14  17
HETATM   17  O   UNL     1      41.590  -7.775  14.350  1.00  0.00    -0.356 OA
HETATM   18  C   UNL     1      41.711  -8.365  15.638  1.00  0.00     0.210 C 
ENDBRANCH  14  17
ENDBRANCH   9  11
ENDBRANCH   1   5
BRANCH   2  19
HETATM   19  N   UNL     1      44.132 -15.213   6.780  1.00  0.00    -0.267 N 
HETATM   20  C   UNL     1      43.976 -16.456   7.352  1.00  0.00     0.240 C 
HETATM   21  O   UNL     1      43.546 -16.628   8.488  1.00  0.00    -0.271 OA
HETATM   22  H   UNL     1      44.640 -15.067   5.910  1.00  0.00     0.190 HD
BRANCH  20  23
HETATM   23  C   UNL     1      44.408 -17.590   6.492  1.00  0.00     0.089 A 
HETATM   24  C   UNL     1      43.371 -18.537   5.911  1.00  0.00     0.036 A 
HETATM   25  C   UNL     1      44.305 -19.002   7.005  1.00  0.00     0.025 A 
BRANCH  24  26
HETATM   26  C   UNL     1      43.536 -19.051   4.500  1.00  0.00    -0.015 A 
HETATM   27  C   UNL     1      42.773 -18.542   3.438  1.00  0.00     0.123 A 
HETATM   28  F   UNL     1      41.889 -17.560   3.673  1.00  0.00    -0.206 F 
HETATM   29  C   UNL     1      42.905 -19.016   2.133  1.00  0.00     0.043 A 
HETATM   30  C   UNL     1      43.815 -20.031   1.858  1.00  0.00     0.003 A 
HETATM   31  C   UNL     1      44.584 -20.566   2.890  1.00  0.00     0.001 A 
HETATM   32  C   UNL     1      44.439 -20.084   4.195  1.00  0.00     0.011 A 
ENDBRANCH  24  26
ENDBRANCH  20  23
ENDBRANCH   2  19
TORSDOF 6
ENDMDL
MODEL 2
REMARK VINA RESULT:      -9.5      2.967     11.172
REMARK  6 active torsions:
REMARK  status: ('A' for Active; 'I' for Inactive)
REMARK    1  A    between atoms: O_2  and  C_3 
REMARK    2  A    between atoms: C_6  and  C_7 
REMARK    3  A    between atoms: C_11  and  C_12 
REMARK       I    between atoms: C_12  and  N_13 
REMARK    4  A    between atoms: N_13  and  N_14 
REMARK       I    between atoms: N_14  and  C_15 
REMARK    5  A    between atoms: C_15  and  C_16 
REMARK    6  A    between atoms: C_17  and  C_18 
ROOT
HETATM    1  C   UNL     1      43.264 -13.672   6.352  1.00  0.00     0.288 C 
HETATM    2  N   UNL     1      44.141 -13.839   7.405  1.00  0.00    -0.262 N 
HETATM    3  O   UNL     1      42.500 -12.708   6.293  1.00  0.00    -0.264 OA
HETATM    4  H   UNL     1      44.636 -14.712   7.571  1.00  0.00     0.190 HD
ENDROOT
BRANCH   1   5
HETATM    5  C   UNL     1      43.294 -14.696   5.346  1.00  0.00     0.121 A 
HETATM    6  N   UNL     1      42.972 -14.429   4.045  1.00  0.00    -0.272 N 
HETATM    7  N   UNL     1      43.034 -15.493   3.233  1.00  0.00    -0.174 NA
HETATM    8  H   UNL     1      42.694 -13.533   3.658  1.00  0.00     0.189 HD
HETATM    9  C   UNL     1      43.436 -16.504   4.022  1.00  0.00     0.089 A 
HETATM   10  C   UNL     1      43.607 -16.041   5.359  1.00  0.00     0.071 A 
BRANCH   9  11
HETATM   11  C   UNL     1      43.633 -17.858   3.495  1.00  0.00    -0.005 A 
HETATM   12  C   UNL     1      44.178 -18.877   4.285  1.00  0.00     0.016 A 
HETATM   13  C   UNL     1      44.351 -20.166   3.766  1.00  0.00     0.037 A 
HETATM   14  C   UNL     1      43.982 -20.464   2.453  1.00  0.00     0.068 A 
HETATM   15  C   UNL     1      43.447 -19.456   1.654  1.00  0.00     0.037 A 
HETATM   16  C   UNL     1      43.277 -18.165   2.172  1.00  0.00     0.016 A 
BRANCH  14  17
HETATM   17  O   UNL     1      44.197 -21.761   2.077  1.00  0.00    -0.356 OA
HETATM   18  C   UNL     1      44.653 -22.653   3.085  1.00  0.00     0.210 C 
ENDBRANCH  14  17
ENDBRANCH   9  11
ENDBRANCH   1   5
BRANCH   2  19
HETATM   19  N   UNL     1      44.028 -12.978   8.506  1.00  0.00    -0.267 N 
HETATM   20  C   UNL     1      45.180 -12.412   9.004  1.00  0.00     0.240 C 
HETATM   21  O   UNL     1      46.271 -12.500   8.449  1.00  0.00    -0.271 OA
HETATM   22  H   UNL     1      43.169 -13.044   9.048  1.00  0.00     0.190 HD
BRANCH  20  23
HETATM   23  C   UNL     1      45.011 -11.706  10.302  1.00  0.00     0.089 A 
HETATM   24  C   UNL     1      43.996 -10.581  10.425  1.00  0.00     0.036 A 
HETATM   25  C   UNL     1      45.478 -10.282  10.448  1.00  0.00     0.025 A 
BRANCH  24  26
HETATM   26  C   UNL     1      43.174 -10.452  11.686  1.00  0.00    -0.015 A 
HETATM   27  C   UNL     1      41.850 -10.913  11.751  1.00  0.00     0.123 A 
HETATM   28  F   UNL     1      41.305 -11.505  10.677  1.00  0.00    -0.206 F 
HETATM   29  C   UNL     1      41.075 -10.788  12.904  1.00  0.00     0.043 A 
HETATM   30  C   UNL     1      41.614 -10.183  14.034  1.00  0.00     0.003 A 
HETATM   31  C   UNL     1      42.923  -9.705  14.002  1.00  0.00     0.001 A 
HETATM   32  C   UNL     1      43.689  -9.834  12.839  1.00  0.00     0.011 A 
ENDBRANCH  24  26
ENDBRANCH  20  23
ENDBRANCH   2  19
TORSDOF 6
ENDMDL
MODEL 3
REMARK VINA RESULT:      -9.1      3.479     11.484
REMARK  6 active torsions:
REMARK  status: ('A' for Active; 'I' for Inactive)
REMARK    1  A    between atoms: O_2  and  C_3 
REMARK    2  A    between atoms: C_6  and  C_7 
REMARK    3  A    between atoms: C_11  and  C_12 
REMARK       I    between atoms: C_12  and  N_13 
REMARK    4  A    between atoms: N_13  and  N_14 
REMARK       I    between atoms: N_14  and  C_15 
REMARK    5  A    between atoms: C_15  and  C_16 
REMARK    6  A    between atoms: C_17  and  C_18 
ROOT
HETATM    1  C   UNL     1      42.053 -12.812   5.534  1.00  0.00     0.288 C 
HETATM    2  N   UNL     1      42.631 -12.650   6.777  1.00  0.00    -0.262 N 
HETATM    3  O   UNL     1      41.179 -12.049   5.122  1.00  0.00    -0.264 OA
HETATM    4  H   UNL     1      43.205 -13.368   7.210  1.00  0.00     0.190 HD
ENDROOT
BRANCH   1   5
HETATM    5  C   UNL     1      42.528 -13.928   4.765  1.00  0.00     0.121 A 
HETATM    6  N   UNL     1      42.941 -13.780   3.471  1.00  0.00    -0.272 N 
HETATM    7  N   UNL     1      43.341 -14.919   2.888  1.00  0.00    -0.174 NA
HETATM    8  H   UNL     1      42.964 -12.920   2.933  1.00  0.00     0.189 HD
HETATM    9  C   UNL     1      43.209 -15.857   3.840  1.00  0.00     0.089 A 
HETATM   10  C   UNL     1      42.697 -15.272   5.035  1.00  0.00     0.071 A 
BRANCH   9  11
HETATM   11  C   UNL     1      43.558 -17.260   3.590  1.00  0.00    -0.005 A 
HETATM   12  C   UNL     1      43.545 -17.796   2.297  1.00  0.00     0.016 A 
HETATM   13  C   UNL     1      43.890 -19.136   2.078  1.00  0.00     0.037 A 
HETATM   14  C   UNL     1      44.256 -19.963   3.142  1.00  0.00     0.068 A 
HETATM   15  C   UNL     1      44.263 -19.443   4.434  1.00  0.00     0.037 A 
HETATM   16  C   UNL     1      43.915 -18.103   4.654  1.00  0.00     0.016 A 
BRANCH  14  17
HETATM   17  O   UNL     1      44.576 -21.244   2.787  1.00  0.00    -0.356 OA
HETATM   18  C   UNL     1      43.905 -21.783   1.656  1.00  0.00     0.210 C 
ENDBRANCH  14  17
ENDBRANCH   9  11
ENDBRANCH   1   5
BRANCH   2  19
HETATM   19  N   UNL     1      42.080 -11.696   7.646  1.00  0.00    -0.267 N 
HETATM   20  C   UNL     1      42.900 -11.149   8.607  1.00  0.00     0.240 C 
HETATM   21  O   UNL     1      44.111 -11.336   8.648  1.00  0.00    -0.271 OA
HETATM   22  H   UNL     1      41.064 -11.676   7.711  1.00  0.00     0.190 HD
BRANCH  20  23
HETATM   23  C   UNL     1      42.193 -10.331   9.629  1.00  0.00     0.089 A 
HETATM   24  C   UNL     1      41.796 -10.958  10.956  1.00  0.00     0.036 A 
HETATM   25  C   UNL     1      40.743 -10.599   9.933  1.00  0.00     0.025 A 
BRANCH  24  26
HETATM   26  C   UNL     1      41.924 -10.154  12.229  1.00  0.00    -0.015 A 
HETATM   27  C   UNL     1      43.172  -9.911  12.823  1.00  0.00     0.123 A 
HETATM   28  F   UNL     1      44.284 -10.383  12.237  1.00  0.00    -0.206 F 
HETATM   29  C   UNL     1      43.305  -9.183  14.005  1.00  0.00     0.043 A 
HETATM   30  C   UNL     1      42.172  -8.677  14.633  1.00  0.00     0.003 A 
HETATM   31  C   UNL     1      40.915  -8.907  14.077  1.00  0.00     0.001 A 
HETATM   32  C   UNL     1      40.795  -9.642  12.893  1.00  0.00     0.011 A 
ENDBRANCH  24  26
ENDBRANCH  20  23
ENDBRANCH   2  19
TORSDOF 6
ENDMDL
MODEL 4
REMARK VINA RESULT:      -8.9      1.622      2.337
REMARK  6 active torsions:
REMARK  status: ('A' for Active; 'I' for Inactive)
REMARK    1  A    between atoms: O_2  and  C_3 
REMARK    2  A    between atoms: C_6  and  C_7 
REMARK    3  A    between atoms: C_11  and  C_12 
REMARK       I    between atoms: C_12  and  N_13 
REMARK    4  A    between atoms: N_13  and  N_14 
REMARK       I    between atoms: N_14  and  C_15 
REMARK    5  A    between atoms: C_15  and  C_16 
REMARK    6  A    between atoms: C_17  and  C_18 
ROOT
HETATM    1  C   UNL     1      44.135 -13.743   6.560  1.00  0.00     0.288 C 
HETATM    2  N   UNL     1      43.084 -14.637   6.530  1.00  0.00    -0.262 N 
HETATM    3  O   UNL     1      44.950 -13.671   5.640  1.00  0.00    -0.264 OA
HETATM    4  H   UNL     1      42.520 -14.847   7.350  1.00  0.00     0.190 HD
ENDROOT
BRANCH   1   5
HETATM    5  C   UNL     1      44.220 -12.919   7.733  1.00  0.00     0.121 A 
HETATM    6  N   UNL     1      45.379 -12.810   8.447  1.00  0.00    -0.272 N 
HETATM    7  N   UNL     1      45.292 -12.014   9.522  1.00  0.00    -0.174 NA
HETATM    8  H   UNL     1      46.264 -13.266   8.247  1.00  0.00     0.189 HD
HETATM    9  C   UNL     1      44.028 -11.558   9.509  1.00  0.00     0.089 A 
HETATM   10  C   UNL     1      43.322 -12.108   8.399  1.00  0.00     0.071 A 
BRANCH   9  11
HETATM   11  C   UNL     1      43.533 -10.637  10.537  1.00  0.00    -0.005 A 
HETATM   12  C   UNL     1      42.473  -9.758  10.281  1.00  0.00     0.016 A 
HETATM   13  C   UNL     1      42.009  -8.892  11.279  1.00  0.00     0.037 A 
HETATM   14  C   UNL     1      42.589  -8.888  12.548  1.00  0.00     0.068 A 
HETATM   15  C   UNL     1      43.650  -9.752  12.812  1.00  0.00     0.037 A 
HETATM   16  C   UNL     1      44.117 -10.616  11.813  1.00  0.00     0.016 A 
BRANCH  14  17
HETATM   17  O   UNL     1      42.035  -8.001  13.429  1.00  0.00    -0.356 OA
HETATM   18  C   UNL     1      41.176  -8.538  14.426  1.00  0.00     0.210 C 
ENDBRANCH  14  17
ENDBRANCH   9  11
ENDBRANCH   1   5
BRANCH   2  19
HETATM   19  N   UNL     1      43.055 -15.594   5.504  1.00  0.00    -0.267 N 
HETATM   20  C   UNL     1      42.538 -16.837   5.795  1.00  0.00     0.240 C 
HETATM   21  O   UNL     1      41.968 -17.101   6.848  1.00  0.00    -0.271 OA
HETATM   22  H   UNL     1      43.668 -15.424   4.709  1.00  0.00     0.190 HD
BRANCH  20  23
HETATM   23  C   UNL     1      42.756 -17.859   4.737  1.00  0.00     0.089 A 
HETATM   24  C   UNL     1      44.149 -18.421   4.503  1.00  0.00     0.036 A 
HETATM   25  C   UNL     1      43.515 -17.497   3.488  1.00  0.00     0.025 A 
BRANCH  24  26
HETATM   26  C   UNL     1      44.320 -19.889   4.193  1.00  0.00    -0.015 A 
HETATM   27  C   UNL     1      44.524 -20.837   5.209  1.00  0.00     0.123 A 
HETATM   28  F   UNL     1      44.546 -20.435   6.489  1.00  0.00    -0.206 F 
HETATM   29  C   UNL     1      44.696 -22.193   4.936  1.00  0.00     0.043 A 
HETATM   30  C   UNL     1      44.674 -22.640   3.620  1.00  0.00     0.003 A 
HETATM   31  C   UNL     1      44.483 -21.726   2.585  1.00  0.00     0.001 A 
HETATM   32  C   UNL     1      44.314 -20.368   2.871  1.00  0.00     0.011 A 
ENDBRANCH  24  26
ENDBRANCH  20  23
ENDBRANCH   2  19
TORSDOF 6
ENDMDL
MODEL 5
REMARK VINA RESULT:      -8.6      3.432      4.046
REMARK  6 active torsions:
REMARK  status: ('A' for Active; 'I' for Inactive)
REMARK    1  A    between atoms: O_2  and  C_3 
REMARK    2  A    between atoms: C_6  and  C_7 
REMARK    3  A    between atoms: C_11  and  C_12 
REMARK       I    between atoms: C_12  and  N_13 
REMARK    4  A    between atoms: N_13  and  N_14 
REMARK       I    between atoms: N_14  and  C_15 
REMARK    5  A    between atoms: C_15  and  C_16 
REMARK    6  A    between atoms: C_17  and  C_18 
ROOT
HETATM    1  C   UNL     1      39.701 -13.218   5.796  1.00  0.00     0.288 C 
HETATM    2  N   UNL     1      39.879 -14.443   6.407  1.00  0.00    -0.262 N 
HETATM    3  O   UNL     1      39.510 -13.121   4.583  1.00  0.00    -0.264 OA
HETATM    4  H   UNL     1      40.226 -14.534   7.359  1.00  0.00     0.190 HD
ENDROOT
BRANCH   1   5
HETATM    5  C   UNL     1      39.767 -12.073   6.660  1.00  0.00     0.121 A 
HETATM    6  N   UNL     1      40.227 -10.867   6.214  1.00  0.00    -0.272 N 
HETATM    7  N   UNL     1      40.239  -9.903   7.146  1.00  0.00    -0.174 NA
HETATM    8  H   UNL     1      40.554 -10.647   5.279  1.00  0.00     0.189 HD
HETATM    9  C   UNL     1      39.746 -10.488   8.250  1.00  0.00     0.089 A 
HETATM   10  C   UNL     1      39.440 -11.855   7.984  1.00  0.00     0.071 A 
BRANCH   9  11
HETATM   11  C   UNL     1      39.590  -9.748   9.507  1.00  0.00    -0.005 A 
HETATM   12  C   UNL     1      40.683  -9.138  10.136  1.00  0.00     0.016 A 
HETATM   13  C   UNL     1      40.512  -8.429  11.331  1.00  0.00     0.037 A 
HETATM   14  C   UNL     1      39.251  -8.312  11.919  1.00  0.00     0.068 A 
HETATM   15  C   UNL     1      38.158  -8.922  11.308  1.00  0.00     0.037 A 
HETATM   16  C   UNL     1      38.330  -9.636  10.113  1.00  0.00     0.016 A 
BRANCH  14  17
HETATM   17  O   UNL     1      39.225  -7.587  13.078  1.00  0.00    -0.356 OA
HETATM   18  C   UNL     1      40.082  -8.021  14.126  1.00  0.00     0.210 C 
ENDBRANCH  14  17
ENDBRANCH   9  11
ENDBRANCH   1   5
BRANCH   2  19
HETATM   19  N   UNL     1      40.012 -15.578   5.593  1.00  0.00    -0.267 N 
HETATM   20  C   UNL     1      41.111 -16.385   5.787  1.00  0.00     0.240 C 
HETATM   21  O   UNL     1      41.892 -16.250   6.724  1.00  0.00    -0.271 OA
HETATM   22  H   UNL     1      39.468 -15.586   4.733  1.00  0.00     0.190 HD
BRANCH  20  23
HETATM   23  C   UNL     1      41.305 -17.426   4.742  1.00  0.00     0.089 A 
HETATM   24  C   UNL     1      42.524 -17.369   3.835  1.00  0.00     0.036 A 
HETATM   25  C   UNL     1      41.147 -17.068   3.288  1.00  0.00     0.025 A 
BRANCH  24  26
HETATM   26  C   UNL     1      43.231 -18.648   3.453  1.00  0.00    -0.015 A 
HETATM   27  C   UNL     1      44.221 -19.213   4.271  1.00  0.00     0.123 A 
HETATM   28  F   UNL     1      44.536 -18.618   5.432  1.00  0.00    -0.206 F 
HETATM   29  C   UNL     1      44.892 -20.386   3.925  1.00  0.00     0.043 A 
HETATM   30  C   UNL     1      44.585 -21.029   2.731  1.00  0.00     0.003 A 
HETATM   31  C   UNL     1      43.613 -20.491   1.890  1.00  0.00     0.001 A 
HETATM   32  C   UNL     1      42.949 -19.312   2.246  1.00  0.00     0.011 A 
ENDBRANCH  24  26
ENDBRANCH  20  23
ENDBRANCH   2  19
TORSDOF 6
ENDMDL
MODEL 6
REMARK VINA RESULT:      -8.3      8.893     12.583
REMARK  6 active torsions:
REMARK  status: ('A' for Active; 'I' for Inactive)
REMARK    1  A    between atoms: O_2  and  C_3 
REMARK    2  A    between atoms: C_6  and  C_7 
REMARK    3  A    between atoms: C_11  and  C_12 
REMARK       I    between atoms: C_12  and  N_13 
REMARK    4  A    between atoms: N_13  and  N_14 
REMARK       I    between atoms: N_14  and  C_15 
REMARK    5  A    between atoms: C_15  and  C_16 
REMARK    6  A    between atoms: C_17  and  C_18 
ROOT
HETATM    1  C   UNL     1      41.132 -14.798  -0.447  1.00  0.00     0.288 C 
HETATM    2  N   UNL     1      42.237 -14.193  -1.011  1.00  0.00    -0.262 N 
HETATM    3  O   UNL     1      39.989 -14.405  -0.681  1.00  0.00    -0.264 OA
HETATM    4  H   UNL     1      43.184 -14.372  -0.686  1.00  0.00     0.190 HD
ENDROOT
BRANCH   1   5
HETATM    5  C   UNL     1      41.404 -15.899   0.434  1.00  0.00     0.121 A 
HETATM    6  N   UNL     1      40.397 -16.589   1.047  1.00  0.00    -0.272 N 
HETATM    7  N   UNL     1      40.815 -17.578   1.848  1.00  0.00    -0.174 NA
HETATM    8  H   UNL     1      39.400 -16.420   0.957  1.00  0.00     0.189 HD
HETATM    9  C   UNL     1      42.155 -17.559   1.746  1.00  0.00     0.089 A 
HETATM   10  C   UNL     1      42.562 -16.514   0.867  1.00  0.00     0.071 A 
BRANCH   9  11
HETATM   11  C   UNL     1      42.995 -18.511   2.480  1.00  0.00    -0.005 A 
HETATM   12  C   UNL     1      43.379 -18.276   3.805  1.00  0.00     0.016 A 
HETATM   13  C   UNL     1      44.175 -19.201   4.491  1.00  0.00     0.037 A 
HETATM   14  C   UNL     1      44.599 -20.378   3.872  1.00  0.00     0.068 A 
HETATM   15  C   UNL     1      44.231 -20.619   2.550  1.00  0.00     0.037 A 
HETATM   16  C   UNL     1      43.438 -19.691   1.862  1.00  0.00     0.016 A 
BRANCH  14  17
HETATM   17  O   UNL     1      45.363 -21.196   4.657  1.00  0.00    -0.356 OA
HETATM   18  C   UNL     1      44.671 -22.151   5.451  1.00  0.00     0.210 C 
ENDBRANCH  14  17
ENDBRANCH   9  11
ENDBRANCH   1   5
BRANCH   2  19
HETATM   19  N   UNL     1      42.048 -13.001  -1.727  1.00  0.00    -0.267 N 
HETATM   20  C   UNL     1      42.296 -11.812  -1.077  1.00  0.00     0.240 C 
HETATM   21  O   UNL     1      42.812 -11.744   0.033  1.00  0.00    -0.271 OA
HETATM   22  H   UNL     1      41.475 -13.062  -2.565  1.00  0.00     0.190 HD
BRANCH  20  23
HETATM   23  C   UNL     1      41.852 -10.600  -1.817  1.00  0.00     0.089 A 
HETATM   24  C   UNL     1      42.839  -9.845  -2.692  1.00  0.00     0.036 A 
HETATM   25  C   UNL     1      42.347  -9.242  -1.397  1.00  0.00     0.025 A 
BRANCH  24  26
HETATM   26  C   UNL     1      42.382  -9.280  -4.017  1.00  0.00    -0.015 A 
HETATM   27  C   UNL     1      42.334 -10.069  -5.176  1.00  0.00     0.123 A 
HETATM   28  F   UNL     1      42.681 -11.364  -5.107  1.00  0.00    -0.206 F 
HETATM   29  C   UNL     1      41.927  -9.558  -6.408  1.00  0.00     0.043 A 
HETATM   30  C   UNL     1      41.558  -8.221  -6.511  1.00  0.00     0.003 A 
HETATM   31  C   UNL     1      41.602  -7.405  -5.382  1.00  0.00     0.001 A 
HETATM   32  C   UNL     1      42.015  -7.929  -4.153  1.00  0.00     0.011 A 
ENDBRANCH  24  26
ENDBRANCH  20  23
ENDBRANCH   2  19
TORSDOF 6
ENDMDL
MODEL 7
REMARK VINA RESULT:      -8.2      3.911     11.437
REMARK  6 active torsions:
REMARK  status: ('A' for Active; 'I' for Inactive)
REMARK    1  A    between atoms: O_2  and  C_3 
REMARK    2  A    between atoms: C_6  and  C_7 
REMARK    3  A    between atoms: C_11  and  C_12 
REMARK       I    between atoms: C_12  and  N_13 
REMARK    4  A    between atoms: N_13  and  N_14 
REMARK       I    between atoms: N_14  and  C_15 
REMARK    5  A    between atoms: C_15  and  C_16 
REMARK    6  A    between atoms: C_17  and  C_18 
ROOT
HETATM    1  C   UNL     1      40.454 -12.685   6.208  1.00  0.00     0.288 C 
HETATM    2  N   UNL     1      41.527 -12.005   6.748  1.00  0.00    -0.262 N 
HETATM    3  O   UNL     1      39.292 -12.362   6.456  1.00  0.00    -0.264 OA
HETATM    4  H   UNL     1      42.477 -12.367   6.714  1.00  0.00     0.190 HD
ENDROOT
BRANCH   1   5
HETATM    5  C   UNL     1      40.782 -13.793   5.355  1.00  0.00     0.121 A 
HETATM    6  N   UNL     1      39.957 -14.180   4.338  1.00  0.00    -0.272 N 
HETATM    7  N   UNL     1      40.397 -15.238   3.644  1.00  0.00    -0.174 NA
HETATM    8  H   UNL     1      39.071 -13.758   4.077  1.00  0.00     0.189 HD
HETATM    9  C   UNL     1      41.575 -15.553   4.209  1.00  0.00     0.089 A 
HETATM   10  C   UNL     1      41.849 -14.667   5.291  1.00  0.00     0.071 A 
BRANCH   9  11
HETATM   11  C   UNL     1      42.387 -16.672   3.720  1.00  0.00    -0.005 A 
HETATM   12  C   UNL     1      42.405 -17.906   4.382  1.00  0.00     0.016 A 
HETATM   13  C   UNL     1      43.181 -18.965   3.894  1.00  0.00     0.037 A 
HETATM   14  C   UNL     1      43.948 -18.815   2.737  1.00  0.00     0.068 A 
HETATM   15  C   UNL     1      43.945 -17.590   2.075  1.00  0.00     0.037 A 
HETATM   16  C   UNL     1      43.172 -16.529   2.565  1.00  0.00     0.016 A 
BRANCH  14  17
HETATM   17  O   UNL     1      44.650 -19.929   2.368  1.00  0.00    -0.356 OA
HETATM   18  C   UNL     1      44.723 -20.985   3.316  1.00  0.00     0.210 C 
ENDBRANCH  14  17
ENDBRANCH   9  11
ENDBRANCH   1   5
BRANCH   2  19
HETATM   19  N   UNL     1      41.273 -11.038   7.732  1.00  0.00    -0.267 N 
HETATM   20  C   UNL     1      42.302 -10.693   8.579  1.00  0.00     0.240 C 
HETATM   21  O   UNL     1      43.459 -11.070   8.425  1.00  0.00    -0.271 OA
HETATM   22  H   UNL     1      40.295 -10.863   7.954  1.00  0.00     0.190 HD
BRANCH  20  23
HETATM   23  C   UNL     1      41.896  -9.846   9.732  1.00  0.00     0.089 A 
HETATM   24  C   UNL     1      41.320 -10.493  10.981  1.00  0.00     0.036 A 
HETATM   25  C   UNL     1      40.436  -9.679  10.064  1.00  0.00     0.025 A 
BRANCH  24  26
HETATM   26  C   UNL     1      41.700  -9.960  12.342  1.00  0.00    -0.015 A 
HETATM   27  C   UNL     1      40.730  -9.539  13.265  1.00  0.00     0.123 A 
HETATM   28  F   UNL     1      39.430  -9.632  12.943  1.00  0.00    -0.206 F 
HETATM   29  C   UNL     1      41.066  -9.032  14.520  1.00  0.00     0.043 A 
HETATM   30  C   UNL     1      42.405  -8.927  14.884  1.00  0.00     0.003 A 
HETATM   31  C   UNL     1      43.395  -9.326  13.989  1.00  0.00     0.001 A 
HETATM   32  C   UNL     1      43.045  -9.831  12.732  1.00  0.00     0.011 A 
ENDBRANCH  24  26
ENDBRANCH  20  23
ENDBRANCH   2  19
TORSDOF 6
ENDMDL
MODEL 8
REMARK VINA RESULT:      -8.0      8.557     12.514
REMARK  6 active torsions:
REMARK  status: ('A' for Active; 'I' for Inactive)
REMARK    1  A    between atoms: O_2  and  C_3 
REMARK    2  A    between atoms: C_6  and  C_7 
REMARK    3  A    between atoms: C_11  and  C_12 
REMARK       I    between atoms: C_12  and  N_13 
REMARK    4  A    between atoms: N_13  and  N_14 
REMARK       I    between atoms: N_14  and  C_15 
REMARK    5  A    between atoms: C_15  and  C_16 
REMARK    6  A    between atoms: C_17  and  C_18 
ROOT
HETATM    1  C   UNL     1      41.022 -14.501  -1.109  1.00  0.00     0.288 C 
HETATM    2  N   UNL     1      40.787 -15.803  -0.717  1.00  0.00    -0.262 N 
HETATM    3  O   UNL     1      41.997 -13.868  -0.702  1.00  0.00    -0.264 OA
HETATM    4  H   UNL     1      39.899 -16.272  -0.883  1.00  0.00     0.190 HD
ENDROOT
BRANCH   1   5
HETATM    5  C   UNL     1      40.055 -13.933  -2.006  1.00  0.00     0.121 A 
HETATM    6  N   UNL     1      40.410 -13.014  -2.953  1.00  0.00    -0.272 N 
HETATM    7  N   UNL     1      39.391 -12.571  -3.701  1.00  0.00    -0.174 NA
HETATM    8  H   UNL     1      41.341 -12.648  -3.127  1.00  0.00     0.189 HD
HETATM    9  C   UNL     1      38.317 -13.240  -3.247  1.00  0.00     0.089 A 
HETATM   10  C   UNL     1      38.696 -14.104  -2.179  1.00  0.00     0.071 A 
BRANCH   9  11
HETATM   11  C   UNL     1      36.984 -13.036  -3.825  1.00  0.00    -0.005 A 
HETATM   12  C   UNL     1      36.330 -14.054  -4.528  1.00  0.00     0.016 A 
HETATM   13  C   UNL     1      35.054 -13.842  -5.065  1.00  0.00     0.037 A 
HETATM   14  C   UNL     1      34.407 -12.615  -4.909  1.00  0.00     0.068 A 
HETATM   15  C   UNL     1      35.052 -11.592  -4.219  1.00  0.00     0.037 A 
HETATM   16  C   UNL     1      36.331 -11.802  -3.685  1.00  0.00     0.016 A 
BRANCH  14  17
HETATM   17  O   UNL     1      33.164 -12.547  -5.474  1.00  0.00    -0.356 OA
HETATM   18  C   UNL     1      32.569 -11.258  -5.560  1.00  0.00     0.210 C 
ENDBRANCH  14  17
ENDBRANCH   9  11
ENDBRANCH   1   5
BRANCH   2  19
HETATM   19  N   UNL     1      41.587 -16.345   0.299  1.00  0.00    -0.267 N 
HETATM   20  C   UNL     1      41.157 -16.213   1.600  1.00  0.00     0.240 C 
HETATM   21  O   UNL     1      40.049 -15.784   1.905  1.00  0.00    -0.271 OA
HETATM   22  H   UNL     1      42.556 -16.542   0.056  1.00  0.00     0.190 HD
BRANCH  20  23
HETATM   23  C   UNL     1      42.163 -16.600   2.626  1.00  0.00     0.089 A 
HETATM   24  C   UNL     1      41.936 -17.839   3.476  1.00  0.00     0.036 A 
HETATM   25  C   UNL     1      41.834 -16.461   4.088  1.00  0.00     0.025 A 
BRANCH  24  26
HETATM   26  C   UNL     1      43.104 -18.737   3.814  1.00  0.00    -0.015 A 
HETATM   27  C   UNL     1      43.643 -19.628   2.873  1.00  0.00     0.123 A 
HETATM   28  F   UNL     1      43.126 -19.671   1.635  1.00  0.00    -0.206 F 
HETATM   29  C   UNL     1      44.711 -20.472   3.174  1.00  0.00     0.043 A 
HETATM   30  C   UNL     1      45.271 -20.447   4.447  1.00  0.00     0.003 A 
HETATM   31  C   UNL     1      44.755 -19.581   5.409  1.00  0.00     0.001 A 
HETATM   32  C   UNL     1      43.681 -18.742   5.096  1.00  0.00     0.011 A 
ENDBRANCH  24  26
ENDBRANCH  20  23
ENDBRANCH   2  19
TORSDOF 6
ENDMDL
MODEL 9
REMARK VINA RESULT:      -7.9      8.889      9.854
REMARK  6 active torsions:
REMARK  status: ('A' for Active; 'I' for Inactive)
REMARK    1  A    between atoms: O_2  and  C_3 
REMARK    2  A    between atoms: C_6  and  C_7 
REMARK    3  A    between atoms: C_11  and  C_12 
REMARK       I    between atoms: C_12  and  N_13 
REMARK    4  A    between atoms: N_13  and  N_14 
REMARK       I    between atoms: N_14  and  C_15 
REMARK    5  A    between atoms: C_15  and  C_16 
REMARK    6  A    between atoms: C_17  and  C_18 
ROOT
HETATM    1  C   UNL     1      39.805 -14.251  -0.580  1.00  0.00     0.288 C 
HETATM    2  N   UNL     1      39.996 -15.131   0.466  1.00  0.00    -0.262 N 
HETATM    3  O   UNL     1      40.352 -14.414  -1.671  1.00  0.00    -0.264 OA
HETATM    4  H   UNL     1      39.714 -14.916   1.420  1.00  0.00     0.190 HD
ENDROOT
BRANCH   1   5
HETATM    5  C   UNL     1      38.942 -13.135  -0.308  1.00  0.00     0.121 A 
HETATM    6  N   UNL     1      39.221 -11.884  -0.781  1.00  0.00    -0.272 N 
HETATM    7  N   UNL     1      38.327 -10.950  -0.429  1.00  0.00    -0.174 NA
HETATM    8  H   UNL     1      40.018 -11.611  -1.348  1.00  0.00     0.189 HD
HETATM    9  C   UNL     1      37.405 -11.612   0.290  1.00  0.00     0.089 A 
HETATM   10  C   UNL     1      37.759 -12.989   0.390  1.00  0.00     0.071 A 
BRANCH   9  11
HETATM   11  C   UNL     1      36.238 -10.928   0.858  1.00  0.00    -0.005 A 
HETATM   12  C   UNL     1      34.936 -11.256   0.463  1.00  0.00     0.016 A 
HETATM   13  C   UNL     1      33.835 -10.597   1.025  1.00  0.00     0.037 A 
HETATM   14  C   UNL     1      34.011  -9.605   1.990  1.00  0.00     0.068 A 
HETATM   15  C   UNL     1      35.302  -9.264   2.385  1.00  0.00     0.037 A 
HETATM   16  C   UNL     1      36.405  -9.921   1.821  1.00  0.00     0.016 A 
BRANCH  14  17
HETATM   17  O   UNL     1      32.853  -9.050   2.460  1.00  0.00    -0.356 OA
HETATM   18  C   UNL     1      32.759  -7.632   2.421  1.00  0.00     0.210 C 
ENDBRANCH  14  17
ENDBRANCH   9  11
ENDBRANCH   1   5
BRANCH   2  19
HETATM   19  N   UNL     1      40.969 -16.131   0.323  1.00  0.00    -0.267 N 
HETATM   20  C   UNL     1      41.027 -17.117   1.282  1.00  0.00     0.240 C 
HETATM   21  O   UNL     1      40.184 -17.253   2.163  1.00  0.00    -0.271 OA
HETATM   22  H   UNL     1      41.748 -15.920  -0.298  1.00  0.00     0.190 HD
BRANCH  20  23
HETATM   23  C   UNL     1      42.222 -17.998   1.191  1.00  0.00     0.089 A 
HETATM   24  C   UNL     1      43.087 -18.228   2.420  1.00  0.00     0.036 A 
HETATM   25  C   UNL     1      43.602 -17.400   1.265  1.00  0.00     0.025 A 
BRANCH  24  26
HETATM   26  C   UNL     1      43.657 -19.602   2.685  1.00  0.00    -0.015 A 
HETATM   27  C   UNL     1      44.346 -19.896   3.872  1.00  0.00     0.123 A 
HETATM   28  F   UNL     1      44.484 -18.943   4.807  1.00  0.00    -0.206 F 
HETATM   29  C   UNL     1      44.889 -21.155   4.125  1.00  0.00     0.043 A 
HETATM   30  C   UNL     1      44.759 -22.164   3.177  1.00  0.00     0.003 A 
HETATM   31  C   UNL     1      44.089 -21.905   1.983  1.00  0.00     0.001 A 
HETATM   32  C   UNL     1      43.551 -20.637   1.740  1.00  0.00     0.011 A 
ENDBRANCH  24  26
ENDBRANCH  20  23
ENDBRANCH   2  19
TORSDOF 6
ENDMDL
MODEL 10
REMARK VINA RESULT:      -7.9      8.290     11.703
REMARK  6 active torsions:
REMARK  status: ('A' for Active; 'I' for Inactive)
REMARK    1  A    between atoms: O_2  and  C_3 
REMARK    2  A    between atoms: C_6  and  C_7 
REMARK    3  A    between atoms: C_11  and  C_12 
REMARK       I    between atoms: C_12  and  N_13 
REMARK    4  A    between atoms: N_13  and  N_14 
REMARK       I    between atoms: N_14  and  C_15 
REMARK    5  A    between atoms: C_15  and  C_16 
REMARK    6  A    between atoms: C_17  and  C_18 
ROOT
HETATM    1  C   UNL     1      41.119 -15.383   0.475  1.00  0.00     0.288 C 
HETATM    2  N   UNL     1      41.622 -16.620   0.127  1.00  0.00    -0.262 N 
HETATM    3  O   UNL     1      40.950 -15.060   1.651  1.00  0.00    -0.264 OA
HETATM    4  H   UNL     1      41.588 -16.976  -0.825  1.00  0.00     0.190 HD
ENDROOT
BRANCH   1   5
HETATM    5  C   UNL     1      40.799 -14.509  -0.619  1.00  0.00     0.121 A 
HETATM    6  N   UNL     1      39.517 -14.368  -1.069  1.00  0.00    -0.272 N 
HETATM    7  N   UNL     1      39.386 -13.527  -2.104  1.00  0.00    -0.174 NA
HETATM    8  H   UNL     1      38.689 -14.832  -0.707  1.00  0.00     0.189 HD
HETATM    9  C   UNL     1      40.628 -13.073  -2.337  1.00  0.00     0.089 A 
HETATM   10  C   UNL     1      41.545 -13.671  -1.424  1.00  0.00     0.071 A 
BRANCH   9  11
HETATM   11  C   UNL     1      40.907 -12.109  -3.407  1.00  0.00    -0.005 A 
HETATM   12  C   UNL     1      42.217 -11.824  -3.811  1.00  0.00     0.016 A 
HETATM   13  C   UNL     1      42.461 -10.907  -4.840  1.00  0.00     0.037 A 
HETATM   14  C   UNL     1      41.407 -10.260  -5.487  1.00  0.00     0.068 A 
HETATM   15  C   UNL     1      40.099 -10.529  -5.088  1.00  0.00     0.037 A 
HETATM   16  C   UNL     1      39.855 -11.444  -4.055  1.00  0.00     0.016 A 
BRANCH  14  17
HETATM   17  O   UNL     1      41.785  -9.397  -6.477  1.00  0.00    -0.356 OA
HETATM   18  C   UNL     1      41.346  -9.701  -7.795  1.00  0.00     0.210 C 
ENDBRANCH  14  17
ENDBRANCH   9  11
ENDBRANCH   1   5
BRANCH   2  19
HETATM   19  N   UNL     1      41.776 -17.582   1.137  1.00  0.00    -0.267 N 
HETATM   20  C   UNL     1      43.054 -17.976   1.463  1.00  0.00     0.240 C 
HETATM   21  O   UNL     1      44.062 -17.427   1.029  1.00  0.00    -0.271 OA
HETATM   22  H   UNL     1      40.953 -18.137   1.363  1.00  0.00     0.190 HD
BRANCH  20  23
HETATM   23  C   UNL     1      43.125 -19.156   2.365  1.00  0.00     0.089 A 
HETATM   24  C   UNL     1      44.340 -19.354   3.257  1.00  0.00     0.036 A 
HETATM   25  C   UNL     1      44.101 -20.265   2.075  1.00  0.00     0.025 A 
BRANCH  24  26
HETATM   26  C   UNL     1      44.157 -19.871   4.665  1.00  0.00    -0.015 A 
HETATM   27  C   UNL     1      43.669 -19.049   5.692  1.00  0.00     0.123 A 
HETATM   28  F   UNL     1      43.336 -17.778   5.418  1.00  0.00    -0.206 F 
HETATM   29  C   UNL     1      43.508 -19.508   6.999  1.00  0.00     0.043 A 
HETATM   30  C   UNL     1      43.841 -20.821   7.314  1.00  0.00     0.003 A 
HETATM   31  C   UNL     1      44.337 -21.663   6.321  1.00  0.00     0.001 A 
HETATM   32  C   UNL     1      44.497 -21.190   5.014  1.00  0.00     0.011 A 
ENDBRANCH  24  26
ENDBRANCH  20  23
ENDBRANCH   2  19
TORSDOF 6
ENDMDL
