MODEL 1
REMARK VINA RESULT:      -9.2      0.000      0.000
REMARK  7 active torsions:
REMARK  status: ('A' for Active; 'I' for Inactive)
REMARK    1  A    between atoms: O_2  and  C_3 
REMARK    2  A    between atoms: C_6  and  C_7 
REMARK    3  A    between atoms: C_7  and  C_8 
REMARK    4  A    between atoms: C_7  and  C_14 
REMARK    5  A    between atoms: C_14  and  C_15 
REMARK       I    between atoms: C_15  and  N_16 
REMARK    6  A    between atoms: N_16  and  C_17 
REMARK    7  A    between atoms: C_17  and  C_18 
ROOT
HETATM    1  C   UNL     1      43.777 -17.998   2.528  1.00  0.00     0.060 C 
ENDROOT
BRANCH   1   2
HETATM    2  C   UNL     1      42.920 -17.289   3.581  1.00  0.00    -0.049 A 
HETATM    3  C   UNL     1      43.189 -15.937   3.873  1.00  0.00     0.010 A 
HETATM    4  C   UNL     1      42.443 -15.234   4.824  1.00  0.00     0.037 A 
HETATM    5  C   UNL     1      41.397 -15.854   5.502  1.00  0.00     0.068 A 
HETATM    6  C   UNL     1      41.095 -17.180   5.205  1.00  0.00     0.037 A 
HETATM    7  C   UNL     1      41.844 -17.886   4.250  1.00  0.00     0.010 A 
BRANCH   5   8
HETATM    8  O   UNL     1      40.751 -15.063   6.411  1.00  0.00    -0.356 OA
HETATM    9  C   UNL     1      40.101 -13.904   5.903  1.00  0.00     0.210 C 
ENDBRANCH   5   8
ENDBRANCH   1   2
BRANCH   1  10
HETATM   10  C   UNL     1      44.030 -19.489   2.782  1.00  0.00    -0.049 A 
HETATM   11  C   UNL     1      44.643 -19.966   3.950  1.00  0.00     0.008 A 
HETATM   12  C   UNL     1      44.849 -21.335   4.141  1.00  0.00     0.001 A 
HETATM   13  C   UNL     1      44.449 -22.248   3.169  1.00  0.00     0.000 A 
HETATM   14  C   UNL     1      43.840 -21.794   2.003  1.00  0.00     0.001 A 
HETATM   15  C   UNL     1      43.632 -20.427   1.812  1.00  0.00     0.008 A 
ENDBRANCH   1  10
BRANCH   1  16
HETATM   16  C   UNL     1      43.513 -17.711   1.033  1.00  0.00     0.116 C 
BRANCH  16  17
HETATM   17  C   UNL     1      42.239 -17.005   0.609  1.00  0.00     0.218 C 
HETATM   18  N   UNL     1      42.332 -15.714   0.184  1.00  0.00    -0.355 N 
HETATM   19  H   UNL     1      43.221 -15.264   0.006  1.00  0.00     0.162 HD
HETATM   20  O   UNL     1      41.151 -17.574   0.711  1.00  0.00    -0.274 OA
BRANCH  18  21
HETATM   21  C   UNL     1      41.164 -15.019  -0.310  1.00  0.00     0.184 C 
BRANCH  21  22
HETATM   22  C   UNL     1      41.496 -14.238  -1.540  1.00  0.00     0.080 A 
HETATM   23  N   UNL     1      41.318 -14.752  -2.782  1.00  0.00    -0.177 NA
HETATM   24  N   UNL     1      41.676 -13.753  -3.626  1.00  0.00    -0.281 N 
HETATM   25  H   UNL     1      41.608 -13.911  -4.626  1.00  0.00     0.189 HD
HETATM   26  C   UNL     1      42.074 -12.657  -2.951  1.00  0.00     0.036 A 
HETATM   27  C   UNL     1      41.979 -12.928  -1.622  1.00  0.00    -0.006 A 
HETATM   28  C   UNL     1      42.542 -11.309  -3.290  1.00  0.00     0.059 C 
HETATM   29  C   UNL     1      42.381 -11.775  -0.802  1.00  0.00     0.043 C 
HETATM   30  C   UNL     1      43.033 -10.830  -1.878  1.00  0.00     0.011 C 
ENDBRANCH  21  22
ENDBRANCH  18  21
ENDBRANCH  16  17
ENDBRANCH   1  16
TORSDOF 7
ENDMDL
MODEL 2
REMARK VINA RESULT:      -8.8      2.007      2.908
REMARK  7 active torsions:
REMARK  status: ('A' for Active; 'I' for Inactive)
REMARK    1  A    between atoms: O_2  and  C_3 
REMARK    2  A    between atoms: C_6  and  C_7 
REMARK    3  A    between atoms: C_7  and  C_8 
REMARK    4  A    between atoms: C_7  and  C_14 
REMARK    5  A    between atoms: C_14  and  C_15 
REMARK       I    between atoms: C_15  and  N_16 
REMARK    6  A    between atoms: N_16  and  C_17 
REMARK    7  A    between atoms: C_17  and  C_18 
ROOT
HETATM    1  C   UNL     1      43.827 -18.027   2.584  1.00  0.00     0.060 C 
ENDROOT
BRANCH   1   2
HETATM    2  C   UNL     1      42.931 -17.344   3.622  1.00  0.00    -0.049 A 
HETATM    3  C   UNL     1      43.070 -15.957   3.828  1.00  0.00     0.010 A 
HETATM    4  C   UNL     1      42.283 -15.275   4.761  1.00  0.00     0.037 A 
HETATM    5  C   UNL     1      41.323 -15.953   5.506  1.00  0.00     0.068 A 
HETATM    6  C   UNL     1      41.147 -17.318   5.295  1.00  0.00     0.037 A 
HETATM    7  C   UNL     1      41.937 -18.002   4.358  1.00  0.00     0.010 A 
BRANCH   5   8
HETATM    8  O   UNL     1      40.624 -15.177   6.389  1.00  0.00    -0.356 OA
HETATM    9  C   UNL     1      40.284 -13.865   5.957  1.00  0.00     0.210 C 
ENDBRANCH   5   8
ENDBRANCH   1   2
BRANCH   1  10
HETATM   10  C   UNL     1      44.036 -19.532   2.786  1.00  0.00    -0.049 A 
HETATM   11  C   UNL     1      43.656 -20.487   1.832  1.00  0.00     0.008 A 
HETATM   12  C   UNL     1      43.870 -21.849   2.057  1.00  0.00     0.001 A 
HETATM   13  C   UNL     1      44.464 -22.279   3.241  1.00  0.00     0.000 A 
HETATM   14  C   UNL     1      44.848 -21.348   4.201  1.00  0.00     0.001 A 
HETATM   15  C   UNL     1      44.636 -19.987   3.975  1.00  0.00     0.008 A 
ENDBRANCH   1  10
BRANCH   1  16
HETATM   16  C   UNL     1      43.645 -17.672   1.091  1.00  0.00     0.116 C 
BRANCH  16  17
HETATM   17  C   UNL     1      42.332 -17.089   0.604  1.00  0.00     0.218 C 
HETATM   18  N   UNL     1      42.347 -15.841   0.058  1.00  0.00    -0.355 N 
HETATM   19  H   UNL     1      43.207 -15.355  -0.163  1.00  0.00     0.162 HD
HETATM   20  O   UNL     1      41.280 -17.713   0.760  1.00  0.00    -0.274 OA
BRANCH  18  21
HETATM   21  C   UNL     1      41.140 -15.270  -0.498  1.00  0.00     0.184 C 
BRANCH  21  22
HETATM   22  C   UNL     1      40.540 -14.280   0.449  1.00  0.00     0.080 A 
HETATM   23  N   UNL     1      41.238 -13.783   1.499  1.00  0.00    -0.177 NA
HETATM   24  N   UNL     1      40.397 -12.897   2.087  1.00  0.00    -0.281 N 
HETATM   25  H   UNL     1      40.719 -12.384   2.901  1.00  0.00     0.189 HD
HETATM   26  C   UNL     1      39.214 -12.841   1.446  1.00  0.00     0.036 A 
HETATM   27  C   UNL     1      39.264 -13.711   0.401  1.00  0.00    -0.006 A 
HETATM   28  C   UNL     1      37.960 -12.093   1.587  1.00  0.00     0.059 C 
HETATM   29  C   UNL     1      38.012 -13.705  -0.372  1.00  0.00     0.043 C 
HETATM   30  C   UNL     1      37.058 -12.883   0.572  1.00  0.00     0.011 C 
ENDBRANCH  21  22
ENDBRANCH  18  21
ENDBRANCH  16  17
ENDBRANCH   1  16
TORSDOF 7
ENDMDL
MODEL 3
REMARK VINA RESULT:      -8.7      4.085      7.179
REMARK  7 active torsions:
REMARK  status: ('A' for Active; 'I' for Inactive)
REMARK    1  A    between atoms: O_2  and  C_3 
REMARK    2  A    between atoms: C_6  and  C_7 
REMARK    3  A    between atoms: C_7  and  C_8 
REMARK    4  A    between atoms: C_7  and  C_14 
REMARK    5  A    between atoms: C_14  and  C_15 
REMARK       I    between atoms: C_15  and  N_16 
REMARK    6  A    between atoms: N_16  and  C_17 
REMARK    7  A    between atoms: C_17  and  C_18 
ROOT
HETATM    1  C   UNL     1      43.596 -18.758   4.585  1.00  0.00     0.060 C 
ENDROOT
BRANCH   1   2
HETATM    2  C   UNL     1      43.054 -17.997   3.370  1.00  0.00    -0.049 A 
HETATM    3  C   UNL     1      43.948 -17.640   2.341  1.00  0.00     0.010 A 
HETATM    4  C   UNL     1      43.515 -16.945   1.208  1.00  0.00     0.037 A 
HETATM    5  C   UNL     1      42.175 -16.598   1.059  1.00  0.00     0.068 A 
HETATM    6  C   UNL     1      41.270 -16.969   2.050  1.00  0.00     0.037 A 
HETATM    7  C   UNL     1      41.705 -17.667   3.188  1.00  0.00     0.010 A 
BRANCH   5   8
HETATM    8  O   UNL     1      41.881 -15.915  -0.088  1.00  0.00    -0.356 OA
HETATM    9  C   UNL     1      41.360 -14.601   0.066  1.00  0.00     0.210 C 
ENDBRANCH   5   8
ENDBRANCH   1   2
BRANCH   1  10
HETATM   10  C   UNL     1      44.083 -20.184   4.301  1.00  0.00    -0.049 A 
HETATM   11  C   UNL     1      44.597 -21.023   5.301  1.00  0.00     0.008 A 
HETATM   12  C   UNL     1      45.026 -22.318   4.997  1.00  0.00     0.001 A 
HETATM   13  C   UNL     1      44.949 -22.794   3.691  1.00  0.00     0.000 A 
HETATM   14  C   UNL     1      44.442 -21.978   2.686  1.00  0.00     0.001 A 
HETATM   15  C   UNL     1      44.012 -20.684   2.988  1.00  0.00     0.008 A 
ENDBRANCH   1  10
BRANCH   1  16
HETATM   16  C   UNL     1      44.530 -18.022   5.571  1.00  0.00     0.116 C 
BRANCH  16  17
HETATM   17  C   UNL     1      43.970 -16.958   6.496  1.00  0.00     0.218 C 
HETATM   18  N   UNL     1      44.469 -15.695   6.399  1.00  0.00    -0.355 N 
HETATM   19  H   UNL     1      45.085 -15.411   5.647  1.00  0.00     0.162 HD
HETATM   20  O   UNL     1      43.131 -17.257   7.350  1.00  0.00    -0.274 OA
BRANCH  18  21
HETATM   21  C   UNL     1      43.915 -14.624   7.198  1.00  0.00     0.184 C 
BRANCH  21  22
HETATM   22  C   UNL     1      44.969 -13.621   7.539  1.00  0.00     0.080 A 
HETATM   23  N   UNL     1      46.043 -13.414   6.739  1.00  0.00    -0.177 NA
HETATM   24  N   UNL     1      46.737 -12.416   7.341  1.00  0.00    -0.281 N 
HETATM   25  H   UNL     1      47.589 -12.081   6.902  1.00  0.00     0.189 HD
HETATM   26  C   UNL     1      46.137 -12.014   8.477  1.00  0.00     0.036 A 
HETATM   27  C   UNL     1      45.012 -12.760   8.641  1.00  0.00    -0.006 A 
HETATM   28  C   UNL     1      46.384 -11.006   9.513  1.00  0.00     0.059 C 
HETATM   29  C   UNL     1      44.277 -12.377   9.856  1.00  0.00     0.043 C 
HETATM   30  C   UNL     1      45.322 -11.450  10.581  1.00  0.00     0.011 C 
ENDBRANCH  21  22
ENDBRANCH  18  21
ENDBRANCH  16  17
ENDBRANCH   1  16
TORSDOF 7
ENDMDL
MODEL 4
REMARK VINA RESULT:      -8.6      1.950      2.787
REMARK  7 active torsions:
REMARK  status: ('A' for Active; 'I' for Inactive)
REMARK    1  A    between atoms: O_2  and  C_3 
REMARK    2  A    between atoms: C_6  and  C_7 
REMARK    3  A    between atoms: C_7  and  C_8 
REMARK    4  A    between atoms: C_7  and  C_14 
REMARK    5  A    between atoms: C_14  and  C_15 
REMARK       I    between atoms: C_15  and  N_16 
REMARK    6  A    between atoms: N_16  and  C_17 
REMARK    7  A    between atoms: C_17  and  C_18 
ROOT
HETATM    1  C   UNL     1      43.843 -17.955   2.463  1.00  0.00     0.060 C 
ENDROOT
BRANCH   1   2
HETATM    2  C   UNL     1      43.020 -17.208   3.519  1.00  0.00    -0.049 A 
HETATM    3  C   UNL     1      41.946 -17.877   4.137  1.00  0.00     0.010 A 
HETATM    4  C   UNL     1      41.158 -17.251   5.107  1.00  0.00     0.037 A 
HETATM    5  C   UNL     1      41.426 -15.943   5.500  1.00  0.00     0.068 A 
HETATM    6  C   UNL     1      42.503 -15.275   4.924  1.00  0.00     0.037 A 
HETATM    7  C   UNL     1      43.295 -15.904   3.950  1.00  0.00     0.010 A 
BRANCH   5   8
HETATM    8  O   UNL     1      40.580 -15.441   6.450  1.00  0.00    -0.356 OA
HETATM    9  C   UNL     1      39.803 -14.309   6.081  1.00  0.00     0.210 C 
ENDBRANCH   5   8
ENDBRANCH   1   2
BRANCH   1  10
HETATM   10  C   UNL     1      44.068 -19.446   2.741  1.00  0.00    -0.049 A 
HETATM   11  C   UNL     1      44.682 -19.915   3.912  1.00  0.00     0.008 A 
HETATM   12  C   UNL     1      44.863 -21.285   4.125  1.00  0.00     0.001 A 
HETATM   13  C   UNL     1      44.436 -22.205   3.172  1.00  0.00     0.000 A 
HETATM   14  C   UNL     1      43.825 -21.760   2.004  1.00  0.00     0.001 A 
HETATM   15  C   UNL     1      43.642 -20.392   1.791  1.00  0.00     0.008 A 
ENDBRANCH   1  10
BRANCH   1  16
HETATM   16  C   UNL     1      43.557 -17.690   0.969  1.00  0.00     0.116 C 
BRANCH  16  17
HETATM   17  C   UNL     1      42.234 -17.081   0.545  1.00  0.00     0.218 C 
HETATM   18  N   UNL     1      42.246 -15.832   0.003  1.00  0.00    -0.355 N 
HETATM   19  H   UNL     1      43.105 -15.361  -0.258  1.00  0.00     0.162 HD
HETATM   20  O   UNL     1      41.179 -17.686   0.749  1.00  0.00    -0.274 OA
BRANCH  18  21
HETATM   21  C   UNL     1      41.026 -15.236  -0.495  1.00  0.00     0.184 C 
BRANCH  21  22
HETATM   22  C   UNL     1      40.333 -14.472   0.587  1.00  0.00     0.080 A 
HETATM   23  N   UNL     1      39.001 -14.589   0.804  1.00  0.00    -0.177 NA
HETATM   24  N   UNL     1      38.752 -13.798   1.877  1.00  0.00    -0.281 N 
HETATM   25  H   UNL     1      37.804 -13.741   2.232  1.00  0.00     0.189 HD
HETATM   26  C   UNL     1      39.875 -13.197   2.316  1.00  0.00     0.036 A 
HETATM   27  C   UNL     1      40.901 -13.596   1.518  1.00  0.00    -0.006 A 
HETATM   28  C   UNL     1      40.237 -12.279   3.401  1.00  0.00     0.059 C 
HETATM   29  C   UNL     1      42.179 -12.997   1.936  1.00  0.00     0.043 C 
HETATM   30  C   UNL     1      41.699 -11.909   2.967  1.00  0.00     0.011 C 
ENDBRANCH  21  22
ENDBRANCH  18  21
ENDBRANCH  16  17
ENDBRANCH   1  16
TORSDOF 7
ENDMDL
MODEL 5
REMARK VINA RESULT:      -8.4      4.860      8.465
REMARK  7 active torsions:
REMARK  status: ('A' for Active; 'I' for Inactive)
REMARK    1  A    between atoms: O_2  and  C_3 
REMARK    2  A    between atoms: C_6  and  C_7 
REMARK    3  A    between atoms: C_7  and  C_8 
REMARK    4  A    between atoms: C_7  and  C_14 
REMARK    5  A    between atoms: C_14  and  C_15 
REMARK       I    between atoms: C_15  and  N_16 
REMARK    6  A    between atoms: N_16  and  C_17 
REMARK    7  A    between atoms: C_17  and  C_18 
ROOT
HETATM    1  C   UNL     1      43.304 -16.469   4.642  1.00  0.00     0.060 C 
ENDROOT
BRANCH   1   2
HETATM    2  C   UNL     1      43.650 -17.916   5.010  1.00  0.00    -0.049 A 
HETATM    3  C   UNL     1      44.189 -18.756   4.015  1.00  0.00     0.010 A 
HETATM    4  C   UNL     1      44.525 -20.086   4.288  1.00  0.00     0.037 A 
HETATM    5  C   UNL     1      44.347 -20.614   5.563  1.00  0.00     0.068 A 
HETATM    6  C   UNL     1      43.845 -19.790   6.568  1.00  0.00     0.037 A 
HETATM    7  C   UNL     1      43.509 -18.455   6.295  1.00  0.00     0.010 A 
BRANCH   5   8
HETATM    8  O   UNL     1      44.706 -21.926   5.699  1.00  0.00    -0.356 OA
HETATM    9  C   UNL     1      44.795 -22.692   4.504  1.00  0.00     0.210 C 
ENDBRANCH   5   8
ENDBRANCH   1   2
BRANCH   1  10
HETATM   10  C   UNL     1      42.383 -16.303   3.427  1.00  0.00    -0.049 A 
HETATM   11  C   UNL     1      41.147 -16.957   3.317  1.00  0.00     0.008 A 
HETATM   12  C   UNL     1      40.339 -16.773   2.192  1.00  0.00     0.001 A 
HETATM   13  C   UNL     1      40.753 -15.936   1.159  1.00  0.00     0.000 A 
HETATM   14  C   UNL     1      41.976 -15.279   1.249  1.00  0.00     0.001 A 
HETATM   15  C   UNL     1      42.784 -15.461   2.373  1.00  0.00     0.008 A 
ENDBRANCH   1  10
BRANCH   1  16
HETATM   16  C   UNL     1      42.944 -15.477   5.770  1.00  0.00     0.116 C 
BRANCH  16  17
HETATM   17  C   UNL     1      43.909 -14.367   6.141  1.00  0.00     0.218 C 
HETATM   18  N   UNL     1      44.174 -14.160   7.460  1.00  0.00    -0.355 N 
HETATM   19  H   UNL     1      43.869 -14.801   8.182  1.00  0.00     0.162 HD
HETATM   20  O   UNL     1      44.385 -13.640   5.265  1.00  0.00    -0.274 OA
BRANCH  18  21
HETATM   21  C   UNL     1      45.148 -13.171   7.867  1.00  0.00     0.184 C 
BRANCH  21  22
HETATM   22  C   UNL     1      44.678 -12.437   9.081  1.00  0.00     0.080 A 
HETATM   23  N   UNL     1      45.275 -12.595  10.287  1.00  0.00    -0.177 NA
HETATM   24  N   UNL     1      44.617 -11.747  11.115  1.00  0.00    -0.281 N 
HETATM   25  H   UNL     1      44.910 -11.687  12.085  1.00  0.00     0.189 HD
HETATM   26  C   UNL     1      43.639 -11.087  10.467  1.00  0.00     0.036 A 
HETATM   27  C   UNL     1      43.642 -11.502   9.172  1.00  0.00    -0.006 A 
HETATM   28  C   UNL     1      42.638 -10.069  10.803  1.00  0.00     0.059 C 
HETATM   29  C   UNL     1      42.609 -10.817   8.379  1.00  0.00     0.043 C 
HETATM   30  C   UNL     1      41.760 -10.112   9.501  1.00  0.00     0.011 C 
ENDBRANCH  21  22
ENDBRANCH  18  21
ENDBRANCH  16  17
ENDBRANCH   1  16
TORSDOF 7
ENDMDL
MODEL 6
REMARK VINA RESULT:      -8.4      2.302      2.989
REMARK  7 active torsions:
REMARK  status: ('A' for Active; 'I' for Inactive)
REMARK    1  A    between atoms: O_2  and  C_3 
REMARK    2  A    between atoms: C_6  and  C_7 
REMARK    3  A    between atoms: C_7  and  C_8 
REMARK    4  A    between atoms: C_7  and  C_14 
REMARK    5  A    between atoms: C_14  and  C_15 
REMARK       I    between atoms: C_15  and  N_16 
REMARK    6  A    between atoms: N_16  and  C_17 
REMARK    7  A    between atoms: C_17  and  C_18 
ROOT
HETATM    1  C   UNL     1      42.915 -17.180   1.958  1.00  0.00     0.060 C 
ENDROOT
BRANCH   1   2
HETATM    2  C   UNL     1      42.786 -16.161   3.096  1.00  0.00    -0.049 A 
HETATM    3  C   UNL     1      43.581 -14.998   3.054  1.00  0.00     0.010 A 
HETATM    4  C   UNL     1      43.510 -14.031   4.061  1.00  0.00     0.037 A 
HETATM    5  C   UNL     1      42.635 -14.187   5.132  1.00  0.00     0.068 A 
HETATM    6  C   UNL     1      41.818 -15.314   5.175  1.00  0.00     0.037 A 
HETATM    7  C   UNL     1      41.889 -16.285   4.163  1.00  0.00     0.010 A 
BRANCH   5   8
HETATM    8  O   UNL     1      42.665 -13.177   6.053  1.00  0.00    -0.356 OA
HETATM    9  C   UNL     1      41.639 -12.197   5.962  1.00  0.00     0.210 C 
ENDBRANCH   5   8
ENDBRANCH   1   2
BRANCH   1  10
HETATM   10  C   UNL     1      43.446 -18.558   2.369  1.00  0.00    -0.049 A 
HETATM   11  C   UNL     1      43.271 -19.705   1.580  1.00  0.00     0.008 A 
HETATM   12  C   UNL     1      43.776 -20.941   1.992  1.00  0.00     0.001 A 
HETATM   13  C   UNL     1      44.460 -21.051   3.200  1.00  0.00     0.000 A 
HETATM   14  C   UNL     1      44.643 -19.926   3.997  1.00  0.00     0.001 A 
HETATM   15  C   UNL     1      44.141 -18.691   3.585  1.00  0.00     0.008 A 
ENDBRANCH   1  10
BRANCH   1  16
HETATM   16  C   UNL     1      41.773 -17.293   0.924  1.00  0.00     0.116 C 
BRANCH  16  17
HETATM   17  C   UNL     1      41.259 -16.051   0.221  1.00  0.00     0.218 C 
HETATM   18  N   UNL     1      41.724 -15.783  -1.030  1.00  0.00    -0.355 N 
HETATM   19  H   UNL     1      42.279 -16.446  -1.557  1.00  0.00     0.162 HD
HETATM   20  O   UNL     1      40.489 -15.283   0.803  1.00  0.00    -0.274 OA
BRANCH  18  21
HETATM   21  C   UNL     1      41.207 -14.659  -1.780  1.00  0.00     0.184 C 
BRANCH  21  22
HETATM   22  C   UNL     1      40.138 -15.104  -2.725  1.00  0.00     0.080 A 
HETATM   23  N   UNL     1      40.234 -16.265  -3.416  1.00  0.00    -0.177 NA
HETATM   24  N   UNL     1      39.076 -16.349  -4.118  1.00  0.00    -0.281 N 
HETATM   25  H   UNL     1      38.920 -17.160  -4.707  1.00  0.00     0.189 HD
HETATM   26  C   UNL     1      38.285 -15.283  -3.892  1.00  0.00     0.036 A 
HETATM   27  C   UNL     1      38.928 -14.465  -3.015  1.00  0.00    -0.006 A 
HETATM   28  C   UNL     1      36.961 -14.828  -4.327  1.00  0.00     0.059 C 
HETATM   29  C   UNL     1      38.125 -13.274  -2.694  1.00  0.00     0.043 C 
HETATM   30  C   UNL     1      36.984 -13.358  -3.775  1.00  0.00     0.011 C 
ENDBRANCH  21  22
ENDBRANCH  18  21
ENDBRANCH  16  17
ENDBRANCH   1  16
TORSDOF 7
ENDMDL
MODEL 7
REMARK VINA RESULT:      -8.4      3.253      7.671
REMARK  7 active torsions:
REMARK  status: ('A' for Active; 'I' for Inactive)
REMARK    1  A    between atoms: O_2  and  C_3 
REMARK    2  A    between atoms: C_6  and  C_7 
REMARK    3  A    between atoms: C_7  and  C_8 
REMARK    4  A    between atoms: C_7  and  C_14 
REMARK    5  A    between atoms: C_14  and  C_15 
REMARK       I    between atoms: C_15  and  N_16 
REMARK    6  A    between atoms: N_16  and  C_17 
REMARK    7  A    between atoms: C_17  and  C_18 
ROOT
HETATM    1  C   UNL     1      41.074 -15.215   1.246  1.00  0.00     0.060 C 
ENDROOT
BRANCH   1   2
HETATM    2  C   UNL     1      42.026 -16.394   1.476  1.00  0.00    -0.049 A 
HETATM    3  C   UNL     1      41.480 -17.684   1.628  1.00  0.00     0.010 A 
HETATM    4  C   UNL     1      42.295 -18.800   1.841  1.00  0.00     0.037 A 
HETATM    5  C   UNL     1      43.679 -18.665   1.894  1.00  0.00     0.068 A 
HETATM    6  C   UNL     1      44.240 -17.404   1.714  1.00  0.00     0.037 A 
HETATM    7  C   UNL     1      43.422 -16.283   1.499  1.00  0.00     0.010 A 
BRANCH   5   8
HETATM    8  O   UNL     1      44.363 -19.828   2.115  1.00  0.00    -0.356 OA
HETATM    9  C   UNL     1      43.666 -21.040   1.855  1.00  0.00     0.210 C 
ENDBRANCH   5   8
ENDBRANCH   1   2
BRANCH   1  10
HETATM   10  C   UNL     1      40.608 -15.022  -0.202  1.00  0.00    -0.049 A 
HETATM   11  C   UNL     1      39.566 -14.151  -0.554  1.00  0.00     0.008 A 
HETATM   12  C   UNL     1      39.177 -14.003  -1.888  1.00  0.00     0.001 A 
HETATM   13  C   UNL     1      39.820 -14.724  -2.890  1.00  0.00     0.000 A 
HETATM   14  C   UNL     1      40.856 -15.593  -2.562  1.00  0.00     0.001 A 
HETATM   15  C   UNL     1      41.246 -15.740  -1.230  1.00  0.00     0.008 A 
ENDBRANCH   1  10
BRANCH   1  16
HETATM   16  C   UNL     1      39.926 -14.975   2.251  1.00  0.00     0.116 C 
BRANCH  16  17
HETATM   17  C   UNL     1      40.240 -14.695   3.709  1.00  0.00     0.218 C 
HETATM   18  N   UNL     1      40.409 -15.758   4.544  1.00  0.00    -0.355 N 
HETATM   19  H   UNL     1      40.476 -16.710   4.206  1.00  0.00     0.162 HD
HETATM   20  O   UNL     1      40.277 -13.535   4.124  1.00  0.00    -0.274 OA
BRANCH  18  21
HETATM   21  C   UNL     1      40.792 -15.552   5.924  1.00  0.00     0.184 C 
BRANCH  21  22
HETATM   22  C   UNL     1      42.237 -15.873   6.124  1.00  0.00     0.080 A 
HETATM   23  N   UNL     1      43.124 -14.942   6.552  1.00  0.00    -0.177 NA
HETATM   24  N   UNL     1      44.302 -15.606   6.658  1.00  0.00    -0.281 N 
HETATM   25  H   UNL     1      45.119 -15.100   6.982  1.00  0.00     0.189 HD
HETATM   26  C   UNL     1      44.172 -16.898   6.302  1.00  0.00     0.036 A 
HETATM   27  C   UNL     1      42.875 -17.106   5.950  1.00  0.00    -0.006 A 
HETATM   28  C   UNL     1      45.045 -18.074   6.225  1.00  0.00     0.059 C 
HETATM   29  C   UNL     1      42.635 -18.504   5.560  1.00  0.00     0.043 C 
HETATM   30  C   UNL     1      44.102 -19.060   5.446  1.00  0.00     0.011 C 
ENDBRANCH  21  22
ENDBRANCH  18  21
ENDBRANCH  16  17
ENDBRANCH   1  16
TORSDOF 7
ENDMDL
MODEL 8
REMARK VINA RESULT:      -8.3      2.048      4.822
REMARK  7 active torsions:
REMARK  status: ('A' for Active; 'I' for Inactive)
REMARK    1  A    between atoms: O_2  and  C_3 
REMARK    2  A    between atoms: C_6  and  C_7 
REMARK    3  A    between atoms: C_7  and  C_8 
REMARK    4  A    between atoms: C_7  and  C_14 
REMARK    5  A    between atoms: C_14  and  C_15 
REMARK       I    between atoms: C_15  and  N_16 
REMARK    6  A    between atoms: N_16  and  C_17 
REMARK    7  A    between atoms: C_17  and  C_18 
ROOT
HETATM    1  C   UNL     1      41.498 -17.065   3.281  1.00  0.00     0.060 C 
ENDROOT
BRANCH   1   2
HETATM    2  C   UNL     1      42.555 -18.143   3.544  1.00  0.00    -0.049 A 
HETATM    3  C   UNL     1      42.920 -18.421   4.876  1.00  0.00     0.010 A 
HETATM    4  C   UNL     1      43.878 -19.393   5.182  1.00  0.00     0.037 A 
HETATM    5  C   UNL     1      44.490 -20.126   4.170  1.00  0.00     0.068 A 
HETATM    6  C   UNL     1      44.120 -19.889   2.849  1.00  0.00     0.037 A 
HETATM    7  C   UNL     1      43.157 -18.914   2.542  1.00  0.00     0.010 A 
BRANCH   5   8
HETATM    8  O   UNL     1      45.413 -21.039   4.598  1.00  0.00    -0.356 OA
HETATM    9  C   UNL     1      44.909 -22.251   5.146  1.00  0.00     0.210 C 
ENDBRANCH   5   8
ENDBRANCH   1   2
BRANCH   1  10
HETATM   10  C   UNL     1      41.910 -15.637   3.655  1.00  0.00    -0.049 A 
HETATM   11  C   UNL     1      43.222 -15.163   3.509  1.00  0.00     0.008 A 
HETATM   12  C   UNL     1      43.552 -13.851   3.860  1.00  0.00     0.001 A 
HETATM   13  C   UNL     1      42.578 -12.994   4.364  1.00  0.00     0.000 A 
HETATM   14  C   UNL     1      41.271 -13.445   4.518  1.00  0.00     0.001 A 
HETATM   15  C   UNL     1      40.940 -14.755   4.166  1.00  0.00     0.008 A 
ENDBRANCH   1  10
BRANCH   1  16
HETATM   16  C   UNL     1      40.708 -17.102   1.954  1.00  0.00     0.116 C 
BRANCH  16  17
HETATM   17  C   UNL     1      41.226 -16.351   0.741  1.00  0.00     0.218 C 
HETATM   18  N   UNL     1      40.457 -15.351   0.229  1.00  0.00    -0.355 N 
HETATM   19  H   UNL     1      39.635 -14.999   0.705  1.00  0.00     0.162 HD
HETATM   20  O   UNL     1      42.286 -16.689   0.209  1.00  0.00    -0.274 OA
BRANCH  18  21
HETATM   21  C   UNL     1      40.938 -14.548  -0.874  1.00  0.00     0.184 C 
BRANCH  21  22
HETATM   22  C   UNL     1      41.497 -13.253  -0.378  1.00  0.00     0.080 A 
HETATM   23  N   UNL     1      41.484 -12.927   0.937  1.00  0.00    -0.177 NA
HETATM   24  N   UNL     1      42.110 -11.725   1.002  1.00  0.00    -0.281 N 
HETATM   25  H   UNL     1      42.230 -11.286   1.910  1.00  0.00     0.189 HD
HETATM   26  C   UNL     1      42.493 -11.302  -0.217  1.00  0.00     0.036 A 
HETATM   27  C   UNL     1      42.117 -12.244  -1.123  1.00  0.00    -0.006 A 
HETATM   28  C   UNL     1      43.197 -10.140  -0.769  1.00  0.00     0.059 C 
HETATM   29  C   UNL     1      42.512 -11.872  -2.491  1.00  0.00     0.043 C 
HETATM   30  C   UNL     1      42.942 -10.370  -2.301  1.00  0.00     0.011 C 
ENDBRANCH  21  22
ENDBRANCH  18  21
ENDBRANCH  16  17
ENDBRANCH   1  16
TORSDOF 7
ENDMDL
MODEL 9
REMARK VINA RESULT:      -8.3      3.615      7.593
REMARK  7 active torsions:
REMARK  status: ('A' for Active; 'I' for Inactive)
REMARK    1  A    between atoms: O_2  and  C_3 
REMARK    2  A    between atoms: C_6  and  C_7 
REMARK    3  A    between atoms: C_7  and  C_8 
REMARK    4  A    between atoms: C_7  and  C_14 
REMARK    5  A    between atoms: C_14  and  C_15 
REMARK       I    between atoms: C_15  and  N_16 
REMARK    6  A    between atoms: N_16  and  C_17 
REMARK    7  A    between atoms: C_17  and  C_18 
ROOT
HETATM    1  C   UNL     1      41.452 -15.286   2.706  1.00  0.00     0.060 C 
ENDROOT
BRANCH   1   2
HETATM    2  C   UNL     1      40.490 -14.760   1.637  1.00  0.00    -0.049 A 
HETATM    3  C   UNL     1      39.122 -14.643   1.956  1.00  0.00     0.010 A 
HETATM    4  C   UNL     1      38.194 -14.170   1.024  1.00  0.00     0.037 A 
HETATM    5  C   UNL     1      38.602 -13.786  -0.250  1.00  0.00     0.068 A 
HETATM    6  C   UNL     1      39.954 -13.864  -0.574  1.00  0.00     0.037 A 
HETATM    7  C   UNL     1      40.887 -14.338   0.362  1.00  0.00     0.010 A 
BRANCH   5   8
HETATM    8  O   UNL     1      37.599 -13.349  -1.069  1.00  0.00    -0.356 OA
HETATM    9  C   UNL     1      37.265 -11.969  -0.991  1.00  0.00     0.210 C 
ENDBRANCH   5   8
ENDBRANCH   1   2
BRANCH   1  10
HETATM   10  C   UNL     1      42.290 -16.503   2.294  1.00  0.00    -0.049 A 
HETATM   11  C   UNL     1      43.607 -16.394   1.825  1.00  0.00     0.008 A 
HETATM   12  C   UNL     1      44.334 -17.531   1.464  1.00  0.00     0.001 A 
HETATM   13  C   UNL     1      43.757 -18.794   1.564  1.00  0.00     0.000 A 
HETATM   14  C   UNL     1      42.451 -18.923   2.027  1.00  0.00     0.001 A 
HETATM   15  C   UNL     1      41.724 -17.788   2.389  1.00  0.00     0.008 A 
ENDBRANCH   1  10
BRANCH   1  16
HETATM   16  C   UNL     1      42.282 -14.274   3.527  1.00  0.00     0.116 C 
BRANCH  16  17
HETATM   17  C   UNL     1      42.477 -14.483   5.017  1.00  0.00     0.218 C 
HETATM   18  N   UNL     1      43.680 -14.952   5.448  1.00  0.00    -0.355 N 
HETATM   19  H   UNL     1      44.484 -15.027   4.837  1.00  0.00     0.162 HD
HETATM   20  O   UNL     1      41.542 -14.289   5.798  1.00  0.00    -0.274 OA
BRANCH  18  21
HETATM   21  C   UNL     1      43.949 -15.091   6.862  1.00  0.00     0.184 C 
BRANCH  21  22
HETATM   22  C   UNL     1      43.849 -16.523   7.279  1.00  0.00     0.080 A 
HETATM   23  N   UNL     1      43.543 -16.877   8.551  1.00  0.00    -0.177 NA
HETATM   24  N   UNL     1      43.497 -18.232   8.533  1.00  0.00    -0.281 N 
HETATM   25  H   UNL     1      43.267 -18.724   9.390  1.00  0.00     0.189 HD
HETATM   26  C   UNL     1      43.773 -18.718   7.308  1.00  0.00     0.036 A 
HETATM   27  C   UNL     1      44.008 -17.662   6.483  1.00  0.00    -0.006 A 
HETATM   28  C   UNL     1      43.857 -20.041   6.681  1.00  0.00     0.059 C 
HETATM   29  C   UNL     1      44.303 -18.100   5.110  1.00  0.00     0.043 C 
HETATM   30  C   UNL     1      44.504 -19.649   5.305  1.00  0.00     0.011 C 
ENDBRANCH  21  22
ENDBRANCH  18  21
ENDBRANCH  16  17
ENDBRANCH   1  16
TORSDOF 7
ENDMDL
MODEL 10
REMARK VINA RESULT:      -8.3      2.677      5.278
REMARK  7 active torsions:
REMARK  status: ('A' for Active; 'I' for Inactive)
REMARK    1  A    between atoms: O_2  and  C_3 
REMARK    2  A    between atoms: C_6  and  C_7 
REMARK    3  A    between atoms: C_7  and  C_8 
REMARK    4  A    between atoms: C_7  and  C_14 
REMARK    5  A    between atoms: C_14  and  C_15 
REMARK       I    between atoms: C_15  and  N_16 
REMARK    6  A    between atoms: N_16  and  C_17 
REMARK    7  A    between atoms: C_17  and  C_18 
ROOT
HETATM    1  C   UNL     1      41.509 -17.162   3.205  1.00  0.00     0.060 C 
ENDROOT
BRANCH   1   2
HETATM    2  C   UNL     1      42.586 -18.217   3.483  1.00  0.00    -0.049 A 
HETATM    3  C   UNL     1      42.950 -18.474   4.820  1.00  0.00     0.010 A 
HETATM    4  C   UNL     1      43.924 -19.424   5.140  1.00  0.00     0.037 A 
HETATM    5  C   UNL     1      44.556 -20.156   4.138  1.00  0.00     0.068 A 
HETATM    6  C   UNL     1      44.187 -19.938   2.813  1.00  0.00     0.037 A 
HETATM    7  C   UNL     1      43.208 -18.985   2.492  1.00  0.00     0.010 A 
BRANCH   5   8
HETATM    8  O   UNL     1      45.494 -21.046   4.579  1.00  0.00    -0.356 OA
HETATM    9  C   UNL     1      45.014 -22.295   5.061  1.00  0.00     0.210 C 
ENDBRANCH   5   8
ENDBRANCH   1   2
BRANCH   1  10
HETATM   10  C   UNL     1      41.892 -15.722   3.566  1.00  0.00    -0.049 A 
HETATM   11  C   UNL     1      43.122 -15.151   3.207  1.00  0.00     0.008 A 
HETATM   12  C   UNL     1      43.427 -13.832   3.555  1.00  0.00     0.001 A 
HETATM   13  C   UNL     1      42.510 -13.065   4.269  1.00  0.00     0.000 A 
HETATM   14  C   UNL     1      41.286 -13.614   4.636  1.00  0.00     0.001 A 
HETATM   15  C   UNL     1      40.979 -14.930   4.287  1.00  0.00     0.008 A 
ENDBRANCH   1  10
BRANCH   1  16
HETATM   16  C   UNL     1      40.726 -17.227   1.875  1.00  0.00     0.116 C 
BRANCH  16  17
HETATM   17  C   UNL     1      40.932 -16.157   0.820  1.00  0.00     0.218 C 
HETATM   18  N   UNL     1      39.983 -15.188   0.695  1.00  0.00    -0.355 N 
HETATM   19  H   UNL     1      39.231 -15.074   1.364  1.00  0.00     0.162 HD
HETATM   20  O   UNL     1      41.904 -16.210   0.063  1.00  0.00    -0.274 OA
BRANCH  18  21
HETATM   21  C   UNL     1      40.167 -14.096  -0.236  1.00  0.00     0.184 C 
BRANCH  21  22
HETATM   22  C   UNL     1      40.725 -12.898   0.460  1.00  0.00     0.080 A 
HETATM   23  N   UNL     1      41.957 -12.413   0.172  1.00  0.00    -0.177 NA
HETATM   24  N   UNL     1      42.091 -11.314   0.955  1.00  0.00    -0.281 N 
HETATM   25  H   UNL     1      42.947 -10.773   0.894  1.00  0.00     0.189 HD
HETATM   26  C   UNL     1      40.997 -11.115   1.715  1.00  0.00     0.036 A 
HETATM   27  C   UNL     1      40.108 -12.105   1.433  1.00  0.00    -0.006 A 
HETATM   28  C   UNL     1      40.554 -10.129   2.706  1.00  0.00     0.059 C 
HETATM   29  C   UNL     1      38.867 -11.958   2.210  1.00  0.00     0.043 C 
HETATM   30  C   UNL     1      39.274 -10.854   3.256  1.00  0.00     0.011 C 
ENDBRANCH  21  22
ENDBRANCH  18  21
ENDBRANCH  16  17
ENDBRANCH   1  16
TORSDOF 7
ENDMDL
