MODEL 1
REMARK VINA RESULT:      -7.9      0.000      0.000
REMARK  11 active torsions:
REMARK  status: ('A' for Active; 'I' for Inactive)
REMARK    1  A    between atoms: C_1  and  C_7 
REMARK    2  A    between atoms: C_1  and  C_11 
REMARK    3  A    between atoms: C_8  and  C_13 
REMARK    4  A    between atoms: C_8  and  O_14 
REMARK       I    between atoms: C_11  and  N_12 
REMARK    5  A    between atoms: N_12  and  C_13 
REMARK    6  A    between atoms: C_18  and  N_19 
REMARK    7  A    between atoms: N_19  and  C_20 
REMARK    8  A    between atoms: C_20  and  C_21 
REMARK    9  A    between atoms: C_28  and  C_29 
REMARK   10  A    between atoms: C_29  and  O_30 
REMARK   11  A    between atoms: C_31  and  O_32 
ROOT
HETATM    1  C           1      40.150 -15.577   2.167  0.00  0.00     0.012 A 
HETATM    2  C           1      42.037 -12.928   0.517  0.00  0.00     0.016 C 
HETATM    3  C           1      40.762 -12.846   1.397  0.00  0.00    -0.030 C 
HETATM    4  C           1      41.122 -13.399   2.813  0.00  0.00     0.056 C 
HETATM    5  C           1      37.316 -12.430   0.916  0.00  0.00     0.020 C 
HETATM    6  C           1      41.141 -14.897   2.737  0.00  0.00     0.056 A 
HETATM    7  S           1      40.427 -17.014   2.224  0.00  0.00    -0.055 SA
HETATM    8  C           1      41.705 -16.851   2.932  0.00  0.00     0.167 A 
HETATM    9  N           1      42.049 -15.654   3.170  0.00  0.00    -0.228 NA
HETATM   10  C           1      39.015 -14.822   1.549  0.00  0.00     0.055 C 
HETATM   11  C           1      39.597 -13.656   0.708  0.00  0.00     0.012 C 
HETATM   12  C           1      38.480 -12.841  -0.020  0.00  0.00     0.008 C 
HETATM   13  C           1      39.058 -11.571  -0.672  0.00  0.00     0.128 C 
HETATM   14  C           1      39.948 -10.703   0.217  0.00  0.00     0.033 C 
HETATM   15  C           1      40.374 -11.360   1.533  0.00  0.00     0.013 C 
ENDROOT
BRANCH   4  16
HETATM   16  C           1      42.390 -12.860   3.508  0.00  0.00     0.114 C 
BRANCH  16  17
HETATM   17  C           1      42.502 -13.271   4.973  0.00  0.00     0.218 C 
HETATM   18  N           1      43.581 -14.068   5.247  0.00  0.00    -0.359 N 
HETATM   19  H           1      44.230 -14.278   4.489  0.00  0.00     0.162 HD
HETATM   20  O           1      41.702 -12.930   5.808  0.00  0.00    -0.274 OA
BRANCH  18  21
HETATM   21  C           1      43.848 -14.640   6.572  0.00  0.00     0.148 C 
BRANCH  21  22
HETATM   22  C           1      43.152 -15.997   6.678  0.00  0.00     0.186 C 
BRANCH  22  23
HETATM   23  O           1      43.832 -16.924   5.867  0.00  0.00    -0.394 OA
HETATM   24  C           1      44.820 -17.635   6.582  0.00  0.00     0.201 C 
ENDBRANCH  22  23
ENDBRANCH  21  22
ENDBRANCH  18  21
ENDBRANCH  16  17
ENDBRANCH   4  16
BRANCH  12  25
HETATM   25  C           1      37.849 -13.731  -1.124  0.00  0.00     0.176 C 
BRANCH  25  26
HETATM   26  O           1      38.822 -14.566  -1.719  0.00  0.00    -0.400 OA
HETATM   27  H           1      38.392 -15.320  -2.129  0.00  0.00     0.209 HD
ENDBRANCH  25  26
ENDBRANCH  12  25
BRANCH   8  28
HETATM   28  N           1      42.367 -17.890   3.228  0.00  0.00    -0.365 N 
HETATM   29  H           1      41.943 -18.567   3.910  0.00  0.00     0.162 HD
BRANCH  28  30
HETATM   30  C           1      43.699 -18.210   2.671  0.00  0.00     0.160 C 
BRANCH  30  31
HETATM   31  C           1      43.973 -19.692   2.792  0.00  0.00    -0.041 A 
HETATM   32  C           1      44.567 -20.190   3.892  0.00  0.00     0.009 A 
HETATM   33  C           1      44.840 -21.499   4.002  0.00  0.00     0.001 A 
HETATM   34  C           1      44.516 -22.336   3.007  0.00  0.00     0.000 A 
HETATM   35  C           1      43.917 -21.857   1.906  0.00  0.00     0.001 A 
HETATM   36  C           1      43.650 -20.545   1.802  0.00  0.00     0.009 A 
ENDBRANCH  30  31
ENDBRANCH  28  30
ENDBRANCH   8  28
BRANCH  13  37
HETATM   37  O           1      39.755 -11.931  -1.843  0.00  0.00    -0.395 OA
HETATM   38  H           1      39.704 -12.888  -1.931  0.00  0.00     0.210 HD
ENDBRANCH  13  37
TORSDOF 11
ENDMDL
MODEL 2
REMARK VINA RESULT:      -7.8      3.276      7.452
REMARK  11 active torsions:
REMARK  status: ('A' for Active; 'I' for Inactive)
REMARK    1  A    between atoms: C_1  and  C_7 
REMARK    2  A    between atoms: C_1  and  C_11 
REMARK    3  A    between atoms: C_8  and  C_13 
REMARK    4  A    between atoms: C_8  and  O_14 
REMARK       I    between atoms: C_11  and  N_12 
REMARK    5  A    between atoms: N_12  and  C_13 
REMARK    6  A    between atoms: C_18  and  N_19 
REMARK    7  A    between atoms: N_19  and  C_20 
REMARK    8  A    between atoms: C_20  and  C_21 
REMARK    9  A    between atoms: C_28  and  C_29 
REMARK   10  A    between atoms: C_29  and  O_30 
REMARK   11  A    between atoms: C_31  and  O_32 
ROOT
HETATM    1  C           1      43.469 -14.314   5.067  0.00  0.00     0.012 A 
HETATM    2  C           1      40.659 -16.640   5.049  0.00  0.00     0.016 C 
HETATM    3  C           1      41.828 -16.479   4.042  0.00  0.00    -0.030 C 
HETATM    4  C           1      43.161 -16.753   4.809  0.00  0.00     0.056 C 
HETATM    5  C           1      42.328 -15.077   0.869  0.00  0.00     0.020 C 
HETATM    6  C           1      43.498 -15.530   5.609  0.00  0.00     0.056 A 
HETATM    7  S           1      43.832 -13.308   6.067  0.00  0.00    -0.055 SA
HETATM    8  C           1      44.042 -14.291   7.140  0.00  0.00     0.167 A 
HETATM    9  N           1      43.824 -15.499   6.824  0.00  0.00    -0.228 NA
HETATM   10  C           1      43.044 -14.169   3.639  0.00  0.00     0.055 C 
HETATM   11  C           1      41.779 -15.035   3.409  0.00  0.00     0.012 C 
HETATM   12  C           1      41.232 -14.902   1.950  0.00  0.00     0.008 C 
HETATM   13  C           1      40.111 -15.925   1.684  0.00  0.00     0.128 C 
HETATM   14  C           1      40.411 -17.370   2.081  0.00  0.00     0.033 C 
HETATM   15  C           1      41.661 -17.551   2.946  0.00  0.00     0.013 C 
ENDROOT
BRANCH   4  16
HETATM   16  C           1      43.259 -18.028   5.674  0.00  0.00     0.114 C 
BRANCH  16  17
HETATM   17  C           1      44.476 -18.890   5.351  0.00  0.00     0.218 C 
HETATM   18  N           1      44.201 -19.961   4.544  0.00  0.00    -0.359 N 
HETATM   19  H           1      43.250 -20.069   4.194  0.00  0.00     0.162 HD
HETATM   20  O           1      45.577 -18.649   5.781  0.00  0.00    -0.274 OA
BRANCH  18  21
HETATM   21  C           1      45.204 -20.964   4.163  0.00  0.00     0.148 C 
BRANCH  21  22
HETATM   22  C           1      44.496 -22.285   3.863  0.00  0.00     0.186 C 
BRANCH  22  23
HETATM   23  O           1      44.760 -22.654   2.531  0.00  0.00    -0.394 OA
HETATM   24  C           1      43.989 -21.913   1.609  0.00  0.00     0.201 C 
ENDBRANCH  22  23
ENDBRANCH  21  22
ENDBRANCH  18  21
ENDBRANCH  16  17
ENDBRANCH   4  16
BRANCH  12  25
HETATM   25  C           1      40.664 -13.471   1.758  0.00  0.00     0.176 C 
BRANCH  25  26
HETATM   26  O           1      39.907 -13.381   0.568  0.00  0.00    -0.400 OA
HETATM   27  H           1      39.996 -14.195   0.067  0.00  0.00     0.209 HD
ENDBRANCH  25  26
ENDBRANCH  12  25
BRANCH   8  28
HETATM   28  N           1      44.395 -13.870   8.281  0.00  0.00    -0.365 N 
HETATM   29  H           1      44.099 -14.424   9.124  0.00  0.00     0.162 HD
BRANCH  28  30
HETATM   30  C           1      45.201 -12.650   8.503  0.00  0.00     0.160 C 
BRANCH  30  31
HETATM   31  C           1      44.491 -11.723   9.464  0.00  0.00    -0.041 A 
HETATM   32  C           1      43.346 -11.114   9.107  0.00  0.00     0.009 A 
HETATM   33  C           1      42.719 -10.269   9.939  0.00  0.00     0.001 A 
HETATM   34  C           1      43.231 -10.022  11.153  0.00  0.00     0.000 A 
HETATM   35  C           1      44.370 -10.625  11.526  0.00  0.00     0.001 A 
HETATM   36  C           1      44.993 -11.467  10.687  0.00  0.00     0.009 A 
ENDBRANCH  30  31
ENDBRANCH  28  30
ENDBRANCH   8  28
BRANCH  13  37
HETATM   37  O           1      38.930 -15.489   2.318  0.00  0.00    -0.395 OA
HETATM   38  H           1      39.106 -14.623   2.701  0.00  0.00     0.210 HD
ENDBRANCH  13  37
TORSDOF 11
ENDMDL
MODEL 3
REMARK VINA RESULT:      -7.7      2.421      2.995
REMARK  11 active torsions:
REMARK  status: ('A' for Active; 'I' for Inactive)
REMARK    1  A    between atoms: C_1  and  C_7 
REMARK    2  A    between atoms: C_1  and  C_11 
REMARK    3  A    between atoms: C_8  and  C_13 
REMARK    4  A    between atoms: C_8  and  O_14 
REMARK       I    between atoms: C_11  and  N_12 
REMARK    5  A    between atoms: N_12  and  C_13 
REMARK    6  A    between atoms: C_18  and  N_19 
REMARK    7  A    between atoms: N_19  and  C_20 
REMARK    8  A    between atoms: C_20  and  C_21 
REMARK    9  A    between atoms: C_28  and  C_29 
REMARK   10  A    between atoms: C_29  and  O_30 
REMARK   11  A    between atoms: C_31  and  O_32 
ROOT
HETATM    1  C           1      40.378 -15.852   2.705  0.00  0.00     0.012 A 
HETATM    2  C           1      41.717 -12.465   2.510  0.00  0.00     0.016 C 
HETATM    3  C           1      40.255 -12.951   2.697  0.00  0.00    -0.030 C 
HETATM    4  C           1      40.190 -13.772   4.026  0.00  0.00     0.056 C 
HETATM    5  C           1      37.374 -13.287   0.730  0.00  0.00     0.020 C 
HETATM    6  C           1      40.757 -15.134   3.760  0.00  0.00     0.056 A 
HETATM    7  S           1      41.089 -17.132   2.684  0.00  0.00    -0.055 SA
HETATM    8  C           1      41.837 -16.862   3.921  0.00  0.00     0.167 A 
HETATM    9  N           1      41.619 -15.733   4.455  0.00  0.00    -0.228 NA
HETATM   10  C           1      39.397 -15.260   1.742  0.00  0.00     0.055 C 
HETATM   11  C           1      39.820 -13.799   1.440  0.00  0.00     0.012 C 
HETATM   12  C           1      38.877 -13.116   0.397  0.00  0.00     0.008 C 
HETATM   13  C           1      39.186 -11.612   0.273  0.00  0.00     0.128 C 
HETATM   14  C           1      39.288 -10.836   1.585  0.00  0.00     0.033 C 
HETATM   15  C           1      39.356 -11.707   2.843  0.00  0.00     0.013 C 
ENDROOT
BRANCH   4  16
HETATM   16  C           1      40.804 -13.152   5.299  0.00  0.00     0.114 C 
BRANCH  16  17
HETATM   17  C           1      39.767 -12.566   6.252  0.00  0.00     0.218 C 
HETATM   18  N           1      40.305 -11.904   7.322  0.00  0.00    -0.359 N 
HETATM   19  H           1      41.319 -11.815   7.373  0.00  0.00     0.162 HD
HETATM   20  O           1      38.580 -12.689   6.077  0.00  0.00    -0.274 OA
BRANCH  18  21
HETATM   21  C           1      39.498 -11.323   8.402  0.00  0.00     0.148 C 
BRANCH  21  22
HETATM   22  C           1      40.431 -10.691   9.436  0.00  0.00     0.186 C 
BRANCH  22  23
HETATM   23  O           1      40.104 -11.187  10.711  0.00  0.00    -0.394 OA
HETATM   24  C           1      41.180 -11.078  11.618  0.00  0.00     0.201 C 
ENDBRANCH  22  23
ENDBRANCH  21  22
ENDBRANCH  18  21
ENDBRANCH  16  17
ENDBRANCH   4  16
BRANCH  12  25
HETATM   25  C           1      39.089 -13.790  -0.985  0.00  0.00     0.176 C 
BRANCH  25  26
HETATM   26  O           1      37.884 -14.348  -1.467  0.00  0.00    -0.400 OA
HETATM   27  H           1      37.845 -14.255  -2.422  0.00  0.00     0.209 HD
ENDBRANCH  25  26
ENDBRANCH  12  25
BRANCH   8  28
HETATM   28  N           1      42.643 -17.743   4.343  0.00  0.00    -0.365 N 
HETATM   29  H           1      42.351 -18.322   5.170  0.00  0.00     0.162 HD
BRANCH  28  30
HETATM   30  C           1      43.967 -18.011   3.742  0.00  0.00     0.160 C 
BRANCH  30  31
HETATM   31  C           1      44.079 -19.469   3.355  0.00  0.00    -0.041 A 
HETATM   32  C           1      44.632 -20.360   4.199  0.00  0.00     0.009 A 
HETATM   33  C           1      44.761 -21.651   3.859  0.00  0.00     0.001 A 
HETATM   34  C           1      44.333 -22.074   2.661  0.00  0.00     0.000 A 
HETATM   35  C           1      43.775 -21.200   1.810  0.00  0.00     0.001 A 
HETATM   36  C           1      43.652 -19.909   2.157  0.00  0.00     0.009 A 
ENDBRANCH  30  31
ENDBRANCH  28  30
ENDBRANCH   8  28
BRANCH  13  37
HETATM   37  O           1      40.369 -11.446  -0.476  0.00  0.00    -0.395 OA
HETATM   38  H           1      40.394 -12.141  -1.141  0.00  0.00     0.210 HD
ENDBRANCH  13  37
TORSDOF 11
ENDMDL
MODEL 4
REMARK VINA RESULT:      -7.7      3.257      7.133
REMARK  11 active torsions:
REMARK  status: ('A' for Active; 'I' for Inactive)
REMARK    1  A    between atoms: C_1  and  C_7 
REMARK    2  A    between atoms: C_1  and  C_11 
REMARK    3  A    between atoms: C_8  and  C_13 
REMARK    4  A    between atoms: C_8  and  O_14 
REMARK       I    between atoms: C_11  and  N_12 
REMARK    5  A    between atoms: N_12  and  C_13 
REMARK    6  A    between atoms: C_18  and  N_19 
REMARK    7  A    between atoms: N_19  and  C_20 
REMARK    8  A    between atoms: C_20  and  C_21 
REMARK    9  A    between atoms: C_28  and  C_29 
REMARK   10  A    between atoms: C_29  and  O_30 
REMARK   11  A    between atoms: C_31  and  O_32 
ROOT
HETATM    1  C           1      40.888 -15.919   1.834  0.00  0.00     0.012 A 
HETATM    2  C           1      44.092 -15.440   3.508  0.00  0.00     0.016 C 
HETATM    3  C           1      42.891 -16.345   3.891  0.00  0.00    -0.030 C 
HETATM    4  C           1      42.676 -17.370   2.731  0.00  0.00     0.056 C 
HETATM    5  C           1      40.245 -16.287   6.187  0.00  0.00     0.020 C 
HETATM    6  C           1      41.967 -16.665   1.613  0.00  0.00     0.056 A 
HETATM    7  S           1      40.405 -15.345   0.575  0.00  0.00    -0.055 SA
HETATM    8  C           1      41.449 -15.980  -0.242  0.00  0.00     0.167 A 
HETATM    9  N           1      42.291 -16.682   0.397  0.00  0.00    -0.228 NA
HETATM   10  C           1      40.402 -15.746   3.239  0.00  0.00     0.055 C 
HETATM   11  C           1      41.621 -15.446   4.150  0.00  0.00     0.012 C 
HETATM   12  C           1      41.199 -15.199   5.635  0.00  0.00     0.008 C 
HETATM   13  C           1      42.433 -15.114   6.553  0.00  0.00     0.128 C 
HETATM   14  C           1      43.462 -16.234   6.402  0.00  0.00     0.033 C 
HETATM   15  C           1      43.270 -17.120   5.169  0.00  0.00     0.013 C 
ENDROOT
BRANCH   4  16
HETATM   16  C           1      43.899 -18.152   2.210  0.00  0.00     0.114 C 
BRANCH  16  17
HETATM   17  C           1      43.779 -19.662   2.393  0.00  0.00     0.218 C 
HETATM   18  N           1      44.615 -20.176   3.346  0.00  0.00    -0.359 N 
HETATM   19  H           1      45.198 -19.529   3.876  0.00  0.00     0.162 HD
HETATM   20  O           1      43.020 -20.338   1.743  0.00  0.00    -0.274 OA
BRANCH  18  21
HETATM   21  C           1      44.721 -21.611   3.641  0.00  0.00     0.148 C 
BRANCH  21  22
HETATM   22  C           1      44.892 -21.798   5.149  0.00  0.00     0.186 C 
BRANCH  22  23
HETATM   23  O           1      44.379 -20.668   5.811  0.00  0.00    -0.394 OA
HETATM   24  C           1      43.667 -21.011   6.980  0.00  0.00     0.201 C 
ENDBRANCH  22  23
ENDBRANCH  21  22
ENDBRANCH  18  21
ENDBRANCH  16  17
ENDBRANCH   4  16
BRANCH  12  25
HETATM   25  C           1      40.418 -13.861   5.716  0.00  0.00     0.176 C 
BRANCH  25  26
HETATM   26  O           1      39.886 -13.662   7.010  0.00  0.00    -0.400 OA
HETATM   27  H           1      38.935 -13.545   6.953  0.00  0.00     0.209 HD
ENDBRANCH  25  26
ENDBRANCH  12  25
BRANCH   8  28
HETATM   28  N           1      41.449 -15.769  -1.491  0.00  0.00    -0.365 N 
HETATM   29  H           1      41.752 -16.552  -2.123  0.00  0.00     0.162 HD
BRANCH  28  30
HETATM   30  C           1      41.048 -14.490  -2.115  0.00  0.00     0.160 C 
BRANCH  30  31
HETATM   31  C           1      39.725 -14.651  -2.830  0.00  0.00    -0.041 A 
HETATM   32  C           1      39.516 -15.694  -3.655  0.00  0.00     0.009 A 
HETATM   33  C           1      38.358 -15.836  -4.316  0.00  0.00     0.001 A 
HETATM   34  C           1      37.382 -14.931  -4.158  0.00  0.00     0.000 A 
HETATM   35  C           1      37.572 -13.888  -3.335  0.00  0.00     0.001 A 
HETATM   36  C           1      38.735 -13.752  -2.680  0.00  0.00     0.009 A 
ENDBRANCH  30  31
ENDBRANCH  28  30
ENDBRANCH   8  28
BRANCH  13  37
HETATM   37  O           1      43.056 -13.862   6.373  0.00  0.00    -0.395 OA
HETATM   38  H           1      44.006 -14.011   6.335  0.00  0.00     0.210 HD
ENDBRANCH  13  37
TORSDOF 11
ENDMDL
MODEL 5
REMARK VINA RESULT:      -7.6      2.677      4.158
REMARK  11 active torsions:
REMARK  status: ('A' for Active; 'I' for Inactive)
REMARK    1  A    between atoms: C_1  and  C_7 
REMARK    2  A    between atoms: C_1  and  C_11 
REMARK    3  A    between atoms: C_8  and  C_13 
REMARK    4  A    between atoms: C_8  and  O_14 
REMARK       I    between atoms: C_11  and  N_12 
REMARK    5  A    between atoms: N_12  and  C_13 
REMARK    6  A    between atoms: C_18  and  N_19 
REMARK    7  A    between atoms: N_19  and  C_20 
REMARK    8  A    between atoms: C_20  and  C_21 
REMARK    9  A    between atoms: C_28  and  C_29 
REMARK   10  A    between atoms: C_29  and  O_30 
REMARK   11  A    between atoms: C_31  and  O_32 
ROOT
HETATM    1  C           1      41.883 -16.410   5.636  0.00  0.00     0.012 A 
HETATM    2  C           1      43.590 -13.815   3.725  0.00  0.00     0.016 C 
HETATM    3  C           1      42.553 -13.690   4.873  0.00  0.00    -0.030 C 
HETATM    4  C           1      43.166 -14.360   6.145  0.00  0.00     0.056 C 
HETATM    5  C           1      39.138 -12.978   5.200  0.00  0.00     0.020 C 
HETATM    6  C           1      43.033 -15.846   5.999  0.00  0.00     0.056 A 
HETATM    7  S           1      42.035 -17.865   5.565  0.00  0.00    -0.055 SA
HETATM    8  C           1      43.447 -17.847   5.973  0.00  0.00     0.167 A 
HETATM    9  N           1      43.941 -16.698   6.181  0.00  0.00    -0.228 NA
HETATM   10  C           1      40.712 -15.531   5.325  0.00  0.00     0.055 C 
HETATM   11  C           1      41.197 -14.362   4.428  0.00  0.00     0.012 C 
HETATM   12  C           1      40.024 -13.417   4.008  0.00  0.00     0.008 C 
HETATM   13  C           1      40.556 -12.156   3.301  0.00  0.00     0.128 C 
HETATM   14  C           1      41.695 -11.420   4.005  0.00  0.00     0.033 C 
HETATM   15  C           1      42.340 -12.190   5.160  0.00  0.00     0.013 C 
ENDROOT
BRANCH   4  16
HETATM   16  C           1      44.599 -13.967   6.560  0.00  0.00     0.114 C 
BRANCH  16  17
HETATM   17  C           1      44.659 -13.163   7.855  0.00  0.00     0.218 C 
HETATM   18  N           1      43.551 -12.395   8.086  0.00  0.00    -0.359 N 
HETATM   19  H           1      42.778 -12.453   7.424  0.00  0.00     0.162 HD
HETATM   20  O           1      45.608 -13.199   8.600  0.00  0.00    -0.274 OA
BRANCH  18  21
HETATM   21  C           1      43.420 -11.487   9.233  0.00  0.00     0.148 C 
BRANCH  21  22
HETATM   22  C           1      42.217 -10.571   9.008  0.00  0.00     0.186 C 
BRANCH  22  23
HETATM   23  O           1      42.413  -9.841   7.821  0.00  0.00    -0.394 OA
HETATM   24  C           1      41.206  -9.314   7.314  0.00  0.00     0.201 C 
ENDBRANCH  22  23
ENDBRANCH  21  22
ENDBRANCH  18  21
ENDBRANCH  16  17
ENDBRANCH   4  16
BRANCH  12  25
HETATM   25  C           1      39.089 -14.183   3.037  0.00  0.00     0.176 C 
BRANCH  25  26
HETATM   26  O           1      39.830 -15.021   2.174  0.00  0.00    -0.400 OA
HETATM   27  H           1      39.536 -15.929   2.276  0.00  0.00     0.209 HD
ENDBRANCH  25  26
ENDBRANCH  12  25
BRANCH   8  28
HETATM   28  N           1      44.062 -18.951   6.065  0.00  0.00    -0.365 N 
HETATM   29  H           1      43.745 -19.633   6.799  0.00  0.00     0.162 HD
BRANCH  28  30
HETATM   30  C           1      45.197 -19.342   5.201  0.00  0.00     0.160 C 
BRANCH  30  31
HETATM   31  C           1      44.709 -20.201   4.056  0.00  0.00    -0.041 A 
HETATM   32  C           1      44.814 -21.541   4.115  0.00  0.00     0.009 A 
HETATM   33  C           1      44.410 -22.315   3.096  0.00  0.00     0.001 A 
HETATM   34  C           1      43.888 -21.755   1.996  0.00  0.00     0.000 A 
HETATM   35  C           1      43.771 -20.421   1.924  0.00  0.00     0.001 A 
HETATM   36  C           1      44.181 -19.653   2.946  0.00  0.00     0.009 A 
ENDBRANCH  30  31
ENDBRANCH  28  30
ENDBRANCH   8  28
BRANCH  13  37
HETATM   37  O           1      40.943 -12.494   1.988  0.00  0.00    -0.395 OA
HETATM   38  H           1      41.250 -11.689   1.558  0.00  0.00     0.210 HD
ENDBRANCH  13  37
TORSDOF 11
ENDMDL
MODEL 6
REMARK VINA RESULT:      -7.5      2.382      5.400
REMARK  11 active torsions:
REMARK  status: ('A' for Active; 'I' for Inactive)
REMARK    1  A    between atoms: C_1  and  C_7 
REMARK    2  A    between atoms: C_1  and  C_11 
REMARK    3  A    between atoms: C_8  and  C_13 
REMARK    4  A    between atoms: C_8  and  O_14 
REMARK       I    between atoms: C_11  and  N_12 
REMARK    5  A    between atoms: N_12  and  C_13 
REMARK    6  A    between atoms: C_18  and  N_19 
REMARK    7  A    between atoms: N_19  and  C_20 
REMARK    8  A    between atoms: C_20  and  C_21 
REMARK    9  A    between atoms: C_28  and  C_29 
REMARK   10  A    between atoms: C_29  and  O_30 
REMARK   11  A    between atoms: C_31  and  O_32 
ROOT
HETATM    1  C           1      42.691 -14.556   4.597  0.00  0.00     0.012 A 
HETATM    2  C           1      39.460 -14.047   2.985  0.00  0.00     0.016 C 
HETATM    3  C           1      40.649 -13.067   3.169  0.00  0.00    -0.030 C 
HETATM    4  C           1      41.886 -13.674   2.433  0.00  0.00     0.056 C 
HETATM    5  C           1      41.468 -10.362   5.239  0.00  0.00     0.020 C 
HETATM    6  C           1      42.461 -14.754   3.301  0.00  0.00     0.056 A 
HETATM    7  S           1      43.244 -15.770   5.202  0.00  0.00    -0.055 SA
HETATM    8  C           1      43.232 -16.533   3.945  0.00  0.00     0.167 A 
HETATM    9  N           1      42.771 -15.918   2.937  0.00  0.00    -0.228 NA
HETATM   10  C           1      42.324 -13.238   5.204  0.00  0.00     0.055 C 
HETATM   11  C           1      40.909 -12.843   4.708  0.00  0.00     0.012 C 
HETATM   12  C           1      40.420 -11.497   5.337  0.00  0.00     0.008 C 
HETATM   13  C           1      39.114 -11.020   4.673  0.00  0.00     0.128 C 
HETATM   14  C           1      39.102 -11.005   3.146  0.00  0.00     0.033 C 
HETATM   15  C           1      40.276 -11.735   2.488  0.00  0.00     0.013 C 
ENDROOT
BRANCH   4  16
HETATM   16  C           1      41.706 -14.164   0.981  0.00  0.00     0.114 C 
BRANCH  16  17
HETATM   17  C           1      42.113 -13.131  -0.065  0.00  0.00     0.218 C 
HETATM   18  N           1      41.829 -13.499  -1.352  0.00  0.00    -0.359 N 
HETATM   19  H           1      41.341 -14.382  -1.505  0.00  0.00     0.162 HD
HETATM   20  O           1      42.648 -12.088   0.223  0.00  0.00    -0.274 OA
BRANCH  18  21
HETATM   21  C           1      42.196 -12.693  -2.524  0.00  0.00     0.148 C 
BRANCH  21  22
HETATM   22  C           1      41.281 -13.067  -3.691  0.00  0.00     0.186 C 
BRANCH  22  23
HETATM   23  O           1      41.154 -14.467  -3.742  0.00  0.00    -0.394 OA
HETATM   24  C           1      39.806 -14.883  -3.693  0.00  0.00     0.201 C 
ENDBRANCH  22  23
ENDBRANCH  21  22
ENDBRANCH  18  21
ENDBRANCH  16  17
ENDBRANCH   4  16
BRANCH  12  25
HETATM   25  C           1      40.164 -11.717   6.851  0.00  0.00     0.176 C 
BRANCH  25  26
HETATM   26  O           1      39.529 -12.957   7.084  0.00  0.00    -0.400 OA
HETATM   27  H           1      40.107 -13.525   7.598  0.00  0.00     0.209 HD
ENDBRANCH  25  26
ENDBRANCH  12  25
BRANCH   8  28
HETATM   28  N           1      43.651 -17.729   3.962  0.00  0.00    -0.365 N 
HETATM   29  H           1      43.621 -18.248   4.875  0.00  0.00     0.162 HD
BRANCH  28  30
HETATM   30  C           1      44.176 -18.440   2.777  0.00  0.00     0.160 C 
BRANCH  30  31
HETATM   31  C           1      44.311 -19.917   3.072  0.00  0.00    -0.041 A 
HETATM   32  C           1      44.710 -20.338   4.286  0.00  0.00     0.009 A 
HETATM   33  C           1      44.860 -21.643   4.554  0.00  0.00     0.001 A 
HETATM   34  C           1      44.607 -22.555   3.605  0.00  0.00     0.000 A 
HETATM   35  C           1      44.203 -22.153   2.391  0.00  0.00     0.001 A 
HETATM   36  C           1      44.059 -20.844   2.129  0.00  0.00     0.009 A 
ENDBRANCH  30  31
ENDBRANCH  28  30
ENDBRANCH   8  28
BRANCH  13  37
HETATM   37  O           1      38.042 -11.799   5.155  0.00  0.00    -0.395 OA
HETATM   38  H           1      37.270 -11.227   5.215  0.00  0.00     0.210 HD
ENDBRANCH  13  37
TORSDOF 11
ENDMDL
MODEL 7
REMARK VINA RESULT:      -7.5      4.079      7.938
REMARK  11 active torsions:
REMARK  status: ('A' for Active; 'I' for Inactive)
REMARK    1  A    between atoms: C_1  and  C_7 
REMARK    2  A    between atoms: C_1  and  C_11 
REMARK    3  A    between atoms: C_8  and  C_13 
REMARK    4  A    between atoms: C_8  and  O_14 
REMARK       I    between atoms: C_11  and  N_12 
REMARK    5  A    between atoms: N_12  and  C_13 
REMARK    6  A    between atoms: C_18  and  N_19 
REMARK    7  A    between atoms: N_19  and  C_20 
REMARK    8  A    between atoms: C_20  and  C_21 
REMARK    9  A    between atoms: C_28  and  C_29 
REMARK   10  A    between atoms: C_29  and  O_30 
REMARK   11  A    between atoms: C_31  and  O_32 
ROOT
HETATM    1  C           1      43.609 -14.810   6.458  0.00  0.00     0.012 A 
HETATM    2  C           1      42.696 -13.686   3.110  0.00  0.00     0.016 C 
HETATM    3  C           1      41.976 -14.679   4.061  0.00  0.00    -0.030 C 
HETATM    4  C           1      41.590 -13.901   5.360  0.00  0.00     0.056 C 
HETATM    5  C           1      41.610 -18.150   4.372  0.00  0.00     0.020 C 
HETATM    6  C           1      42.821 -13.768   6.206  0.00  0.00     0.056 A 
HETATM    7  S           1      44.736 -14.398   7.298  0.00  0.00    -0.055 SA
HETATM    8  C           1      44.300 -12.997   7.387  0.00  0.00     0.167 A 
HETATM    9  N           1      43.243 -12.712   6.746  0.00  0.00    -0.228 NA
HETATM   10  C           1      43.278 -16.133   5.841  0.00  0.00     0.055 C 
HETATM   11  C           1      42.922 -15.908   4.349  0.00  0.00     0.012 C 
HETATM   12  C           1      42.612 -17.249   3.608  0.00  0.00     0.008 C 
HETATM   13  C           1      42.059 -16.986   2.195  0.00  0.00     0.128 C 
HETATM   14  C           1      40.921 -15.972   2.096  0.00  0.00     0.033 C 
HETATM   15  C           1      40.683 -15.149   3.365  0.00  0.00     0.013 C 
ENDROOT
BRANCH   4  16
HETATM   16  C           1      40.864 -12.547   5.214  0.00  0.00     0.114 C 
BRANCH  16  17
HETATM   17  C           1      39.817 -12.298   6.295  0.00  0.00     0.218 C 
HETATM   18  N           1      40.309 -11.688   7.417  0.00  0.00    -0.359 N 
HETATM   19  H           1      41.291 -11.413   7.425  0.00  0.00     0.162 HD
HETATM   20  O           1      38.662 -12.623   6.169  0.00  0.00    -0.274 OA
BRANCH  18  21
HETATM   21  C           1      39.498 -11.415   8.610  0.00  0.00     0.148 C 
BRANCH  21  22
HETATM   22  C           1      40.359 -10.683   9.640  0.00  0.00     0.186 C 
BRANCH  22  23
HETATM   23  O           1      40.145 -11.257  10.907  0.00  0.00    -0.394 OA
HETATM   24  C           1      39.686 -10.312  11.850  0.00  0.00     0.201 C 
ENDBRANCH  22  23
ENDBRANCH  21  22
ENDBRANCH  18  21
ENDBRANCH  16  17
ENDBRANCH   4  16
BRANCH  12  25
HETATM   25  C           1      43.924 -18.070   3.491  0.00  0.00     0.176 C 
BRANCH  25  26
HETATM   26  O           1      43.765 -19.156   2.602  0.00  0.00    -0.400 OA
HETATM   27  H           1      43.060 -19.728   2.914  0.00  0.00     0.209 HD
ENDBRANCH  25  26
ENDBRANCH  12  25
BRANCH   8  28
HETATM   28  N           1      45.005 -12.188   8.060  0.00  0.00    -0.365 N 
HETATM   29  H           1      45.214 -11.249   7.639  0.00  0.00     0.162 HD
BRANCH  28  30
HETATM   30  C           1      45.549 -12.483   9.404  0.00  0.00     0.160 C 
BRANCH  30  31
HETATM   31  C           1      44.706 -11.813  10.466  0.00  0.00    -0.041 A 
HETATM   32  C           1      44.553 -10.476  10.475  0.00  0.00     0.009 A 
HETATM   33  C           1      43.830  -9.866  11.426  0.00  0.00     0.001 A 
HETATM   34  C           1      43.241 -10.591  12.388  0.00  0.00     0.000 A 
HETATM   35  C           1      43.379 -11.925  12.390  0.00  0.00     0.001 A 
HETATM   36  C           1      44.107 -12.528  11.436  0.00  0.00     0.009 A 
ENDBRANCH  30  31
ENDBRANCH  28  30
ENDBRANCH   8  28
BRANCH  13  37
HETATM   37  O           1      43.120 -16.601   1.350  0.00  0.00    -0.395 OA
HETATM   38  H           1      42.983 -17.025   0.497  0.00  0.00     0.210 HD
ENDBRANCH  13  37
TORSDOF 11
ENDMDL
MODEL 8
REMARK VINA RESULT:      -7.4      2.209      4.543
REMARK  11 active torsions:
REMARK  status: ('A' for Active; 'I' for Inactive)
REMARK    1  A    between atoms: C_1  and  C_7 
REMARK    2  A    between atoms: C_1  and  C_11 
REMARK    3  A    between atoms: C_8  and  C_13 
REMARK    4  A    between atoms: C_8  and  O_14 
REMARK       I    between atoms: C_11  and  N_12 
REMARK    5  A    between atoms: N_12  and  C_13 
REMARK    6  A    between atoms: C_18  and  N_19 
REMARK    7  A    between atoms: N_19  and  C_20 
REMARK    8  A    between atoms: C_20  and  C_21 
REMARK    9  A    between atoms: C_28  and  C_29 
REMARK   10  A    between atoms: C_29  and  O_30 
REMARK   11  A    between atoms: C_31  and  O_32 
ROOT
HETATM    1  C           1      42.339 -13.673   2.899  0.00  0.00     0.012 A 
HETATM    2  C           1      39.493 -15.138   1.150  0.00  0.00     0.016 C 
HETATM    3  C           1      40.910 -14.780   0.627  0.00  0.00    -0.030 C 
HETATM    4  C           1      41.946 -15.626   1.436  0.00  0.00     0.056 C 
HETATM    5  C           1      42.393 -12.241  -1.278  0.00  0.00     0.020 C 
HETATM    6  C           1      42.126 -14.981   2.778  0.00  0.00     0.056 A 
HETATM    7  S           1      42.471 -13.313   4.312  0.00  0.00    -0.055 SA
HETATM    8  C           1      42.296 -14.691   4.794  0.00  0.00     0.167 A 
HETATM    9  N           1      42.093 -15.561   3.895  0.00  0.00    -0.228 NA
HETATM   10  C           1      42.351 -12.825   1.666  0.00  0.00     0.055 C 
HETATM   11  C           1      41.146 -13.228   0.777  0.00  0.00     0.012 C 
HETATM   12  C           1      41.049 -12.353  -0.515  0.00  0.00     0.008 C 
HETATM   13  C           1      39.982 -12.905  -1.478  0.00  0.00     0.128 C 
HETATM   14  C           1      40.053 -14.403  -1.774  0.00  0.00     0.033 C 
HETATM   15  C           1      40.987 -15.195  -0.856  0.00  0.00     0.013 C 
ENDROOT
BRANCH   4  16
HETATM   16  C           1      41.702 -17.143   1.575  0.00  0.00     0.114 C 
BRANCH  16  17
HETATM   17  C           1      42.979 -17.975   1.495  0.00  0.00     0.218 C 
HETATM   18  N           1      42.894 -19.188   2.123  0.00  0.00    -0.359 N 
HETATM   19  H           1      42.002 -19.454   2.539  0.00  0.00     0.162 HD
HETATM   20  O           1      43.975 -17.586   0.936  0.00  0.00    -0.274 OA
BRANCH  18  21
HETATM   21  C           1      44.022 -20.121   2.234  0.00  0.00     0.148 C 
BRANCH  21  22
HETATM   22  C           1      43.604 -21.476   1.661  0.00  0.00     0.186 C 
BRANCH  22  23
HETATM   23  O           1      44.433 -22.477   2.201  0.00  0.00    -0.394 OA
HETATM   24  C           1      44.558 -22.368   3.602  0.00  0.00     0.201 C 
ENDBRANCH  22  23
ENDBRANCH  21  22
ENDBRANCH  18  21
ENDBRANCH  16  17
ENDBRANCH   4  16
BRANCH  12  25
HETATM   25  C           1      40.663 -10.906  -0.111  0.00  0.00     0.176 C 
BRANCH  25  26
HETATM   26  O           1      39.686 -10.908   0.910  0.00  0.00    -0.400 OA
HETATM   27  H           1      39.706 -10.070   1.377  0.00  0.00     0.209 HD
ENDBRANCH  25  26
ENDBRANCH  12  25
BRANCH   8  28
HETATM   28  N           1      42.338 -14.903   6.042  0.00  0.00    -0.365 N 
HETATM   29  H           1      42.650 -14.117   6.665  0.00  0.00     0.162 HD
BRANCH  28  30
HETATM   30  C           1      41.970 -16.187   6.677  0.00  0.00     0.160 C 
BRANCH  30  31
HETATM   31  C           1      43.041 -17.223   6.417  0.00  0.00    -0.041 A 
HETATM   32  C           1      42.729 -18.399   5.842  0.00  0.00     0.009 A 
HETATM   33  C           1      43.664 -19.337   5.629  0.00  0.00     0.001 A 
HETATM   34  C           1      44.935 -19.110   5.989  0.00  0.00     0.000 A 
HETATM   35  C           1      45.263 -17.941   6.558  0.00  0.00     0.001 A 
HETATM   36  C           1      44.321 -17.008   6.771  0.00  0.00     0.009 A 
ENDBRANCH  30  31
ENDBRANCH  28  30
ENDBRANCH   8  28
BRANCH  13  37
HETATM   37  O           1      38.703 -12.573  -0.987  0.00  0.00    -0.395 OA
HETATM   38  H           1      38.357 -13.345  -0.527  0.00  0.00     0.210 HD
ENDBRANCH  13  37
TORSDOF 11
ENDMDL
MODEL 9
REMARK VINA RESULT:      -7.2      2.354      5.490
REMARK  11 active torsions:
REMARK  status: ('A' for Active; 'I' for Inactive)
REMARK    1  A    between atoms: C_1  and  C_7 
REMARK    2  A    between atoms: C_1  and  C_11 
REMARK    3  A    between atoms: C_8  and  C_13 
REMARK    4  A    between atoms: C_8  and  O_14 
REMARK       I    between atoms: C_11  and  N_12 
REMARK    5  A    between atoms: N_12  and  C_13 
REMARK    6  A    between atoms: C_18  and  N_19 
REMARK    7  A    between atoms: N_19  and  C_20 
REMARK    8  A    between atoms: C_20  and  C_21 
REMARK    9  A    between atoms: C_28  and  C_29 
REMARK   10  A    between atoms: C_29  and  O_30 
REMARK   11  A    between atoms: C_31  and  O_32 
ROOT
HETATM    1  C           1      41.643 -14.242   3.498  0.00  0.00     0.012 A 
HETATM    2  C           1      38.647 -14.426   1.426  0.00  0.00     0.016 C 
HETATM    3  C           1      39.875 -13.481   1.325  0.00  0.00    -0.030 C 
HETATM    4  C           1      41.139 -14.367   1.081  0.00  0.00     0.056 C 
HETATM    5  C           1      40.652 -10.162   2.133  0.00  0.00     0.020 C 
HETATM    6  C           1      41.541 -14.976   2.392  0.00  0.00     0.056 A 
HETATM    7  S           1      42.042 -15.086   4.627  0.00  0.00    -0.055 SA
HETATM    8  C           1      42.113 -16.316   3.824  0.00  0.00     0.167 A 
HETATM    9  N           1      41.807 -16.188   2.600  0.00  0.00    -0.228 NA
HETATM   10  C           1      41.305 -12.786   3.435  0.00  0.00     0.055 C 
HETATM   11  C           1      39.983 -12.620   2.642  0.00  0.00     0.012 C 
HETATM   12  C           1      39.523 -11.127   2.570  0.00  0.00     0.008 C 
HETATM   13  C           1      38.332 -10.961   1.607  0.00  0.00     0.128 C 
HETATM   14  C           1      38.486 -11.606   0.230  0.00  0.00     0.033 C 
HETATM   15  C           1      39.670 -12.567   0.101  0.00  0.00     0.013 C 
ENDROOT
BRANCH   4  16
HETATM   16  C           1      41.083 -15.432  -0.034  0.00  0.00     0.114 C 
BRANCH  16  17
HETATM   17  C           1      40.971 -14.840  -1.435  0.00  0.00     0.218 C 
HETATM   18  N           1      39.959 -15.373  -2.186  0.00  0.00    -0.359 N 
HETATM   19  H           1      39.349 -16.065  -1.751  0.00  0.00     0.162 HD
HETATM   20  O           1      41.719 -13.985  -1.843  0.00  0.00    -0.274 OA
BRANCH  18  21
HETATM   21  C           1      39.710 -15.005  -3.586  0.00  0.00     0.148 C 
BRANCH  21  22
HETATM   22  C           1      38.883 -16.106  -4.250  0.00  0.00     0.186 C 
BRANCH  22  23
HETATM   23  O           1      37.710 -15.540  -4.782  0.00  0.00    -0.394 OA
HETATM   24  C           1      37.168 -14.545  -3.940  0.00  0.00     0.201 C 
ENDBRANCH  22  23
ENDBRANCH  21  22
ENDBRANCH  18  21
ENDBRANCH  16  17
ENDBRANCH   4  16
BRANCH  12  25
HETATM   25  C           1      39.091 -10.669   3.988  0.00  0.00     0.176 C 
BRANCH  25  26
HETATM   26  O           1      38.325 -11.666   4.633  0.00  0.00    -0.400 OA
HETATM   27  H           1      38.453 -12.508   4.190  0.00  0.00     0.209 HD
ENDBRANCH  25  26
ENDBRANCH  12  25
BRANCH   8  28
HETATM   28  N           1      42.443 -17.394   4.401  0.00  0.00    -0.365 N 
HETATM   29  H           1      41.682 -17.975   4.835  0.00  0.00     0.162 HD
BRANCH  28  30
HETATM   30  C           1      43.833 -17.889   4.500  0.00  0.00     0.160 C 
BRANCH  30  31
HETATM   31  C           1      43.977 -19.195   3.750  0.00  0.00    -0.041 A 
HETATM   32  C           1      43.453 -19.337   2.519  0.00  0.00     0.009 A 
HETATM   33  C           1      43.550 -20.498   1.853  0.00  0.00     0.001 A 
HETATM   34  C           1      44.180 -21.540   2.412  0.00  0.00     0.000 A 
HETATM   35  C           1      44.713 -21.413   3.637  0.00  0.00     0.001 A 
HETATM   36  C           1      44.609 -20.249   4.298  0.00  0.00     0.009 A 
ENDBRANCH  30  31
ENDBRANCH  28  30
ENDBRANCH   8  28
BRANCH  13  37
HETATM   37  O           1      37.163 -11.439   2.233  0.00  0.00    -0.395 OA
HETATM   38  H           1      37.381 -11.635   3.150  0.00  0.00     0.210 HD
ENDBRANCH  13  37
TORSDOF 11
ENDMDL
MODEL 10
REMARK VINA RESULT:      -7.2      2.713      5.635
REMARK  11 active torsions:
REMARK  status: ('A' for Active; 'I' for Inactive)
REMARK    1  A    between atoms: C_1  and  C_7 
REMARK    2  A    between atoms: C_1  and  C_11 
REMARK    3  A    between atoms: C_8  and  C_13 
REMARK    4  A    between atoms: C_8  and  O_14 
REMARK       I    between atoms: C_11  and  N_12 
REMARK    5  A    between atoms: N_12  and  C_13 
REMARK    6  A    between atoms: C_18  and  N_19 
REMARK    7  A    between atoms: N_19  and  C_20 
REMARK    8  A    between atoms: C_20  and  C_21 
REMARK    9  A    between atoms: C_28  and  C_29 
REMARK   10  A    between atoms: C_29  and  O_30 
REMARK   11  A    between atoms: C_31  and  O_32 
ROOT
HETATM    1  C           1      42.598 -14.053   4.153  0.00  0.00     0.012 A 
HETATM    2  C           1      39.438 -13.438   2.438  0.00  0.00     0.016 C 
HETATM    3  C           1      40.619 -12.475   2.731  0.00  0.00    -0.030 C 
HETATM    4  C           1      41.887 -13.041   2.013  0.00  0.00     0.056 C 
HETATM    5  C           1      41.351  -9.901   4.994  0.00  0.00     0.020 C 
HETATM    6  C           1      42.423 -14.173   2.839  0.00  0.00     0.056 A 
HETATM    7  S           1      43.123 -15.303   4.707  0.00  0.00    -0.055 SA
HETATM    8  C           1      43.165 -15.990   3.407  0.00  0.00     0.167 A 
HETATM    9  N           1      42.748 -15.314   2.419  0.00  0.00    -0.228 NA
HETATM   10  C           1      42.206 -12.774   4.822  0.00  0.00     0.055 C 
HETATM   11  C           1      40.814 -12.344   4.291  0.00  0.00     0.012 C 
HETATM   12  C           1      40.299 -11.037   4.978  0.00  0.00     0.008 C 
HETATM   13  C           1      39.023 -10.517   4.289  0.00  0.00     0.128 C 
HETATM   14  C           1      39.076 -10.410   2.766  0.00  0.00     0.033 C 
HETATM   15  C           1      40.277 -11.103   2.116  0.00  0.00     0.013 C 
ENDROOT
BRANCH   4  16
HETATM   16  C           1      41.769 -13.442   0.528  0.00  0.00     0.114 C 
BRANCH  16  17
HETATM   17  C           1      42.288 -12.378  -0.433  0.00  0.00     0.218 C 
HETATM   18  N           1      41.929 -12.582  -1.738  0.00  0.00    -0.359 N 
HETATM   19  H           1      41.324 -13.375  -1.953  0.00  0.00     0.162 HD
HETATM   20  O           1      42.963 -11.446  -0.070  0.00  0.00    -0.274 OA
BRANCH  18  21
HETATM   21  C           1      42.374 -11.725  -2.843  0.00  0.00     0.148 C 
BRANCH  21  22
HETATM   22  C           1      41.189 -10.896  -3.339  0.00  0.00     0.186 C 
BRANCH  22  23
HETATM   23  O           1      41.633  -9.597  -3.642  0.00  0.00    -0.394 OA
HETATM   24  C           1      42.658  -9.167  -2.773  0.00  0.00     0.201 C 
ENDBRANCH  22  23
ENDBRANCH  21  22
ENDBRANCH  18  21
ENDBRANCH  16  17
ENDBRANCH   4  16
BRANCH  12  25
HETATM   25  C           1      39.979 -11.347   6.464  0.00  0.00     0.176 C 
BRANCH  25  26
HETATM   26  O           1      39.098 -10.383   7.005  0.00  0.00    -0.400 OA
HETATM   27  H           1      38.198 -10.586   6.742  0.00  0.00     0.209 HD
ENDBRANCH  25  26
ENDBRANCH  12  25
BRANCH   8  28
HETATM   28  N           1      43.582 -17.185   3.370  0.00  0.00    -0.365 N 
HETATM   29  H           1      44.065 -17.565   4.223  0.00  0.00     0.162 HD
BRANCH  28  30
HETATM   30  C           1      43.428 -18.081   2.204  0.00  0.00     0.160 C 
BRANCH  30  31
HETATM   31  C           1      43.817 -19.494   2.576  0.00  0.00    -0.041 A 
HETATM   32  C           1      44.434 -19.748   3.745  0.00  0.00     0.009 A 
HETATM   33  C           1      44.809 -20.993   4.076  0.00  0.00     0.001 A 
HETATM   34  C           1      44.566 -22.011   3.238  0.00  0.00     0.000 A 
HETATM   35  C           1      43.947 -21.775   2.072  0.00  0.00     0.001 A 
HETATM   36  C           1      43.578 -20.526   1.746  0.00  0.00     0.009 A 
ENDBRANCH  30  31
ENDBRANCH  28  30
ENDBRANCH   8  28
BRANCH  13  37
HETATM   37  O           1      37.931 -11.319   4.677  0.00  0.00    -0.395 OA
HETATM   38  H           1      37.201 -11.129   4.078  0.00  0.00     0.210 HD
ENDBRANCH  13  37
TORSDOF 11
ENDMDL
