MODEL 1
REMARK VINA RESULT:      -9.0      0.000      0.000
REMARK  6 active torsions:
REMARK  status: ('A' for Active; 'I' for Inactive)
REMARK    1  A    between atoms: C_5  and  N_6 
REMARK       I    between atoms: N_6  and  C_7 
REMARK    2  A    between atoms: C_7  and  C_8 
REMARK    3  A    between atoms: C_8  and  N_9 
REMARK    4  A    between atoms: C_12  and  C_13 
REMARK       I    between atoms: C_13  and  N_14 
REMARK    5  A    between atoms: N_14  and  N_15 
REMARK       I    between atoms: N_15  and  C_16 
REMARK       I    between atoms: C_16  and  N_17 
REMARK    6  A    between atoms: N_17  and  C_18 
ROOT
HETATM    1  N   UNL     1      41.100 -14.189   2.991  1.00  0.00    -0.358 N 
HETATM    2  C   UNL     1      40.142 -14.596   3.855  1.00  0.00     0.092 A 
HETATM    3  C   UNL     1      39.958 -13.942   5.065  1.00  0.00     0.034 A 
HETATM    4  C   UNL     1      40.768 -12.853   5.389  1.00  0.00     0.036 A 
HETATM    5  C   UNL     1      41.767 -12.462   4.500  1.00  0.00     0.034 A 
HETATM    6  C   UNL     1      41.913 -13.150   3.301  1.00  0.00     0.092 A 
ENDROOT
BRANCH   4   7
HETATM    7  C   UNL     1      40.445 -12.084   6.620  1.00  0.00     0.270 C 
HETATM    8  N   UNL     1      41.503 -11.671   7.399  1.00  0.00    -0.262 N 
HETATM    9  H   UNL     1      42.403 -12.151   7.416  1.00  0.00     0.190 HD
HETATM   10  O   UNL     1      39.273 -11.832   6.884  1.00  0.00    -0.266 OA
BRANCH   8  11
HETATM   11  N   UNL     1      41.197 -10.985   8.590  1.00  0.00    -0.249 N 
HETATM   12  C   UNL     1      42.271 -10.473   9.291  1.00  0.00     0.335 C 
HETATM   13  N   UNL     1      41.875  -9.887  10.464  1.00  0.00    -0.337 N 
HETATM   14  O   UNL     1      43.421 -10.532   8.872  1.00  0.00    -0.246 OA
HETATM   15  H   UNL     1      40.916  -9.565  10.473  1.00  0.00     0.164 HD
HETATM   16  H   UNL     1      40.453 -11.409   9.144  1.00  0.00     0.192 HD
BRANCH  13  17
HETATM   17  C   UNL     1      42.816  -9.186  11.333  1.00  0.00     0.086 C 
HETATM   18  C   UNL     1      42.104  -8.199  12.271  1.00  0.00     0.025 C 
HETATM   19  C   UNL     1      41.295  -8.905  13.358  1.00  0.00     0.002 C 
HETATM   20  C   UNL     1      42.154  -9.887  14.148  1.00  0.00     0.000 C 
HETATM   21  C   UNL     1      42.855 -10.889  13.236  1.00  0.00     0.002 C 
HETATM   22  C   UNL     1      43.654 -10.193  12.132  1.00  0.00     0.025 C 
ENDBRANCH  13  17
ENDBRANCH   8  11
ENDBRANCH   4   7
BRANCH   1  23
HETATM   23  C   UNL     1      41.173 -14.801   1.637  1.00  0.00     0.230 C 
BRANCH  23  24
HETATM   24  C   UNL     1      41.568 -16.259   1.824  1.00  0.00     0.240 C 
HETATM   25  N   UNL     1      42.850 -16.447   2.310  1.00  0.00    -0.326 N 
HETATM   26  H   UNL     1      43.504 -15.672   2.301  1.00  0.00     0.169 HD
HETATM   27  O   UNL     1      40.745 -17.138   1.579  1.00  0.00    -0.271 OA
BRANCH  25  28
HETATM   28  C   UNL     1      43.399 -17.664   2.780  1.00  0.00     0.034 A 
HETATM   29  C   UNL     1      43.817 -18.705   1.949  1.00  0.00     0.030 A 
HETATM   30  C   UNL     1      44.311 -19.896   2.495  1.00  0.00     0.009 A 
HETATM   31  C   UNL     1      44.405 -20.062   3.879  1.00  0.00    -0.062 A 
HETATM   32  C   UNL     1      44.896 -21.357   4.457  1.00  0.00     0.048 C 
HETATM   33  C   UNL     1      43.976 -19.026   4.712  1.00  0.00     0.009 A 
HETATM   34  C   UNL     1      43.479 -17.837   4.168  1.00  0.00     0.030 A 
ENDBRANCH  25  28
ENDBRANCH  23  24
ENDBRANCH   1  23
TORSDOF 6
ENDMDL
MODEL 2
REMARK VINA RESULT:      -8.5      1.835      2.297
REMARK  6 active torsions:
REMARK  status: ('A' for Active; 'I' for Inactive)
REMARK    1  A    between atoms: C_5  and  N_6 
REMARK       I    between atoms: N_6  and  C_7 
REMARK    2  A    between atoms: C_7  and  C_8 
REMARK    3  A    between atoms: C_8  and  N_9 
REMARK    4  A    between atoms: C_12  and  C_13 
REMARK       I    between atoms: C_13  and  N_14 
REMARK    5  A    between atoms: N_14  and  N_15 
REMARK       I    between atoms: N_15  and  C_16 
REMARK       I    between atoms: C_16  and  N_17 
REMARK    6  A    between atoms: N_17  and  C_18 
ROOT
HETATM    1  N   UNL     1      42.866 -15.035   3.777  1.00  0.00    -0.358 N 
HETATM    2  C   UNL     1      43.131 -15.818   4.849  1.00  0.00     0.092 A 
HETATM    3  C   UNL     1      43.521 -15.254   6.055  1.00  0.00     0.034 A 
HETATM    4  C   UNL     1      43.638 -13.867   6.162  1.00  0.00     0.036 A 
HETATM    5  C   UNL     1      43.386 -13.077   5.043  1.00  0.00     0.034 A 
HETATM    6  C   UNL     1      42.999 -13.689   3.856  1.00  0.00     0.092 A 
ENDROOT
BRANCH   4   7
HETATM    7  C   UNL     1      43.909 -13.291   7.505  1.00  0.00     0.270 C 
HETATM    8  N   UNL     1      43.179 -12.183   7.873  1.00  0.00    -0.262 N 
HETATM    9  H   UNL     1      42.777 -11.531   7.198  1.00  0.00     0.190 HD
HETATM   10  O   UNL     1      44.743 -13.822   8.234  1.00  0.00    -0.266 OA
BRANCH   8  11
HETATM   11  N   UNL     1      43.467 -11.605   9.125  1.00  0.00    -0.249 N 
HETATM   12  C   UNL     1      42.529 -10.722   9.619  1.00  0.00     0.335 C 
HETATM   13  N   UNL     1      42.935 -10.166  10.803  1.00  0.00    -0.337 N 
HETATM   14  O   UNL     1      41.463 -10.506   9.053  1.00  0.00    -0.246 OA
HETATM   15  H   UNL     1      43.603 -10.719  11.323  1.00  0.00     0.164 HD
HETATM   16  H   UNL     1      44.446 -11.351   9.256  1.00  0.00     0.192 HD
BRANCH  13  17
HETATM   17  C   UNL     1      42.071  -9.276  11.574  1.00  0.00     0.086 C 
HETATM   18  C   UNL     1      40.921 -10.038  12.252  1.00  0.00     0.025 C 
HETATM   19  C   UNL     1      41.402 -10.919  13.403  1.00  0.00     0.002 C 
HETATM   20  C   UNL     1      42.204 -10.119  14.424  1.00  0.00     0.000 C 
HETATM   21  C   UNL     1      43.363  -9.369  13.774  1.00  0.00     0.002 C 
HETATM   22  C   UNL     1      42.896  -8.497  12.608  1.00  0.00     0.025 C 
ENDBRANCH  13  17
ENDBRANCH   8  11
ENDBRANCH   4   7
BRANCH   1  23
HETATM   23  C   UNL     1      42.296 -15.647   2.546  1.00  0.00     0.230 C 
BRANCH  23  24
HETATM   24  C   UNL     1      42.279 -17.154   2.761  1.00  0.00     0.240 C 
HETATM   25  N   UNL     1      43.455 -17.795   2.412  1.00  0.00    -0.326 N 
HETATM   26  H   UNL     1      44.143 -17.303   1.853  1.00  0.00     0.169 HD
HETATM   27  O   UNL     1      41.279 -17.677   3.247  1.00  0.00    -0.271 OA
BRANCH  25  28
HETATM   28  C   UNL     1      43.796 -19.138   2.704  1.00  0.00     0.034 A 
HETATM   29  C   UNL     1      43.578 -20.206   1.833  1.00  0.00     0.030 A 
HETATM   30  C   UNL     1      43.907 -21.513   2.213  1.00  0.00     0.009 A 
HETATM   31  C   UNL     1      44.467 -21.771   3.467  1.00  0.00    -0.062 A 
HETATM   32  C   UNL     1      44.778 -23.179   3.884  1.00  0.00     0.048 C 
HETATM   33  C   UNL     1      44.675 -20.705   4.345  1.00  0.00     0.009 A 
HETATM   34  C   UNL     1      44.344 -19.400   3.966  1.00  0.00     0.030 A 
ENDBRANCH  25  28
ENDBRANCH  23  24
ENDBRANCH   1  23
TORSDOF 6
ENDMDL
MODEL 3
REMARK VINA RESULT:      -8.4      1.142      1.812
REMARK  6 active torsions:
REMARK  status: ('A' for Active; 'I' for Inactive)
REMARK    1  A    between atoms: C_5  and  N_6 
REMARK       I    between atoms: N_6  and  C_7 
REMARK    2  A    between atoms: C_7  and  C_8 
REMARK    3  A    between atoms: C_8  and  N_9 
REMARK    4  A    between atoms: C_12  and  C_13 
REMARK       I    between atoms: C_13  and  N_14 
REMARK    5  A    between atoms: N_14  and  N_15 
REMARK       I    between atoms: N_15  and  C_16 
REMARK       I    between atoms: C_16  and  N_17 
REMARK    6  A    between atoms: N_17  and  C_18 
ROOT
HETATM    1  N   UNL     1      41.173 -14.395   2.627  1.00  0.00    -0.358 N 
HETATM    2  C   UNL     1      42.180 -13.491   2.643  1.00  0.00     0.092 A 
HETATM    3  C   UNL     1      42.568 -12.888   3.831  1.00  0.00     0.034 A 
HETATM    4  C   UNL     1      41.915 -13.220   5.018  1.00  0.00     0.036 A 
HETATM    5  C   UNL     1      40.864 -14.134   4.981  1.00  0.00     0.034 A 
HETATM    6  C   UNL     1      40.511 -14.710   3.766  1.00  0.00     0.092 A 
ENDROOT
BRANCH   4   7
HETATM    7  C   UNL     1      42.455 -12.672   6.290  1.00  0.00     0.270 C 
HETATM    8  N   UNL     1      41.684 -11.742   6.951  1.00  0.00    -0.262 N 
HETATM    9  H   UNL     1      41.005 -11.145   6.479  1.00  0.00     0.190 HD
HETATM   10  O   UNL     1      43.538 -13.071   6.708  1.00  0.00    -0.266 OA
BRANCH   8  11
HETATM   11  N   UNL     1      42.215 -11.184   8.131  1.00  0.00    -0.249 N 
HETATM   12  C   UNL     1      41.301 -10.835   9.105  1.00  0.00     0.335 C 
HETATM   13  N   UNL     1      41.910 -10.241  10.178  1.00  0.00    -0.337 N 
HETATM   14  O   UNL     1      40.102 -11.067   8.998  1.00  0.00    -0.246 OA
HETATM   15  H   UNL     1      42.885 -10.482  10.298  1.00  0.00     0.164 HD
HETATM   16  H   UNL     1      42.990 -10.539   7.981  1.00  0.00     0.192 HD
BRANCH  13  17
HETATM   17  C   UNL     1      41.168  -9.872  11.379  1.00  0.00     0.086 C 
HETATM   18  C   UNL     1      41.246 -10.963  12.459  1.00  0.00     0.025 C 
HETATM   19  C   UNL     1      42.634 -11.065  13.089  1.00  0.00     0.002 C 
HETATM   20  C   UNL     1      43.101  -9.720  13.636  1.00  0.00     0.000 C 
HETATM   21  C   UNL     1      43.050  -8.626  12.573  1.00  0.00     0.002 C 
HETATM   22  C   UNL     1      41.669  -8.527  11.923  1.00  0.00     0.025 C 
ENDBRANCH  13  17
ENDBRANCH   8  11
ENDBRANCH   4   7
BRANCH   1  23
HETATM   23  C   UNL     1      40.881 -15.144   1.376  1.00  0.00     0.230 C 
BRANCH  23  24
HETATM   24  C   UNL     1      41.292 -16.591   1.614  1.00  0.00     0.240 C 
HETATM   25  N   UNL     1      42.600 -16.752   2.037  1.00  0.00    -0.326 N 
HETATM   26  H   UNL     1      43.249 -15.978   1.953  1.00  0.00     0.169 HD
HETATM   27  O   UNL     1      40.460 -17.482   1.459  1.00  0.00    -0.271 OA
BRANCH  25  28
HETATM   28  C   UNL     1      43.178 -17.944   2.537  1.00  0.00     0.034 A 
HETATM   29  C   UNL     1      43.505 -19.046   1.744  1.00  0.00     0.030 A 
HETATM   30  C   UNL     1      44.038 -20.205   2.322  1.00  0.00     0.009 A 
HETATM   31  C   UNL     1      44.261 -20.277   3.700  1.00  0.00    -0.062 A 
HETATM   32  C   UNL     1      44.792 -21.538   4.317  1.00  0.00     0.048 C 
HETATM   33  C   UNL     1      43.923 -19.180   4.496  1.00  0.00     0.009 A 
HETATM   34  C   UNL     1      43.389 -18.023   3.919  1.00  0.00     0.030 A 
ENDBRANCH  25  28
ENDBRANCH  23  24
ENDBRANCH   1  23
TORSDOF 6
ENDMDL
MODEL 4
REMARK VINA RESULT:      -8.2      2.938      5.138
REMARK  6 active torsions:
REMARK  status: ('A' for Active; 'I' for Inactive)
REMARK    1  A    between atoms: C_5  and  N_6 
REMARK       I    between atoms: N_6  and  C_7 
REMARK    2  A    between atoms: C_7  and  C_8 
REMARK    3  A    between atoms: C_8  and  N_9 
REMARK    4  A    between atoms: C_12  and  C_13 
REMARK       I    between atoms: C_13  and  N_14 
REMARK    5  A    between atoms: N_14  and  N_15 
REMARK       I    between atoms: N_15  and  C_16 
REMARK       I    between atoms: C_16  and  N_17 
REMARK    6  A    between atoms: N_17  and  C_18 
ROOT
HETATM    1  N   UNL     1      43.316 -16.291   2.777  1.00  0.00    -0.358 N 
HETATM    2  C   UNL     1      43.433 -14.968   3.033  1.00  0.00     0.092 A 
HETATM    3  C   UNL     1      43.535 -14.508   4.339  1.00  0.00     0.034 A 
HETATM    4  C   UNL     1      43.519 -15.421   5.394  1.00  0.00     0.036 A 
HETATM    5  C   UNL     1      43.372 -16.778   5.115  1.00  0.00     0.034 A 
HETATM    6  C   UNL     1      43.273 -17.190   3.790  1.00  0.00     0.092 A 
ENDROOT
BRANCH   4   7
HETATM    7  C   UNL     1      43.782 -14.908   6.764  1.00  0.00     0.270 C 
HETATM    8  N   UNL     1      43.717 -13.545   6.949  1.00  0.00    -0.262 N 
HETATM    9  H   UNL     1      43.881 -12.873   6.200  1.00  0.00     0.190 HD
HETATM   10  O   UNL     1      44.025 -15.701   7.670  1.00  0.00    -0.266 OA
BRANCH   8  11
HETATM   11  N   UNL     1      44.014 -13.053   8.235  1.00  0.00    -0.249 N 
HETATM   12  C   UNL     1      43.474 -11.824   8.557  1.00  0.00     0.335 C 
HETATM   13  N   UNL     1      43.877 -11.405   9.797  1.00  0.00    -0.337 N 
HETATM   14  O   UNL     1      42.712 -11.222   7.809  1.00  0.00    -0.246 OA
HETATM   15  H   UNL     1      44.150 -12.148  10.426  1.00  0.00     0.164 HD
HETATM   16  H   UNL     1      44.971 -13.225   8.542  1.00  0.00     0.192 HD
BRANCH  13  17
HETATM   17  C   UNL     1      43.361 -10.181  10.403  1.00  0.00     0.086 C 
HETATM   18  C   UNL     1      41.831 -10.093  10.305  1.00  0.00     0.025 C 
HETATM   19  C   UNL     1      41.127 -11.097  11.217  1.00  0.00     0.002 C 
HETATM   20  C   UNL     1      41.589 -10.959  12.663  1.00  0.00     0.000 C 
HETATM   21  C   UNL     1      43.107 -11.063  12.786  1.00  0.00     0.002 C 
HETATM   22  C   UNL     1      43.823 -10.075  11.863  1.00  0.00     0.025 C 
ENDBRANCH  13  17
ENDBRANCH   8  11
ENDBRANCH   4   7
BRANCH   1  23
HETATM   23  C   UNL     1      43.370 -16.773   1.370  1.00  0.00     0.230 C 
BRANCH  23  24
HETATM   24  C   UNL     1      42.007 -16.498   0.750  1.00  0.00     0.240 C 
HETATM   25  N   UNL     1      41.984 -15.435  -0.135  1.00  0.00    -0.326 N 
HETATM   26  H   UNL     1      42.764 -14.787  -0.154  1.00  0.00     0.169 HD
HETATM   27  O   UNL     1      41.063 -17.233   1.032  1.00  0.00    -0.271 OA
BRANCH  25  28
HETATM   28  C   UNL     1      40.925 -15.094  -1.010  1.00  0.00     0.034 A 
HETATM   29  C   UNL     1      39.884 -14.226  -0.677  1.00  0.00     0.030 A 
HETATM   30  C   UNL     1      38.850 -13.973  -1.586  1.00  0.00     0.009 A 
HETATM   31  C   UNL     1      38.845 -14.575  -2.847  1.00  0.00    -0.062 A 
HETATM   32  C   UNL     1      37.712 -14.331  -3.800  1.00  0.00     0.048 C 
HETATM   33  C   UNL     1      39.880 -15.453  -3.178  1.00  0.00     0.009 A 
HETATM   34  C   UNL     1      40.911 -15.709  -2.269  1.00  0.00     0.030 A 
ENDBRANCH  25  28
ENDBRANCH  23  24
ENDBRANCH   1  23
TORSDOF 6
ENDMDL
MODEL 5
REMARK VINA RESULT:      -8.0      4.810      8.962
REMARK  6 active torsions:
REMARK  status: ('A' for Active; 'I' for Inactive)
REMARK    1  A    between atoms: C_5  and  N_6 
REMARK       I    between atoms: N_6  and  C_7 
REMARK    2  A    between atoms: C_7  and  C_8 
REMARK    3  A    between atoms: C_8  and  N_9 
REMARK    4  A    between atoms: C_12  and  C_13 
REMARK       I    between atoms: C_13  and  N_14 
REMARK    5  A    between atoms: N_14  and  N_15 
REMARK       I    between atoms: N_15  and  C_16 
REMARK       I    between atoms: C_16  and  N_17 
REMARK    6  A    between atoms: N_17  and  C_18 
ROOT
HETATM    1  N   UNL     1      43.105 -15.471   6.457  1.00  0.00    -0.358 N 
HETATM    2  C   UNL     1      41.833 -15.586   6.009  1.00  0.00     0.092 A 
HETATM    3  C   UNL     1      41.365 -14.761   4.996  1.00  0.00     0.034 A 
HETATM    4  C   UNL     1      42.216 -13.808   4.434  1.00  0.00     0.036 A 
HETATM    5  C   UNL     1      43.514 -13.686   4.924  1.00  0.00     0.034 A 
HETATM    6  C   UNL     1      43.937 -14.534   5.942  1.00  0.00     0.092 A 
ENDROOT
BRANCH   4   7
HETATM    7  C   UNL     1      41.730 -13.049   3.252  1.00  0.00     0.270 C 
HETATM    8  N   UNL     1      41.702 -13.713   2.046  1.00  0.00    -0.262 N 
HETATM    9  H   UNL     1      42.312 -14.502   1.831  1.00  0.00     0.190 HD
HETATM   10  O   UNL     1      41.361 -11.886   3.391  1.00  0.00    -0.266 OA
BRANCH   8  11
HETATM   11  N   UNL     1      41.288 -12.982   0.916  1.00  0.00    -0.249 N 
HETATM   12  C   UNL     1      41.314 -13.656  -0.288  1.00  0.00     0.335 C 
HETATM   13  N   UNL     1      40.962 -12.840  -1.331  1.00  0.00    -0.337 N 
HETATM   14  O   UNL     1      41.599 -14.845  -0.373  1.00  0.00    -0.246 OA
HETATM   15  H   UNL     1      40.387 -12.049  -1.073  1.00  0.00     0.164 HD
HETATM   16  H   UNL     1      41.603 -12.013   0.902  1.00  0.00     0.192 HD
BRANCH  13  17
HETATM   17  C   UNL     1      40.819 -13.346  -2.692  1.00  0.00     0.086 C 
HETATM   18  C   UNL     1      39.546 -12.816  -3.370  1.00  0.00     0.025 C 
HETATM   19  C   UNL     1      39.636 -11.328  -3.704  1.00  0.00     0.002 C 
HETATM   20  C   UNL     1      40.871 -11.016  -4.542  1.00  0.00     0.000 C 
HETATM   21  C   UNL     1      42.150 -11.517  -3.877  1.00  0.00     0.002 C 
HETATM   22  C   UNL     1      42.064 -13.002  -3.522  1.00  0.00     0.025 C 
ENDBRANCH  13  17
ENDBRANCH   8  11
ENDBRANCH   4   7
BRANCH   1  23
HETATM   23  C   UNL     1      43.632 -16.468   7.428  1.00  0.00     0.230 C 
BRANCH  23  24
HETATM   24  C   UNL     1      44.264 -17.592   6.618  1.00  0.00     0.240 C 
HETATM   25  N   UNL     1      43.368 -18.327   5.862  1.00  0.00    -0.326 N 
HETATM   26  H   UNL     1      42.374 -18.241   6.047  1.00  0.00     0.169 HD
HETATM   27  O   UNL     1      45.483 -17.742   6.654  1.00  0.00    -0.271 OA
BRANCH  25  28
HETATM   28  C   UNL     1      43.693 -19.273   4.862  1.00  0.00     0.034 A 
HETATM   29  C   UNL     1      44.391 -20.458   5.104  1.00  0.00     0.030 A 
HETATM   30  C   UNL     1      44.710 -21.324   4.051  1.00  0.00     0.009 A 
HETATM   31  C   UNL     1      44.329 -21.024   2.741  1.00  0.00    -0.062 A 
HETATM   32  C   UNL     1      44.711 -21.936   1.612  1.00  0.00     0.048 C 
HETATM   33  C   UNL     1      43.641 -19.834   2.494  1.00  0.00     0.009 A 
HETATM   34  C   UNL     1      43.324 -18.967   3.546  1.00  0.00     0.030 A 
ENDBRANCH  25  28
ENDBRANCH  23  24
ENDBRANCH   1  23
TORSDOF 6
ENDMDL
MODEL 6
REMARK VINA RESULT:      -7.8      6.308     11.375
REMARK  6 active torsions:
REMARK  status: ('A' for Active; 'I' for Inactive)
REMARK    1  A    between atoms: C_5  and  N_6 
REMARK       I    between atoms: N_6  and  C_7 
REMARK    2  A    between atoms: C_7  and  C_8 
REMARK    3  A    between atoms: C_8  and  N_9 
REMARK    4  A    between atoms: C_12  and  C_13 
REMARK       I    between atoms: C_13  and  N_14 
REMARK    5  A    between atoms: N_14  and  N_15 
REMARK       I    between atoms: N_15  and  C_16 
REMARK       I    between atoms: C_16  and  N_17 
REMARK    6  A    between atoms: N_17  and  C_18 
ROOT
HETATM    1  N   UNL     1      41.121 -14.970   2.104  1.00  0.00    -0.358 N 
HETATM    2  C   UNL     1      41.724 -14.743   0.914  1.00  0.00     0.092 A 
HETATM    3  C   UNL     1      40.984 -14.333  -0.185  1.00  0.00     0.034 A 
HETATM    4  C   UNL     1      39.606 -14.151  -0.060  1.00  0.00     0.036 A 
HETATM    5  C   UNL     1      38.996 -14.412   1.165  1.00  0.00     0.034 A 
HETATM    6  C   UNL     1      39.781 -14.823   2.238  1.00  0.00     0.092 A 
ENDROOT
BRANCH   4   7
HETATM    7  C   UNL     1      38.872 -13.566  -1.212  1.00  0.00     0.270 C 
HETATM    8  N   UNL     1      39.075 -14.144  -2.446  1.00  0.00    -0.262 N 
HETATM    9  H   UNL     1      39.926 -14.649  -2.690  1.00  0.00     0.190 HD
HETATM   10  O   UNL     1      38.110 -12.621  -1.027  1.00  0.00    -0.266 OA
BRANCH   8  11
HETATM   11  N   UNL     1      38.418 -13.562  -3.547  1.00  0.00    -0.249 N 
HETATM   12  C   UNL     1      37.257 -14.183  -3.962  1.00  0.00     0.335 C 
HETATM   13  N   UNL     1      36.735 -13.584  -5.077  1.00  0.00    -0.337 N 
HETATM   14  O   UNL     1      36.770 -15.136  -3.366  1.00  0.00    -0.246 OA
HETATM   15  H   UNL     1      37.000 -12.616  -5.201  1.00  0.00     0.164 HD
HETATM   16  H   UNL     1      39.041 -13.225  -4.281  1.00  0.00     0.192 HD
BRANCH  13  17
HETATM   17  C   UNL     1      35.456 -13.996  -5.648  1.00  0.00     0.086 C 
HETATM   18  C   UNL     1      34.275 -13.254  -5.005  1.00  0.00     0.025 C 
HETATM   19  C   UNL     1      34.221 -11.781  -5.405  1.00  0.00     0.002 C 
HETATM   20  C   UNL     1      34.213 -11.612  -6.921  1.00  0.00     0.000 C 
HETATM   21  C   UNL     1      35.390 -12.326  -7.579  1.00  0.00     0.002 C 
HETATM   22  C   UNL     1      35.464 -13.798  -7.170  1.00  0.00     0.025 C 
ENDBRANCH  13  17
ENDBRANCH   8  11
ENDBRANCH   4   7
BRANCH   1  23
HETATM   23  C   UNL     1      41.952 -15.253   3.305  1.00  0.00     0.230 C 
BRANCH  23  24
HETATM   24  C   UNL     1      42.021 -16.767   3.457  1.00  0.00     0.240 C 
HETATM   25  N   UNL     1      43.116 -17.354   2.850  1.00  0.00    -0.326 N 
HETATM   26  H   UNL     1      43.661 -16.819   2.182  1.00  0.00     0.169 HD
HETATM   27  O   UNL     1      41.157 -17.341   4.116  1.00  0.00    -0.271 OA
BRANCH  25  28
HETATM   28  C   UNL     1      43.547 -18.692   3.010  1.00  0.00     0.034 A 
HETATM   29  C   UNL     1      44.243 -19.160   4.127  1.00  0.00     0.030 A 
HETATM   30  C   UNL     1      44.671 -20.492   4.191  1.00  0.00     0.009 A 
HETATM   31  C   UNL     1      44.403 -21.379   3.145  1.00  0.00    -0.062 A 
HETATM   32  C   UNL     1      44.902 -22.793   3.203  1.00  0.00     0.048 C 
HETATM   33  C   UNL     1      43.718 -20.909   2.023  1.00  0.00     0.009 A 
HETATM   34  C   UNL     1      43.292 -19.578   1.957  1.00  0.00     0.030 A 
ENDBRANCH  25  28
ENDBRANCH  23  24
ENDBRANCH   1  23
TORSDOF 6
ENDMDL
MODEL 7
REMARK VINA RESULT:      -7.8      5.002      9.072
REMARK  6 active torsions:
REMARK  status: ('A' for Active; 'I' for Inactive)
REMARK    1  A    between atoms: C_5  and  N_6 
REMARK       I    between atoms: N_6  and  C_7 
REMARK    2  A    between atoms: C_7  and  C_8 
REMARK    3  A    between atoms: C_8  and  N_9 
REMARK    4  A    between atoms: C_12  and  C_13 
REMARK       I    between atoms: C_13  and  N_14 
REMARK    5  A    between atoms: N_14  and  N_15 
REMARK       I    between atoms: N_15  and  C_16 
REMARK       I    between atoms: C_16  and  N_17 
REMARK    6  A    between atoms: N_17  and  C_18 
ROOT
HETATM    1  N   UNL     1      41.764 -14.594   5.062  1.00  0.00    -0.358 N 
HETATM    2  C   UNL     1      40.634 -14.780   4.340  1.00  0.00     0.092 A 
HETATM    3  C   UNL     1      40.310 -13.917   3.302  1.00  0.00     0.034 A 
HETATM    4  C   UNL     1      41.159 -12.852   3.000  1.00  0.00     0.036 A 
HETATM    5  C   UNL     1      42.306 -12.660   3.769  1.00  0.00     0.034 A 
HETATM    6  C   UNL     1      42.587 -13.550   4.800  1.00  0.00     0.092 A 
ENDROOT
BRANCH   4   7
HETATM    7  C   UNL     1      40.861 -12.042   1.791  1.00  0.00     0.270 C 
HETATM    8  N   UNL     1      41.049 -12.646   0.567  1.00  0.00    -0.262 N 
HETATM    9  H   UNL     1      41.704 -13.414   0.420  1.00  0.00     0.190 HD
HETATM   10  O   UNL     1      40.448 -10.893   1.919  1.00  0.00    -0.266 OA
BRANCH   8  11
HETATM   11  N   UNL     1      40.814 -11.866  -0.581  1.00  0.00    -0.249 N 
HETATM   12  C   UNL     1      41.933 -11.414  -1.251  1.00  0.00     0.335 C 
HETATM   13  N   UNL     1      41.598 -10.610  -2.308  1.00  0.00    -0.337 N 
HETATM   14  O   UNL     1      43.070 -11.733  -0.925  1.00  0.00    -0.246 OA
HETATM   15  H   UNL     1      40.671 -10.766  -2.681  1.00  0.00     0.164 HD
HETATM   16  H   UNL     1      40.039 -11.208  -0.493  1.00  0.00     0.192 HD
BRANCH  13  17
HETATM   17  C   UNL     1      42.603 -10.089  -3.230  1.00  0.00     0.086 C 
HETATM   18  C   UNL     1      42.516 -10.759  -4.611  1.00  0.00     0.025 C 
HETATM   19  C   UNL     1      41.271 -10.335  -5.389  1.00  0.00     0.002 C 
HETATM   20  C   UNL     1      41.176  -8.818  -5.511  1.00  0.00     0.000 C 
HETATM   21  C   UNL     1      41.241  -8.134  -4.149  1.00  0.00     0.002 C 
HETATM   22  C   UNL     1      42.474  -8.565  -3.353  1.00  0.00     0.025 C 
ENDBRANCH  13  17
ENDBRANCH   8  11
ENDBRANCH   4   7
BRANCH   1  23
HETATM   23  C   UNL     1      42.172 -15.619   6.060  1.00  0.00     0.230 C 
BRANCH  23  24
HETATM   24  C   UNL     1      42.122 -16.971   5.361  1.00  0.00     0.240 C 
HETATM   25  N   UNL     1      43.159 -17.194   4.473  1.00  0.00    -0.326 N 
HETATM   26  H   UNL     1      43.734 -16.415   4.174  1.00  0.00     0.169 HD
HETATM   27  O   UNL     1      41.224 -17.759   5.649  1.00  0.00    -0.271 OA
BRANCH  25  28
HETATM   28  C   UNL     1      43.484 -18.426   3.857  1.00  0.00     0.034 A 
HETATM   29  C   UNL     1      44.364 -19.364   4.401  1.00  0.00     0.030 A 
HETATM   30  C   UNL     1      44.666 -20.542   3.708  1.00  0.00     0.009 A 
HETATM   31  C   UNL     1      44.086 -20.807   2.464  1.00  0.00    -0.062 A 
HETATM   32  C   UNL     1      44.447 -22.052   1.708  1.00  0.00     0.048 C 
HETATM   33  C   UNL     1      43.215 -19.864   1.912  1.00  0.00     0.009 A 
HETATM   34  C   UNL     1      42.916 -18.686   2.603  1.00  0.00     0.030 A 
ENDBRANCH  25  28
ENDBRANCH  23  24
ENDBRANCH   1  23
TORSDOF 6
ENDMDL
MODEL 8
REMARK VINA RESULT:      -7.7      2.528      5.040
REMARK  6 active torsions:
REMARK  status: ('A' for Active; 'I' for Inactive)
REMARK    1  A    between atoms: C_5  and  N_6 
REMARK       I    between atoms: N_6  and  C_7 
REMARK    2  A    between atoms: C_7  and  C_8 
REMARK    3  A    between atoms: C_8  and  N_9 
REMARK    4  A    between atoms: C_12  and  C_13 
REMARK       I    between atoms: C_13  and  N_14 
REMARK    5  A    between atoms: N_14  and  N_15 
REMARK       I    between atoms: N_15  and  C_16 
REMARK       I    between atoms: C_16  and  N_17 
REMARK    6  A    between atoms: N_17  and  C_18 
ROOT
HETATM    1  N   UNL     1      42.995 -15.780   3.553  1.00  0.00    -0.358 N 
HETATM    2  C   UNL     1      43.158 -16.475   4.703  1.00  0.00     0.092 A 
HETATM    3  C   UNL     1      43.536 -15.828   5.871  1.00  0.00     0.034 A 
HETATM    4  C   UNL     1      43.747 -14.449   5.858  1.00  0.00     0.036 A 
HETATM    5  C   UNL     1      43.600 -13.752   4.661  1.00  0.00     0.034 A 
HETATM    6  C   UNL     1      43.221 -14.445   3.516  1.00  0.00     0.092 A 
ENDROOT
BRANCH   4   7
HETATM    7  C   UNL     1      44.001 -13.769   7.155  1.00  0.00     0.270 C 
HETATM    8  N   UNL     1      43.389 -12.552   7.358  1.00  0.00    -0.262 N 
HETATM    9  H   UNL     1      43.113 -11.934   6.595  1.00  0.00     0.190 HD
HETATM   10  O   UNL     1      44.716 -14.312   7.992  1.00  0.00    -0.266 OA
BRANCH   8  11
HETATM   11  N   UNL     1      43.666 -11.883   8.566  1.00  0.00    -0.249 N 
HETATM   12  C   UNL     1      42.666 -11.064   9.052  1.00  0.00     0.335 C 
HETATM   13  N   UNL     1      43.060 -10.409  10.189  1.00  0.00    -0.337 N 
HETATM   14  O   UNL     1      41.566 -10.978   8.519  1.00  0.00    -0.246 OA
HETATM   15  H   UNL     1      43.795 -10.868  10.709  1.00  0.00     0.164 HD
HETATM   16  H   UNL     1      44.620 -11.532   8.645  1.00  0.00     0.192 HD
BRANCH  13  17
HETATM   17  C   UNL     1      42.144  -9.561  10.946  1.00  0.00     0.086 C 
HETATM   18  C   UNL     1      41.032 -10.379  11.622  1.00  0.00     0.025 C 
HETATM   19  C   UNL     1      41.551 -11.225  12.783  1.00  0.00     0.002 C 
HETATM   20  C   UNL     1      42.301 -10.376  13.804  1.00  0.00     0.000 C 
HETATM   21  C   UNL     1      43.423  -9.570  13.157  1.00  0.00     0.002 C 
HETATM   22  C   UNL     1      42.919  -8.732  11.981  1.00  0.00     0.025 C 
ENDBRANCH  13  17
ENDBRANCH   8  11
ENDBRANCH   4   7
BRANCH   1  23
HETATM   23  C   UNL     1      42.437 -16.464   2.356  1.00  0.00     0.230 C 
BRANCH  23  24
HETATM   24  C   UNL     1      41.510 -15.474   1.665  1.00  0.00     0.240 C 
HETATM   25  N   UNL     1      40.308 -15.263   2.319  1.00  0.00    -0.326 N 
HETATM   26  H   UNL     1      40.021 -15.904   3.050  1.00  0.00     0.169 HD
HETATM   27  O   UNL     1      41.888 -14.918   0.637  1.00  0.00    -0.271 OA
BRANCH  25  28
HETATM   28  C   UNL     1      39.362 -14.251   2.029  1.00  0.00     0.034 A 
HETATM   29  C   UNL     1      38.346 -14.379   1.080  1.00  0.00     0.030 A 
HETATM   30  C   UNL     1      37.475 -13.314   0.823  1.00  0.00     0.009 A 
HETATM   31  C   UNL     1      37.599 -12.107   1.516  1.00  0.00    -0.062 A 
HETATM   32  C   UNL     1      36.688 -10.956   1.205  1.00  0.00     0.048 C 
HETATM   33  C   UNL     1      38.622 -11.973   2.457  1.00  0.00     0.009 A 
HETATM   34  C   UNL     1      39.495 -13.036   2.713  1.00  0.00     0.030 A 
ENDBRANCH  25  28
ENDBRANCH  23  24
ENDBRANCH   1  23
TORSDOF 6
ENDMDL
MODEL 9
REMARK VINA RESULT:      -7.7      6.600     11.480
REMARK  6 active torsions:
REMARK  status: ('A' for Active; 'I' for Inactive)
REMARK    1  A    between atoms: C_5  and  N_6 
REMARK       I    between atoms: N_6  and  C_7 
REMARK    2  A    between atoms: C_7  and  C_8 
REMARK    3  A    between atoms: C_8  and  N_9 
REMARK    4  A    between atoms: C_12  and  C_13 
REMARK       I    between atoms: C_13  and  N_14 
REMARK    5  A    between atoms: N_14  and  N_15 
REMARK       I    between atoms: N_15  and  C_16 
REMARK       I    between atoms: C_16  and  N_17 
REMARK    6  A    between atoms: N_17  and  C_18 
ROOT
HETATM    1  N   UNL     1      41.159 -14.441   0.893  1.00  0.00    -0.358 N 
HETATM    2  C   UNL     1      41.681 -13.227   0.603  1.00  0.00     0.092 A 
HETATM    3  C   UNL     1      41.939 -12.865  -0.711  1.00  0.00     0.034 A 
HETATM    4  C   UNL     1      41.654 -13.761  -1.742  1.00  0.00     0.036 A 
HETATM    5  C   UNL     1      41.140 -15.017  -1.426  1.00  0.00     0.034 A 
HETATM    6  C   UNL     1      40.900 -15.334  -0.093  1.00  0.00     0.092 A 
ENDROOT
BRANCH   4   7
HETATM    7  C   UNL     1      41.800 -13.284  -3.142  1.00  0.00     0.270 C 
HETATM    8  N   UNL     1      42.682 -12.251  -3.366  1.00  0.00    -0.262 N 
HETATM    9  H   UNL     1      42.933 -11.568  -2.651  1.00  0.00     0.190 HD
HETATM   10  O   UNL     1      41.157 -13.828  -4.036  1.00  0.00    -0.266 OA
BRANCH   8  11
HETATM   11  N   UNL     1      42.786 -11.765  -4.684  1.00  0.00    -0.249 N 
HETATM   12  C   UNL     1      42.246 -10.516  -4.917  1.00  0.00     0.335 C 
HETATM   13  N   UNL     1      42.336 -10.167  -6.239  1.00  0.00    -0.337 N 
HETATM   14  O   UNL     1      41.773  -9.824  -4.023  1.00  0.00    -0.246 OA
HETATM   15  H   UNL     1      43.077 -10.629  -6.748  1.00  0.00     0.164 HD
HETATM   16  H   UNL     1      42.636 -12.469  -5.406  1.00  0.00     0.192 HD
BRANCH  13  17
HETATM   17  C   UNL     1      41.924  -8.852  -6.718  1.00  0.00     0.086 C 
HETATM   18  C   UNL     1      43.039  -7.807  -6.559  1.00  0.00     0.025 C 
HETATM   19  C   UNL     1      44.197  -8.034  -7.528  1.00  0.00     0.002 C 
HETATM   20  C   UNL     1      43.714  -8.100  -8.973  1.00  0.00     0.000 C 
HETATM   21  C   UNL     1      42.619  -9.146  -9.158  1.00  0.00     0.002 C 
HETATM   22  C   UNL     1      41.461  -8.938  -8.180  1.00  0.00     0.025 C 
ENDBRANCH  13  17
ENDBRANCH   8  11
ENDBRANCH   4   7
BRANCH   1  23
HETATM   23  C   UNL     1      40.743 -14.746   2.288  1.00  0.00     0.230 C 
BRANCH  23  24
HETATM   24  C   UNL     1      41.856 -15.573   2.918  1.00  0.00     0.240 C 
HETATM   25  N   UNL     1      41.593 -16.930   2.986  1.00  0.00    -0.326 N 
HETATM   26  H   UNL     1      40.646 -17.261   2.838  1.00  0.00     0.169 HD
HETATM   27  O   UNL     1      42.889 -15.011   3.274  1.00  0.00    -0.271 OA
BRANCH  25  28
HETATM   28  C   UNL     1      42.519 -17.948   3.315  1.00  0.00     0.034 A 
HETATM   29  C   UNL     1      43.163 -18.753   2.373  1.00  0.00     0.030 A 
HETATM   30  C   UNL     1      44.035 -19.768   2.783  1.00  0.00     0.009 A 
HETATM   31  C   UNL     1      44.286 -19.989   4.140  1.00  0.00    -0.062 A 
HETATM   32  C   UNL     1      45.190 -21.106   4.573  1.00  0.00     0.048 C 
HETATM   33  C   UNL     1      43.634 -19.192   5.084  1.00  0.00     0.009 A 
HETATM   34  C   UNL     1      42.760 -18.180   4.675  1.00  0.00     0.030 A 
ENDBRANCH  25  28
ENDBRANCH  23  24
ENDBRANCH   1  23
TORSDOF 6
ENDMDL
MODEL 10
REMARK VINA RESULT:      -7.6      3.028      5.268
REMARK  6 active torsions:
REMARK  status: ('A' for Active; 'I' for Inactive)
REMARK    1  A    between atoms: C_5  and  N_6 
REMARK       I    between atoms: N_6  and  C_7 
REMARK    2  A    between atoms: C_7  and  C_8 
REMARK    3  A    between atoms: C_8  and  N_9 
REMARK    4  A    between atoms: C_12  and  C_13 
REMARK       I    between atoms: C_13  and  N_14 
REMARK    5  A    between atoms: N_14  and  N_15 
REMARK       I    between atoms: N_15  and  C_16 
REMARK       I    between atoms: C_16  and  N_17 
REMARK    6  A    between atoms: N_17  and  C_18 
ROOT
HETATM    1  N   UNL     1      41.164 -13.718   2.899  1.00  0.00    -0.358 N 
HETATM    2  C   UNL     1      42.158 -13.124   3.599  1.00  0.00     0.092 A 
HETATM    3  C   UNL     1      41.877 -12.396   4.747  1.00  0.00     0.034 A 
HETATM    4  C   UNL     1      40.556 -12.280   5.182  1.00  0.00     0.036 A 
HETATM    5  C   UNL     1      39.541 -12.876   4.437  1.00  0.00     0.034 A 
HETATM    6  C   UNL     1      39.873 -13.593   3.293  1.00  0.00     0.092 A 
ENDROOT
BRANCH   4   7
HETATM    7  C   UNL     1      40.309 -11.625   6.493  1.00  0.00     0.270 C 
HETATM    8  N   UNL     1      41.348 -11.614   7.397  1.00  0.00    -0.262 N 
HETATM    9  H   UNL     1      42.091 -12.313   7.399  1.00  0.00     0.190 HD
HETATM   10  O   UNL     1      39.217 -11.109   6.715  1.00  0.00    -0.266 OA
BRANCH   8  11
HETATM   11  N   UNL     1      41.101 -11.037   8.658  1.00  0.00    -0.249 N 
HETATM   12  C   UNL     1      42.193 -10.488   9.301  1.00  0.00     0.335 C 
HETATM   13  N   UNL     1      41.861 -10.018  10.544  1.00  0.00    -0.337 N 
HETATM   14  O   UNL     1      43.301 -10.426   8.782  1.00  0.00    -0.246 OA
HETATM   15  H   UNL     1      40.886  -9.777  10.659  1.00  0.00     0.164 HD
HETATM   16  H   UNL     1      40.445 -11.558   9.239  1.00  0.00     0.192 HD
BRANCH  13  17
HETATM   17  C   UNL     1      42.822  -9.303  11.379  1.00  0.00     0.086 C 
HETATM   18  C   UNL     1      42.145  -8.222  12.235  1.00  0.00     0.025 C 
HETATM   19  C   UNL     1      41.287  -8.812  13.353  1.00  0.00     0.002 C 
HETATM   20  C   UNL     1      42.086  -9.776  14.224  1.00  0.00     0.000 C 
HETATM   21  C   UNL     1      42.752 -10.870  13.395  1.00  0.00     0.002 C 
HETATM   22  C   UNL     1      43.599 -10.291  12.261  1.00  0.00     0.025 C 
ENDBRANCH  13  17
ENDBRANCH   8  11
ENDBRANCH   4   7
BRANCH   1  23
HETATM   23  C   UNL     1      41.502 -14.622   1.768  1.00  0.00     0.230 C 
BRANCH  23  24
HETATM   24  C   UNL     1      41.168 -13.877   0.482  1.00  0.00     0.240 C 
HETATM   25  N   UNL     1      42.142 -12.988   0.066  1.00  0.00    -0.326 N 
HETATM   26  H   UNL     1      42.878 -12.719   0.710  1.00  0.00     0.169 HD
HETATM   27  O   UNL     1      40.116 -14.133  -0.100  1.00  0.00    -0.271 OA
BRANCH  25  28
HETATM   28  C   UNL     1      42.199 -12.332  -1.187  1.00  0.00     0.034 A 
HETATM   29  C   UNL     1      42.326 -12.993  -2.410  1.00  0.00     0.030 A 
HETATM   30  C   UNL     1      42.417 -12.268  -3.604  1.00  0.00     0.009 A 
HETATM   31  C   UNL     1      42.372 -10.871  -3.596  1.00  0.00    -0.062 A 
HETATM   32  C   UNL     1      42.513 -10.100  -4.876  1.00  0.00     0.048 C 
HETATM   33  C   UNL     1      42.257 -10.208  -2.373  1.00  0.00     0.009 A 
HETATM   34  C   UNL     1      42.169 -10.932  -1.179  1.00  0.00     0.030 A 
ENDBRANCH  25  28
ENDBRANCH  23  24
ENDBRANCH   1  23
TORSDOF 6
ENDMDL
