MODEL 1
REMARK VINA RESULT:      -8.5      0.000      0.000
REMARK  5 active torsions:
REMARK  status: ('A' for Active; 'I' for Inactive)
REMARK    1  A    between atoms: C_8  and  N_9 
REMARK    2  A    between atoms: C_12  and  N_13 
REMARK    3  A    between atoms: N_13  and  C_15 
REMARK    4  A    between atoms: C_15  and  C_16 
REMARK    5  A    between atoms: C_17  and  C_18 
ROOT
HETATM    1  N   UNL     1      43.778 -19.401   6.142  1.00  0.00    -0.067 N 
HETATM    2  H   UNL     1      42.951 -19.356   5.533  1.00  0.00     0.280 HD
HETATM    3  C   UNL     1      43.575 -20.594   7.050  1.00  0.00     0.270 C 
ENDROOT
BRANCH   1   4
HETATM    4  C   UNL     1      43.952 -18.050   6.865  1.00  0.00     0.190 C 
HETATM    5  C   UNL     1      44.447 -16.967   5.891  1.00  0.00     0.048 C 
HETATM    6  C   UNL     1      43.342 -16.410   4.992  1.00  0.00     0.099 C 
HETATM    7  N   UNL     1      42.225 -15.955   5.831  1.00  0.00    -0.268 NA
HETATM    8  C   UNL     1      41.624 -17.003   6.661  1.00  0.00     0.099 C 
HETATM    9  C   UNL     1      42.694 -17.558   7.598  1.00  0.00     0.048 C 
BRANCH   7  10
HETATM   10  C   UNL     1      41.309 -15.118   5.175  1.00  0.00     0.109 A 
HETATM   11  N   UNL     1      40.827 -14.033   5.808  1.00  0.00    -0.224 NA
HETATM   12  C   UNL     1      39.891 -13.282   5.177  1.00  0.00     0.102 A 
HETATM   13  N   UNL     1      39.416 -13.573   3.959  1.00  0.00    -0.348 N 
HETATM   14  C   UNL     1      39.327 -12.102   5.903  1.00  0.00     0.091 C 
HETATM   15  C   UNL     1      39.877 -14.646   3.298  1.00  0.00     0.009 A 
HETATM   16  H   UNL     1      38.698 -12.980   3.546  1.00  0.00     0.167 HD
HETATM   17  C   UNL     1      39.321 -14.961   1.946  1.00  0.00     0.068 C 
HETATM   18  C   UNL     1      40.842 -15.449   3.907  1.00  0.00     0.069 A 
ENDBRANCH   7  10
ENDBRANCH   1   4
BRANCH   1  19
HETATM   19  C   UNL     1      44.964 -19.678   5.201  1.00  0.00     0.277 C 
BRANCH  19  20
HETATM   20  C   UNL     1      44.667 -20.670   4.137  1.00  0.00     0.016 A 
HETATM   21  C   UNL     1      44.044 -20.450   2.870  1.00  0.00     0.096 A 
HETATM   22  N   UNL     1      43.847 -21.607   2.232  1.00  0.00    -0.174 NA
HETATM   23  N   UNL     1      44.441 -22.535   2.991  1.00  0.00    -0.288 N 
HETATM   24  H   UNL     1      44.464 -23.494   2.653  1.00  0.00     0.188 HD
HETATM   25  C   UNL     1      44.919 -22.028   4.165  1.00  0.00     0.120 A 
BRANCH  21  26
HETATM   26  C   UNL     1      43.587 -19.194   2.284  1.00  0.00    -0.005 A 
HETATM   27  C   UNL     1      44.498 -18.185   1.948  1.00  0.00     0.014 A 
HETATM   28  C   UNL     1      44.051 -16.996   1.366  1.00  0.00     0.001 A 
HETATM   29  C   UNL     1      42.692 -16.813   1.111  1.00  0.00     0.000 A 
HETATM   30  C   UNL     1      41.780 -17.818   1.429  1.00  0.00     0.001 A 
HETATM   31  C   UNL     1      42.226 -19.005   2.012  1.00  0.00     0.014 A 
ENDBRANCH  21  26
ENDBRANCH  19  20
ENDBRANCH   1  19
TORSDOF 5
ENDMDL
MODEL 2
REMARK VINA RESULT:      -8.2      3.357      5.742
REMARK  5 active torsions:
REMARK  status: ('A' for Active; 'I' for Inactive)
REMARK    1  A    between atoms: C_8  and  N_9 
REMARK    2  A    between atoms: C_12  and  N_13 
REMARK    3  A    between atoms: N_13  and  C_15 
REMARK    4  A    between atoms: C_15  and  C_16 
REMARK    5  A    between atoms: C_17  and  C_18 
ROOT
HETATM    1  N   UNL     1      41.534 -16.759   3.705  1.00  0.00    -0.067 N 
HETATM    2  H   UNL     1      40.778 -17.087   3.090  1.00  0.00     0.280 HD
HETATM    3  C   UNL     1      40.948 -15.639   4.539  1.00  0.00     0.270 C 
ENDROOT
BRANCH   1   4
HETATM    4  C   UNL     1      42.754 -16.367   2.849  1.00  0.00     0.190 C 
HETATM    5  C   UNL     1      42.804 -17.195   1.553  1.00  0.00     0.048 C 
HETATM    6  C   UNL     1      41.824 -16.707   0.485  1.00  0.00     0.099 C 
HETATM    7  N   UNL     1      42.041 -15.273   0.253  1.00  0.00    -0.268 NA
HETATM    8  C   UNL     1      41.849 -14.432   1.437  1.00  0.00     0.099 C 
HETATM    9  C   UNL     1      42.839 -14.869   2.514  1.00  0.00     0.048 C 
BRANCH   7  10
HETATM   10  C   UNL     1      41.463 -14.781  -0.928  1.00  0.00     0.109 A 
HETATM   11  N   UNL     1      40.757 -15.609  -1.718  1.00  0.00    -0.224 NA
HETATM   12  C   UNL     1      40.269 -15.123  -2.886  1.00  0.00     0.102 A 
HETATM   13  N   UNL     1      40.464 -13.863  -3.295  1.00  0.00    -0.348 N 
HETATM   14  C   UNL     1      39.522 -16.060  -3.782  1.00  0.00     0.091 C 
HETATM   15  C   UNL     1      41.162 -13.009  -2.530  1.00  0.00     0.009 A 
HETATM   16  H   UNL     1      40.088 -13.564  -4.194  1.00  0.00     0.167 HD
HETATM   17  C   UNL     1      41.381 -11.612  -3.014  1.00  0.00     0.068 C 
HETATM   18  C   UNL     1      41.683 -13.464  -1.318  1.00  0.00     0.069 A 
ENDBRANCH   7  10
ENDBRANCH   1   4
BRANCH   1  19
HETATM   19  C   UNL     1      41.863 -17.951   4.621  1.00  0.00     0.277 C 
BRANCH  19  20
HETATM   20  C   UNL     1      43.185 -17.847   5.289  1.00  0.00     0.016 A 
HETATM   21  C   UNL     1      44.268 -18.777   5.258  1.00  0.00     0.096 A 
HETATM   22  N   UNL     1      45.252 -18.386   6.075  1.00  0.00    -0.174 NA
HETATM   23  N   UNL     1      44.885 -17.178   6.516  1.00  0.00    -0.288 N 
HETATM   24  H   UNL     1      45.530 -16.664   7.112  1.00  0.00     0.188 HD
HETATM   25  C   UNL     1      43.634 -16.823   6.101  1.00  0.00     0.120 A 
BRANCH  21  26
HETATM   26  C   UNL     1      44.369 -20.038   4.530  1.00  0.00    -0.005 A 
HETATM   27  C   UNL     1      44.248 -20.073   3.136  1.00  0.00     0.014 A 
HETATM   28  C   UNL     1      44.368 -21.283   2.447  1.00  0.00     0.001 A 
HETATM   29  C   UNL     1      44.617 -22.462   3.149  1.00  0.00     0.000 A 
HETATM   30  C   UNL     1      44.753 -22.434   4.535  1.00  0.00     0.001 A 
HETATM   31  C   UNL     1      44.631 -21.226   5.224  1.00  0.00     0.014 A 
ENDBRANCH  21  26
ENDBRANCH  19  20
ENDBRANCH   1  19
TORSDOF 5
ENDMDL
MODEL 3
REMARK VINA RESULT:      -8.1      3.167      5.477
REMARK  5 active torsions:
REMARK  status: ('A' for Active; 'I' for Inactive)
REMARK    1  A    between atoms: C_8  and  N_9 
REMARK    2  A    between atoms: C_12  and  N_13 
REMARK    3  A    between atoms: N_13  and  C_15 
REMARK    4  A    between atoms: C_15  and  C_16 
REMARK    5  A    between atoms: C_17  and  C_18 
ROOT
HETATM    1  N   UNL     1      41.560 -16.794   3.765  1.00  0.00    -0.067 N 
HETATM    2  H   UNL     1      40.786 -17.126   3.176  1.00  0.00     0.280 HD
HETATM    3  C   UNL     1      41.002 -15.667   4.607  1.00  0.00     0.270 C 
ENDROOT
BRANCH   1   4
HETATM    4  C   UNL     1      42.755 -16.413   2.870  1.00  0.00     0.190 C 
HETATM    5  C   UNL     1      42.739 -17.219   1.560  1.00  0.00     0.048 C 
HETATM    6  C   UNL     1      41.729 -16.695   0.538  1.00  0.00     0.099 C 
HETATM    7  N   UNL     1      41.967 -15.262   0.320  1.00  0.00    -0.268 NA
HETATM    8  C   UNL     1      41.837 -14.436   1.525  1.00  0.00     0.099 C 
HETATM    9  C   UNL     1      42.857 -14.912   2.556  1.00  0.00     0.048 C 
BRANCH   7  10
HETATM   10  C   UNL     1      41.354 -14.738  -0.829  1.00  0.00     0.109 A 
HETATM   11  N   UNL     1      41.243 -13.406  -0.976  1.00  0.00    -0.224 NA
HETATM   12  C   UNL     1      40.585 -12.931  -2.061  1.00  0.00     0.102 A 
HETATM   13  N   UNL     1      40.031 -13.723  -2.989  1.00  0.00    -0.348 N 
HETATM   14  C   UNL     1      40.427 -11.449  -2.198  1.00  0.00     0.091 C 
HETATM   15  C   UNL     1      40.125 -15.057  -2.875  1.00  0.00     0.009 A 
HETATM   16  H   UNL     1      39.532 -13.304  -3.772  1.00  0.00     0.167 HD
HETATM   17  C   UNL     1      39.486 -15.922  -3.913  1.00  0.00     0.068 C 
HETATM   18  C   UNL     1      40.795 -15.593  -1.774  1.00  0.00     0.069 A 
ENDBRANCH   7  10
ENDBRANCH   1   4
BRANCH   1  19
HETATM   19  C   UNL     1      41.914 -17.979   4.681  1.00  0.00     0.277 C 
BRANCH  19  20
HETATM   20  C   UNL     1      43.243 -17.858   5.332  1.00  0.00     0.016 A 
HETATM   21  C   UNL     1      44.337 -18.775   5.289  1.00  0.00     0.096 A 
HETATM   22  N   UNL     1      45.326 -18.370   6.093  1.00  0.00    -0.174 NA
HETATM   23  N   UNL     1      44.949 -17.166   6.538  1.00  0.00    -0.288 N 
HETATM   24  H   UNL     1      45.595 -16.644   7.125  1.00  0.00     0.188 HD
HETATM   25  C   UNL     1      43.689 -16.828   6.138  1.00  0.00     0.120 A 
BRANCH  21  26
HETATM   26  C   UNL     1      44.445 -20.035   4.561  1.00  0.00    -0.005 A 
HETATM   27  C   UNL     1      44.629 -21.244   5.243  1.00  0.00     0.014 A 
HETATM   28  C   UNL     1      44.708 -22.447   4.537  1.00  0.00     0.001 A 
HETATM   29  C   UNL     1      44.596 -22.448   3.147  1.00  0.00     0.000 A 
HETATM   30  C   UNL     1      44.398 -21.251   2.462  1.00  0.00     0.001 A 
HETATM   31  C   UNL     1      44.321 -20.049   3.166  1.00  0.00     0.014 A 
ENDBRANCH  21  26
ENDBRANCH  19  20
ENDBRANCH   1  19
TORSDOF 5
ENDMDL
MODEL 4
REMARK VINA RESULT:      -8.1      3.901      7.830
REMARK  5 active torsions:
REMARK  status: ('A' for Active; 'I' for Inactive)
REMARK    1  A    between atoms: C_8  and  N_9 
REMARK    2  A    between atoms: C_12  and  N_13 
REMARK    3  A    between atoms: N_13  and  C_15 
REMARK    4  A    between atoms: C_15  and  C_16 
REMARK    5  A    between atoms: C_17  and  C_18 
ROOT
HETATM    1  N   UNL     1      41.104 -14.139   1.231  1.00  0.00    -0.067 N 
HETATM    2  H   UNL     1      42.109 -14.179   1.020  1.00  0.00     0.280 HD
HETATM    3  C   UNL     1      40.987 -13.657   2.661  1.00  0.00     0.270 C 
ENDROOT
BRANCH   1   4
HETATM    4  C   UNL     1      40.467 -15.514   0.950  1.00  0.00     0.190 C 
HETATM    5  C   UNL     1      41.406 -16.390   0.102  1.00  0.00     0.048 C 
HETATM    6  C   UNL     1      42.545 -17.015   0.910  1.00  0.00     0.099 C 
HETATM    7  N   UNL     1      41.979 -17.734   2.059  1.00  0.00    -0.268 NA
HETATM    8  C   UNL     1      41.204 -16.895   2.977  1.00  0.00     0.099 C 
HETATM    9  C   UNL     1      40.035 -16.282   2.209  1.00  0.00     0.048 C 
BRANCH   7  10
HETATM   10  C   UNL     1      42.864 -18.631   2.677  1.00  0.00     0.109 A 
HETATM   11  N   UNL     1      43.437 -18.300   3.848  1.00  0.00    -0.224 NA
HETATM   12  C   UNL     1      44.342 -19.155   4.386  1.00  0.00     0.102 A 
HETATM   13  N   UNL     1      44.699 -20.307   3.805  1.00  0.00    -0.348 N 
HETATM   14  C   UNL     1      45.008 -18.762   5.667  1.00  0.00     0.091 C 
HETATM   15  C   UNL     1      44.146 -20.670   2.637  1.00  0.00     0.009 A 
HETATM   16  H   UNL     1      45.400 -20.897   4.250  1.00  0.00     0.167 HD
HETATM   17  C   UNL     1      44.571 -21.951   1.997  1.00  0.00     0.068 C 
HETATM   18  C   UNL     1      43.209 -19.822   2.044  1.00  0.00     0.069 A 
ENDBRANCH   7  10
ENDBRANCH   1   4
BRANCH   1  19
HETATM   19  C   UNL     1      40.531 -13.064   0.289  1.00  0.00     0.277 C 
BRANCH  19  20
HETATM   20  C   UNL     1      41.390 -12.779  -0.888  1.00  0.00     0.016 A 
HETATM   21  C   UNL     1      41.230 -13.235  -2.232  1.00  0.00     0.096 A 
HETATM   22  N   UNL     1      42.267 -12.859  -2.987  1.00  0.00    -0.174 NA
HETATM   23  N   UNL     1      43.009 -12.072  -2.200  1.00  0.00    -0.288 N 
HETATM   24  H   UNL     1      43.828 -11.621  -2.602  1.00  0.00     0.188 HD
HETATM   25  C   UNL     1      42.543 -12.020  -0.918  1.00  0.00     0.120 A 
BRANCH  21  26
HETATM   26  C   UNL     1      40.162 -14.055  -2.798  1.00  0.00    -0.005 A 
HETATM   27  C   UNL     1      38.869 -13.540  -2.954  1.00  0.00     0.014 A 
HETATM   28  C   UNL     1      37.861 -14.327  -3.516  1.00  0.00     0.001 A 
HETATM   29  C   UNL     1      38.142 -15.628  -3.933  1.00  0.00     0.000 A 
HETATM   30  C   UNL     1      39.430 -16.142  -3.794  1.00  0.00     0.001 A 
HETATM   31  C   UNL     1      40.437 -15.358  -3.231  1.00  0.00     0.014 A 
ENDBRANCH  21  26
ENDBRANCH  19  20
ENDBRANCH   1  19
TORSDOF 5
ENDMDL
MODEL 5
REMARK VINA RESULT:      -8.0      3.918      8.002
REMARK  5 active torsions:
REMARK  status: ('A' for Active; 'I' for Inactive)
REMARK    1  A    between atoms: C_8  and  N_9 
REMARK    2  A    between atoms: C_12  and  N_13 
REMARK    3  A    between atoms: N_13  and  C_15 
REMARK    4  A    between atoms: C_15  and  C_16 
REMARK    5  A    between atoms: C_17  and  C_18 
ROOT
HETATM    1  N   UNL     1      41.011 -14.087   1.209  1.00  0.00    -0.067 N 
HETATM    2  H   UNL     1      42.030 -14.091   1.074  1.00  0.00     0.280 HD
HETATM    3  C   UNL     1      40.772 -13.621   2.630  1.00  0.00     0.270 C 
ENDROOT
BRANCH   1   4
HETATM    4  C   UNL     1      40.446 -15.482   0.875  1.00  0.00     0.190 C 
HETATM    5  C   UNL     1      41.441 -16.286   0.021  1.00  0.00     0.048 C 
HETATM    6  C   UNL     1      42.593 -16.882   0.832  1.00  0.00     0.099 C 
HETATM    7  N   UNL     1      42.041 -17.661   1.947  1.00  0.00    -0.268 NA
HETATM    8  C   UNL     1      41.209 -16.888   2.874  1.00  0.00     0.099 C 
HETATM    9  C   UNL     1      40.028 -16.307   2.102  1.00  0.00     0.048 C 
BRANCH   7  10
HETATM   10  C   UNL     1      42.956 -18.534   2.556  1.00  0.00     0.109 A 
HETATM   11  N   UNL     1      43.264 -19.698   1.957  1.00  0.00    -0.224 NA
HETATM   12  C   UNL     1      44.097 -20.553   2.601  1.00  0.00     0.102 A 
HETATM   13  N   UNL     1      44.619 -20.299   3.807  1.00  0.00    -0.348 N 
HETATM   14  C   UNL     1      44.403 -21.865   1.949  1.00  0.00     0.091 C 
HETATM   15  C   UNL     1      44.335 -19.146   4.433  1.00  0.00     0.009 A 
HETATM   16  H   UNL     1      45.223 -20.991   4.248  1.00  0.00     0.167 HD
HETATM   17  C   UNL     1      44.915 -18.891   5.786  1.00  0.00     0.068 C 
HETATM   18  C   UNL     1      43.482 -18.234   3.808  1.00  0.00     0.069 A 
ENDBRANCH   7  10
ENDBRANCH   1   4
BRANCH   1  19
HETATM   19  C   UNL     1      40.473 -13.026   0.233  1.00  0.00     0.277 C 
BRANCH  19  20
HETATM   20  C   UNL     1      41.357 -12.782  -0.934  1.00  0.00     0.016 A 
HETATM   21  C   UNL     1      41.209 -13.260  -2.272  1.00  0.00     0.096 A 
HETATM   22  N   UNL     1      42.267 -12.920  -3.016  1.00  0.00    -0.174 NA
HETATM   23  N   UNL     1      43.011 -12.133  -2.232  1.00  0.00    -0.288 N 
HETATM   24  H   UNL     1      43.846 -11.707  -2.628  1.00  0.00     0.188 HD
HETATM   25  C   UNL     1      42.526 -12.046  -0.959  1.00  0.00     0.120 A 
BRANCH  21  26
HETATM   26  C   UNL     1      40.135 -14.069  -2.840  1.00  0.00    -0.005 A 
HETATM   27  C   UNL     1      38.842 -13.548  -2.979  1.00  0.00     0.014 A 
HETATM   28  C   UNL     1      37.827 -14.324  -3.544  1.00  0.00     0.001 A 
HETATM   29  C   UNL     1      38.100 -15.620  -3.979  1.00  0.00     0.000 A 
HETATM   30  C   UNL     1      39.387 -16.140  -3.858  1.00  0.00     0.001 A 
HETATM   31  C   UNL     1      40.402 -15.367  -3.292  1.00  0.00     0.014 A 
ENDBRANCH  21  26
ENDBRANCH  19  20
ENDBRANCH   1  19
TORSDOF 5
ENDMDL
MODEL 6
REMARK VINA RESULT:      -8.0      2.879      4.775
REMARK  5 active torsions:
REMARK  status: ('A' for Active; 'I' for Inactive)
REMARK    1  A    between atoms: C_8  and  N_9 
REMARK    2  A    between atoms: C_12  and  N_13 
REMARK    3  A    between atoms: N_13  and  C_15 
REMARK    4  A    between atoms: C_15  and  C_16 
REMARK    5  A    between atoms: C_17  and  C_18 
ROOT
HETATM    1  N   UNL     1      41.994 -15.696   5.360  1.00  0.00    -0.067 N 
HETATM    2  H   UNL     1      41.953 -16.173   4.450  1.00  0.00     0.280 HD
HETATM    3  C   UNL     1      40.977 -16.382   6.248  1.00  0.00     0.270 C 
ENDROOT
BRANCH   1   4
HETATM    4  C   UNL     1      41.770 -14.185   5.155  1.00  0.00     0.190 C 
HETATM    5  C   UNL     1      43.012 -13.527   4.529  1.00  0.00     0.048 C 
HETATM    6  C   UNL     1      43.135 -13.773   3.024  1.00  0.00     0.099 C 
HETATM    7  N   UNL     1      41.884 -13.369   2.368  1.00  0.00    -0.268 NA
HETATM    8  C   UNL     1      40.695 -14.090   2.832  1.00  0.00     0.099 C 
HETATM    9  C   UNL     1      40.523 -13.836   4.328  1.00  0.00     0.048 C 
BRANCH   7  10
HETATM   10  C   UNL     1      41.981 -13.215   0.976  1.00  0.00     0.109 A 
HETATM   11  N   UNL     1      42.496 -12.082   0.466  1.00  0.00    -0.224 NA
HETATM   12  C   UNL     1      42.512 -11.931  -0.881  1.00  0.00     0.102 A 
HETATM   13  N   UNL     1      42.032 -12.851  -1.728  1.00  0.00    -0.348 N 
HETATM   14  C   UNL     1      43.047 -10.651  -1.442  1.00  0.00     0.091 C 
HETATM   15  C   UNL     1      41.513 -13.994  -1.253  1.00  0.00     0.009 A 
HETATM   16  H   UNL     1      42.055 -12.670  -2.730  1.00  0.00     0.167 HD
HETATM   17  C   UNL     1      40.968 -15.000  -2.215  1.00  0.00     0.068 C 
HETATM   18  C   UNL     1      41.475 -14.194   0.127  1.00  0.00     0.069 A 
ENDBRANCH   7  10
ENDBRANCH   1   4
BRANCH   1  19
HETATM   19  C   UNL     1      43.407 -15.975   5.904  1.00  0.00     0.277 C 
BRANCH  19  20
HETATM   20  C   UNL     1      43.527 -17.264   6.630  1.00  0.00     0.016 A 
HETATM   21  C   UNL     1      43.637 -18.580   6.085  1.00  0.00     0.096 A 
HETATM   22  N   UNL     1      43.613 -19.498   7.057  1.00  0.00    -0.174 NA
HETATM   23  N   UNL     1      43.625 -18.803   8.199  1.00  0.00    -0.288 N 
HETATM   24  H   UNL     1      43.673 -19.316   9.076  1.00  0.00     0.188 HD
HETATM   25  C   UNL     1      43.539 -17.456   7.998  1.00  0.00     0.120 A 
BRANCH  21  26
HETATM   26  C   UNL     1      43.705 -18.986   4.685  1.00  0.00    -0.005 A 
HETATM   27  C   UNL     1      44.659 -19.916   4.253  1.00  0.00     0.014 A 
HETATM   28  C   UNL     1      44.700 -20.313   2.914  1.00  0.00     0.001 A 
HETATM   29  C   UNL     1      43.783 -19.791   2.003  1.00  0.00     0.000 A 
HETATM   30  C   UNL     1      42.821 -18.876   2.428  1.00  0.00     0.001 A 
HETATM   31  C   UNL     1      42.780 -18.477   3.764  1.00  0.00     0.014 A 
ENDBRANCH  21  26
ENDBRANCH  19  20
ENDBRANCH   1  19
TORSDOF 5
ENDMDL
MODEL 7
REMARK VINA RESULT:      -8.0      1.875      7.672
REMARK  5 active torsions:
REMARK  status: ('A' for Active; 'I' for Inactive)
REMARK    1  A    between atoms: C_8  and  N_9 
REMARK    2  A    between atoms: C_12  and  N_13 
REMARK    3  A    between atoms: N_13  and  C_15 
REMARK    4  A    between atoms: C_15  and  C_16 
REMARK    5  A    between atoms: C_17  and  C_18 
ROOT
HETATM    1  N   UNL     1      40.177 -14.406   1.903  1.00  0.00    -0.067 N 
HETATM    2  H   UNL     1      40.300 -14.857   2.819  1.00  0.00     0.280 HD
HETATM    3  C   UNL     1      38.752 -14.685   1.477  1.00  0.00     0.270 C 
ENDROOT
BRANCH   1   4
HETATM    4  C   UNL     1      41.262 -14.919   0.934  1.00  0.00     0.190 C 
HETATM    5  C   UNL     1      42.662 -14.786   1.557  1.00  0.00     0.048 C 
HETATM    6  C   UNL     1      42.976 -15.878   2.581  1.00  0.00     0.099 C 
HETATM    7  N   UNL     1      42.750 -17.192   1.964  1.00  0.00    -0.268 NA
HETATM    8  C   UNL     1      41.378 -17.414   1.496  1.00  0.00     0.099 C 
HETATM    9  C   UNL     1      41.044 -16.360   0.445  1.00  0.00     0.048 C 
BRANCH   7  10
HETATM   10  C   UNL     1      43.323 -18.268   2.661  1.00  0.00     0.109 A 
HETATM   11  N   UNL     1      43.736 -18.094   3.929  1.00  0.00    -0.224 NA
HETATM   12  C   UNL     1      44.349 -19.130   4.553  1.00  0.00     0.102 A 
HETATM   13  N   UNL     1      44.571 -20.312   3.967  1.00  0.00    -0.348 N 
HETATM   14  C   UNL     1      44.845 -18.918   5.949  1.00  0.00     0.091 C 
HETATM   15  C   UNL     1      44.170 -20.521   2.703  1.00  0.00     0.009 A 
HETATM   16  H   UNL     1      45.056 -21.045   4.483  1.00  0.00     0.167 HD
HETATM   17  C   UNL     1      44.444 -21.843   2.062  1.00  0.00     0.068 C 
HETATM   18  C   UNL     1      43.534 -19.484   2.019  1.00  0.00     0.069 A 
ENDBRANCH   7  10
ENDBRANCH   1   4
BRANCH   1  19
HETATM   19  C   UNL     1      40.340 -12.898   2.163  1.00  0.00     0.277 C 
BRANCH  19  20
HETATM   20  C   UNL     1      39.628 -12.418   3.374  1.00  0.00     0.016 A 
HETATM   21  C   UNL     1      39.815 -12.823   4.730  1.00  0.00     0.096 A 
HETATM   22  N   UNL     1      38.909 -12.247   5.527  1.00  0.00    -0.174 NA
HETATM   23  N   UNL     1      38.243 -11.393   4.742  1.00  0.00    -0.288 N 
HETATM   24  H   UNL     1      37.537 -10.796   5.167  1.00  0.00     0.188 HD
HETATM   25  C   UNL     1      38.613 -11.482   3.432  1.00  0.00     0.120 A 
BRANCH  21  26
HETATM   26  C   UNL     1      40.780 -13.774   5.275  1.00  0.00    -0.005 A 
HETATM   27  C   UNL     1      40.400 -15.086   5.583  1.00  0.00     0.014 A 
HETATM   28  C   UNL     1      41.338 -15.993   6.083  1.00  0.00     0.001 A 
HETATM   29  C   UNL     1      42.661 -15.595   6.269  1.00  0.00     0.000 A 
HETATM   30  C   UNL     1      43.051 -14.296   5.951  1.00  0.00     0.001 A 
HETATM   31  C   UNL     1      42.115 -13.388   5.454  1.00  0.00     0.014 A 
ENDBRANCH  21  26
ENDBRANCH  19  20
ENDBRANCH   1  19
TORSDOF 5
ENDMDL
MODEL 8
REMARK VINA RESULT:      -7.7      4.108      7.781
REMARK  5 active torsions:
REMARK  status: ('A' for Active; 'I' for Inactive)
REMARK    1  A    between atoms: C_8  and  N_9 
REMARK    2  A    between atoms: C_12  and  N_13 
REMARK    3  A    between atoms: N_13  and  C_15 
REMARK    4  A    between atoms: C_15  and  C_16 
REMARK    5  A    between atoms: C_17  and  C_18 
ROOT
HETATM    1  N   UNL     1      40.486 -13.956   0.969  1.00  0.00    -0.067 N 
HETATM    2  H   UNL     1      41.357 -14.431   0.702  1.00  0.00     0.280 HD
HETATM    3  C   UNL     1      40.840 -12.498   1.172  1.00  0.00     0.270 C 
ENDROOT
BRANCH   1   4
HETATM    4  C   UNL     1      39.879 -14.659   2.200  1.00  0.00     0.190 C 
HETATM    5  C   UNL     1      39.650 -16.154   1.920  1.00  0.00     0.048 C 
HETATM    6  C   UNL     1      40.930 -16.989   2.000  1.00  0.00     0.099 C 
HETATM    7  N   UNL     1      41.580 -16.745   3.295  1.00  0.00    -0.268 NA
HETATM    8  C   UNL     1      41.956 -15.348   3.531  1.00  0.00     0.099 C 
HETATM    9  C   UNL     1      40.694 -14.490   3.492  1.00  0.00     0.048 C 
BRANCH   7  10
HETATM   10  C   UNL     1      42.559 -17.690   3.641  1.00  0.00     0.109 A 
HETATM   11  N   UNL     1      43.306 -17.502   4.743  1.00  0.00    -0.224 NA
HETATM   12  C   UNL     1      44.290 -18.394   5.014  1.00  0.00     0.102 A 
HETATM   13  N   UNL     1      44.560 -19.448   4.233  1.00  0.00    -0.348 N 
HETATM   14  C   UNL     1      45.146 -18.156   6.217  1.00  0.00     0.091 C 
HETATM   15  C   UNL     1      43.832 -19.668   3.127  1.00  0.00     0.009 A 
HETATM   16  H   UNL     1      45.327 -20.072   4.481  1.00  0.00     0.167 HD
HETATM   17  C   UNL     1      44.161 -20.841   2.262  1.00  0.00     0.068 C 
HETATM   18  C   UNL     1      42.807 -18.776   2.807  1.00  0.00     0.069 A 
ENDBRANCH   7  10
ENDBRANCH   1   4
BRANCH   1  19
HETATM   19  C   UNL     1      39.558 -14.084  -0.252  1.00  0.00     0.277 C 
BRANCH  19  20
HETATM   20  C   UNL     1      40.231 -14.616  -1.463  1.00  0.00     0.016 A 
HETATM   21  C   UNL     1      39.756 -14.621  -2.810  1.00  0.00     0.096 A 
HETATM   22  N   UNL     1      40.596 -15.288  -3.607  1.00  0.00    -0.174 NA
HETATM   23  N   UNL     1      41.648 -15.590  -2.837  1.00  0.00    -0.288 N 
HETATM   24  H   UNL     1      42.445 -16.052  -3.268  1.00  0.00     0.188 HD
HETATM   25  C   UNL     1      41.463 -15.238  -1.531  1.00  0.00     0.120 A 
BRANCH  21  26
HETATM   26  C   UNL     1      38.515 -14.066  -3.343  1.00  0.00    -0.005 A 
HETATM   27  C   UNL     1      38.309 -12.682  -3.388  1.00  0.00     0.014 A 
HETATM   28  C   UNL     1      37.126 -12.162  -3.920  1.00  0.00     0.001 A 
HETATM   29  C   UNL     1      36.148 -13.023  -4.416  1.00  0.00     0.000 A 
HETATM   30  C   UNL     1      36.351 -14.401  -4.389  1.00  0.00     0.001 A 
HETATM   31  C   UNL     1      37.531 -14.922  -3.856  1.00  0.00     0.014 A 
ENDBRANCH  21  26
ENDBRANCH  19  20
ENDBRANCH   1  19
TORSDOF 5
ENDMDL
MODEL 9
REMARK VINA RESULT:      -7.7      4.323      7.607
REMARK  5 active torsions:
REMARK  status: ('A' for Active; 'I' for Inactive)
REMARK    1  A    between atoms: C_8  and  N_9 
REMARK    2  A    between atoms: C_12  and  N_13 
REMARK    3  A    between atoms: N_13  and  C_15 
REMARK    4  A    between atoms: C_15  and  C_16 
REMARK    5  A    between atoms: C_17  and  C_18 
ROOT
HETATM    1  N   UNL     1      41.165 -13.879   1.063  1.00  0.00    -0.067 N 
HETATM    2  H   UNL     1      41.967 -14.442   0.754  1.00  0.00     0.280 HD
HETATM    3  C   UNL     1      41.725 -12.544   1.505  1.00  0.00     0.270 C 
ENDROOT
BRANCH   1   4
HETATM    4  C   UNL     1      40.386 -14.653   2.146  1.00  0.00     0.190 C 
HETATM    5  C   UNL     1      40.229 -16.133   1.757  1.00  0.00     0.048 C 
HETATM    6  C   UNL     1      41.495 -16.959   1.993  1.00  0.00     0.099 C 
HETATM    7  N   UNL     1      41.932 -16.779   3.384  1.00  0.00    -0.268 NA
HETATM    8  C   UNL     1      42.242 -15.393   3.747  1.00  0.00     0.099 C 
HETATM    9  C   UNL     1      40.987 -14.546   3.556  1.00  0.00     0.048 C 
BRANCH   7  10
HETATM   10  C   UNL     1      42.861 -17.733   3.829  1.00  0.00     0.109 A 
HETATM   11  N   UNL     1      43.542 -17.517   4.968  1.00  0.00    -0.224 NA
HETATM   12  C   UNL     1      44.482 -18.421   5.337  1.00  0.00     0.102 A 
HETATM   13  N   UNL     1      44.773 -19.513   4.618  1.00  0.00    -0.348 N 
HETATM   14  C   UNL     1      45.267 -18.155   6.583  1.00  0.00     0.091 C 
HETATM   15  C   UNL     1      44.111 -19.761   3.477  1.00  0.00     0.009 A 
HETATM   16  H   UNL     1      45.505 -20.145   4.938  1.00  0.00     0.167 HD
HETATM   17  C   UNL     1      44.462 -20.976   2.681  1.00  0.00     0.068 C 
HETATM   18  C   UNL     1      43.133 -18.858   3.056  1.00  0.00     0.069 A 
ENDBRANCH   7  10
ENDBRANCH   1   4
BRANCH   1  19
HETATM   19  C   UNL     1      40.301 -13.672  -0.194  1.00  0.00     0.277 C 
BRANCH  19  20
HETATM   20  C   UNL     1      40.890 -14.250  -1.428  1.00  0.00     0.016 A 
HETATM   21  C   UNL     1      41.609 -13.580  -2.464  1.00  0.00     0.096 A 
HETATM   22  N   UNL     1      41.884 -14.418  -3.469  1.00  0.00    -0.174 NA
HETATM   23  N   UNL     1      41.482 -15.621  -3.044  1.00  0.00    -0.288 N 
HETATM   24  H   UNL     1      41.658 -16.427  -3.640  1.00  0.00     0.188 HD
HETATM   25  C   UNL     1      40.846 -15.569  -1.838  1.00  0.00     0.120 A 
BRANCH  21  26
HETATM   26  C   UNL     1      41.985 -12.172  -2.551  1.00  0.00    -0.005 A 
HETATM   27  C   UNL     1      41.321 -11.305  -3.428  1.00  0.00     0.014 A 
HETATM   28  C   UNL     1      41.675  -9.955  -3.487  1.00  0.00     0.001 A 
HETATM   29  C   UNL     1      42.688  -9.463  -2.664  1.00  0.00     0.000 A 
HETATM   30  C   UNL     1      43.343 -10.316  -1.778  1.00  0.00     0.001 A 
HETATM   31  C   UNL     1      42.992 -11.665  -1.720  1.00  0.00     0.014 A 
ENDBRANCH  21  26
ENDBRANCH  19  20
ENDBRANCH   1  19
TORSDOF 5
ENDMDL
MODEL 10
REMARK VINA RESULT:      -7.5      1.668      6.767
REMARK  5 active torsions:
REMARK  status: ('A' for Active; 'I' for Inactive)
REMARK    1  A    between atoms: C_8  and  N_9 
REMARK    2  A    between atoms: C_12  and  N_13 
REMARK    3  A    between atoms: N_13  and  C_15 
REMARK    4  A    between atoms: C_15  and  C_16 
REMARK    5  A    between atoms: C_17  and  C_18 
ROOT
HETATM    1  N   UNL     1      42.753 -14.800   5.741  1.00  0.00    -0.067 N 
HETATM    2  H   UNL     1      43.020 -15.149   4.811  1.00  0.00     0.280 HD
HETATM    3  C   UNL     1      43.864 -13.871   6.182  1.00  0.00     0.270 C 
ENDROOT
BRANCH   1   4
HETATM    4  C   UNL     1      42.489 -15.996   6.678  1.00  0.00     0.190 C 
HETATM    5  C   UNL     1      41.525 -17.001   6.025  1.00  0.00     0.048 C 
HETATM    6  C   UNL     1      42.195 -17.893   4.979  1.00  0.00     0.099 C 
HETATM    7  N   UNL     1      43.369 -18.539   5.582  1.00  0.00    -0.268 NA
HETATM    8  C   UNL     1      44.387 -17.606   6.076  1.00  0.00     0.099 C 
HETATM    9  C   UNL     1      43.758 -16.722   7.150  1.00  0.00     0.048 C 
BRANCH   7  10
HETATM   10  C   UNL     1      43.867 -19.633   4.856  1.00  0.00     0.109 A 
HETATM   11  N   UNL     1      43.672 -19.694   3.527  1.00  0.00    -0.224 NA
HETATM   12  C   UNL     1      44.101 -20.795   2.864  1.00  0.00     0.102 A 
HETATM   13  N   UNL     1      44.702 -21.829   3.468  1.00  0.00    -0.348 N 
HETATM   14  C   UNL     1      43.843 -20.878   1.392  1.00  0.00     0.091 C 
HETATM   15  C   UNL     1      44.915 -21.800   4.793  1.00  0.00     0.009 A 
HETATM   16  H   UNL     1      44.984 -22.638   2.916  1.00  0.00     0.167 HD
HETATM   17  C   UNL     1      45.572 -22.970   5.450  1.00  0.00     0.068 C 
HETATM   18  C   UNL     1      44.490 -20.686   5.519  1.00  0.00     0.069 A 
ENDBRANCH   7  10
ENDBRANCH   1   4
BRANCH   1  19
HETATM   19  C   UNL     1      41.469 -13.981   5.518  1.00  0.00     0.277 C 
BRANCH  19  20
HETATM   20  C   UNL     1      41.486 -13.166   4.278  1.00  0.00     0.016 A 
HETATM   21  C   UNL     1      41.529 -13.616   2.922  1.00  0.00     0.096 A 
HETATM   22  N   UNL     1      41.644 -12.581   2.083  1.00  0.00    -0.174 NA
HETATM   23  N   UNL     1      41.542 -11.491   2.851  1.00  0.00    -0.288 N 
HETATM   24  H   UNL     1      41.542 -10.580   2.399  1.00  0.00     0.188 HD
HETATM   25  C   UNL     1      41.481 -11.787   4.182  1.00  0.00     0.120 A 
BRANCH  21  26
HETATM   26  C   UNL     1      41.521 -14.984   2.414  1.00  0.00    -0.005 A 
HETATM   27  C   UNL     1      40.331 -15.719   2.351  1.00  0.00     0.014 A 
HETATM   28  C   UNL     1      40.332 -17.020   1.842  1.00  0.00     0.001 A 
HETATM   29  C   UNL     1      41.521 -17.589   1.386  1.00  0.00     0.000 A 
HETATM   30  C   UNL     1      42.707 -16.859   1.431  1.00  0.00     0.001 A 
HETATM   31  C   UNL     1      42.707 -15.560   1.941  1.00  0.00     0.014 A 
ENDBRANCH  21  26
ENDBRANCH  19  20
ENDBRANCH   1  19
TORSDOF 5
ENDMDL
