MODEL 1
REMARK VINA RESULT:      -8.6      0.000      0.000
REMARK  7 active torsions:
REMARK  status: ('A' for Active; 'I' for Inactive)
REMARK    1  A    between atoms: C_2  and  C_3 
REMARK    2  A    between atoms: C_3  and  C_4 
REMARK    3  A    between atoms: C_7  and  C_8 
REMARK    4  A    between atoms: C_14  and  C_15 
REMARK    5  A    between atoms: C_16  and  O_17 
REMARK    6  A    between atoms: O_17  and  C_18 
REMARK       I    between atoms: C_18  and  N_19 
REMARK    7  A    between atoms: C_33  and  N_34 
ROOT
HETATM    1  C   UNL     1      40.468 -14.329   4.364  1.00  0.00     0.099 A 
HETATM    2  N   UNL     1      40.035 -14.661   5.598  1.00  0.00    -0.172 NA
HETATM    3  N   UNL     1      39.342 -13.589   6.023  1.00  0.00    -0.256 N 
HETATM    4  H   UNL     1      38.937 -13.606   6.952  1.00  0.00     0.191 HD
HETATM    5  C   UNL     1      39.297 -12.596   5.103  1.00  0.00     0.175 A 
HETATM    6  C   UNL     1      39.980 -13.043   4.002  1.00  0.00     0.040 A 
HETATM    7  C   UNL     1      40.084 -12.169   2.799  1.00  0.00     0.109 A 
HETATM    8  C   UNL     1      39.506 -10.782   3.093  1.00  0.00     0.081 A 
HETATM    9  C   UNL     1      39.734  -9.782   2.103  1.00  0.00     0.100 C 
HETATM   10  N   UNL     1      39.945  -8.973   1.296  1.00  0.00    -0.191 NA
HETATM   11  C   UNL     1      38.867 -10.477   4.255  1.00  0.00     0.140 A 
HETATM   12  O   UNL     1      38.698 -11.425   5.281  1.00  0.00    -0.279 OA
ENDROOT
BRANCH   7  13
HETATM   13  C   UNL     1      39.346 -12.872   1.665  1.00  0.00    -0.010 A 
HETATM   14  C   UNL     1      40.044 -13.339   0.533  1.00  0.00     0.088 A 
HETATM   15  C   UNL     1      39.371 -13.906  -0.552  1.00  0.00     0.038 A 
HETATM   16  C   UNL     1      37.984 -14.042  -0.515  1.00  0.00     0.003 A 
HETATM   17  C   UNL     1      37.270 -13.591   0.591  1.00  0.00     0.001 A 
HETATM   18  C   UNL     1      37.940 -13.001   1.664  1.00  0.00     0.011 A 
BRANCH  14  19
HETATM   19  O   UNL     1      41.447 -13.113   0.512  1.00  0.00    -0.261 OA
BRANCH  19  20
HETATM   20  C   UNL     1      42.088 -11.957   0.051  1.00  0.00     0.368 C 
HETATM   21  N   UNL     1      42.173 -11.921  -1.333  1.00  0.00    -0.324 N 
HETATM   22  C   UNL     1      41.839 -13.069  -2.177  1.00  0.00     0.154 C 
HETATM   23  C   UNL     1      43.081 -10.952  -1.944  1.00  0.00     0.154 C 
HETATM   24  C   UNL     1      41.464 -12.625  -3.594  1.00  0.00     0.187 C 
HETATM   25  O   UNL     1      42.480 -11.789  -4.164  1.00  0.00    -0.388 OA
HETATM   26  C   UNL     1      42.659 -10.604  -3.372  1.00  0.00     0.187 C 
HETATM   27  O   UNL     1      42.519 -11.066   0.774  1.00  0.00    -0.238 OA
ENDBRANCH  19  20
ENDBRANCH  14  19
ENDBRANCH   7  13
BRANCH  11  28
HETATM   28  N   UNL     1      38.334  -9.248   4.575  1.00  0.00    -0.282 NA
HETATM   29  H   UNL     1      37.970  -9.161   5.520  1.00  0.00     0.126 HD
HETATM   30  H   UNL     1      38.954  -8.484   4.318  1.00  0.00     0.126 HD
ENDBRANCH  11  28
BRANCH   1  31
HETATM   31  C   UNL     1      41.309 -15.247   3.595  1.00  0.00    -0.005 A 
HETATM   32  C   UNL     1      40.736 -16.362   2.970  1.00  0.00     0.014 A 
HETATM   33  C   UNL     1      41.527 -17.259   2.247  1.00  0.00     0.008 A 
HETATM   34  C   UNL     1      42.908 -17.058   2.136  1.00  0.00    -0.058 A 
HETATM   35  C   UNL     1      43.482 -15.946   2.763  1.00  0.00     0.008 A 
HETATM   36  C   UNL     1      42.691 -15.053   3.492  1.00  0.00     0.014 A 
BRANCH  34  37
HETATM   37  C   UNL     1      43.767 -18.027   1.360  1.00  0.00     0.042 C 
BRANCH  37  38
HETATM   38  C   UNL     1      44.194 -19.265   2.171  1.00  0.00    -0.019 C 
HETATM   39  C   UNL     1      43.318 -20.482   1.864  1.00  0.00     0.010 C 
HETATM   40  C   UNL     1      44.131 -18.949   3.667  1.00  0.00     0.010 C 
ENDBRANCH  37  38
ENDBRANCH  34  37
ENDBRANCH   1  31
TORSDOF 7
ENDMDL
MODEL 2
REMARK VINA RESULT:      -8.3      2.236      4.644
REMARK  7 active torsions:
REMARK  status: ('A' for Active; 'I' for Inactive)
REMARK    1  A    between atoms: C_2  and  C_3 
REMARK    2  A    between atoms: C_3  and  C_4 
REMARK    3  A    between atoms: C_7  and  C_8 
REMARK    4  A    between atoms: C_14  and  C_15 
REMARK    5  A    between atoms: C_16  and  O_17 
REMARK    6  A    between atoms: O_17  and  C_18 
REMARK       I    between atoms: C_18  and  N_19 
REMARK    7  A    between atoms: C_33  and  N_34 
ROOT
HETATM    1  C   UNL     1      38.377 -13.769   0.927  1.00  0.00     0.099 A 
HETATM    2  N   UNL     1      37.139 -14.121   0.522  1.00  0.00    -0.172 NA
HETATM    3  N   UNL     1      36.400 -13.004   0.648  1.00  0.00    -0.256 N 
HETATM    4  H   UNL     1      35.415 -13.041   0.418  1.00  0.00     0.191 HD
HETATM    5  C   UNL     1      37.120 -11.949   1.098  1.00  0.00     0.175 A 
HETATM    6  C   UNL     1      38.410 -12.386   1.259  1.00  0.00     0.040 A 
HETATM    7  C   UNL     1      39.455 -11.433   1.726  1.00  0.00     0.109 A 
HETATM    8  C   UNL     1      38.823 -10.094   2.117  1.00  0.00     0.081 A 
HETATM    9  C   UNL     1      39.676  -9.164   2.781  1.00  0.00     0.100 C 
HETATM   10  N   UNL     1      40.377  -8.426   3.339  1.00  0.00    -0.191 NA
HETATM   11  C   UNL     1      37.508  -9.809   1.915  1.00  0.00     0.140 A 
HETATM   12  O   UNL     1      36.627 -10.739   1.332  1.00  0.00    -0.279 OA
ENDROOT
BRANCH   7  13
HETATM   13  C   UNL     1      40.468 -11.283   0.596  1.00  0.00    -0.010 A 
HETATM   14  C   UNL     1      41.844 -11.476   0.833  1.00  0.00     0.088 A 
HETATM   15  C   UNL     1      42.791 -11.258  -0.170  1.00  0.00     0.038 A 
HETATM   16  C   UNL     1      42.377 -10.865  -1.442  1.00  0.00     0.003 A 
HETATM   17  C   UNL     1      41.025 -10.668  -1.704  1.00  0.00     0.001 A 
HETATM   18  C   UNL     1      40.081 -10.862  -0.695  1.00  0.00     0.011 A 
BRANCH  14  19
HETATM   19  O   UNL     1      42.221 -11.806   2.163  1.00  0.00    -0.261 OA
BRANCH  19  20
HETATM   20  C   UNL     1      42.427 -13.095   2.665  1.00  0.00     0.368 C 
HETATM   21  N   UNL     1      41.678 -13.341   3.806  1.00  0.00    -0.324 N 
HETATM   22  C   UNL     1      40.949 -12.288   4.515  1.00  0.00     0.154 C 
HETATM   23  C   UNL     1      42.017 -14.508   4.618  1.00  0.00     0.154 C 
HETATM   24  C   UNL     1      39.795 -12.870   5.337  1.00  0.00     0.187 C 
HETATM   25  O   UNL     1      40.250 -13.917   6.205  1.00  0.00    -0.388 OA
HETATM   26  C   UNL     1      40.822 -14.990   5.441  1.00  0.00     0.187 C 
HETATM   27  O   UNL     1      43.172 -13.928   2.160  1.00  0.00    -0.238 OA
ENDBRANCH  19  20
ENDBRANCH  14  19
ENDBRANCH   7  13
BRANCH  11  28
HETATM   28  N   UNL     1      36.885  -8.627   2.250  1.00  0.00    -0.282 NA
HETATM   29  H   UNL     1      36.416  -8.620   3.153  1.00  0.00     0.126 HD
HETATM   30  H   UNL     1      37.493  -7.823   2.115  1.00  0.00     0.126 HD
ENDBRANCH  11  28
BRANCH   1  31
HETATM   31  C   UNL     1      39.457 -14.755   0.972  1.00  0.00    -0.005 A 
HETATM   32  C   UNL     1      40.414 -14.790  -0.050  1.00  0.00     0.014 A 
HETATM   33  C   UNL     1      41.443 -15.736  -0.033  1.00  0.00     0.008 A 
HETATM   34  C   UNL     1      41.533 -16.667   1.008  1.00  0.00    -0.058 A 
HETATM   35  C   UNL     1      40.575 -16.636   2.030  1.00  0.00     0.008 A 
HETATM   36  C   UNL     1      39.543 -15.693   2.007  1.00  0.00     0.014 A 
BRANCH  34  37
HETATM   37  C   UNL     1      42.639 -17.695   1.029  1.00  0.00     0.042 C 
BRANCH  37  38
HETATM   38  C   UNL     1      42.771 -18.438   2.371  1.00  0.00    -0.019 C 
HETATM   39  C   UNL     1      43.731 -17.728   3.328  1.00  0.00     0.010 C 
HETATM   40  C   UNL     1      43.253 -19.869   2.124  1.00  0.00     0.010 C 
ENDBRANCH  37  38
ENDBRANCH  34  37
ENDBRANCH   1  31
TORSDOF 7
ENDMDL
MODEL 3
REMARK VINA RESULT:      -8.0      2.741      6.128
REMARK  7 active torsions:
REMARK  status: ('A' for Active; 'I' for Inactive)
REMARK    1  A    between atoms: C_2  and  C_3 
REMARK    2  A    between atoms: C_3  and  C_4 
REMARK    3  A    between atoms: C_7  and  C_8 
REMARK    4  A    between atoms: C_14  and  C_15 
REMARK    5  A    between atoms: C_16  and  O_17 
REMARK    6  A    between atoms: O_17  and  C_18 
REMARK       I    between atoms: C_18  and  N_19 
REMARK    7  A    between atoms: C_33  and  N_34 
ROOT
HETATM    1  C   UNL     1      41.337 -15.112   0.483  1.00  0.00     0.099 A 
HETATM    2  N   UNL     1      41.754 -16.273  -0.065  1.00  0.00    -0.172 NA
HETATM    3  N   UNL     1      41.214 -16.291  -1.296  1.00  0.00    -0.256 N 
HETATM    4  H   UNL     1      41.377 -17.095  -1.890  1.00  0.00     0.191 HD
HETATM    5  C   UNL     1      40.486 -15.180  -1.565  1.00  0.00     0.175 A 
HETATM    6  C   UNL     1      40.566 -14.375  -0.458  1.00  0.00     0.040 A 
HETATM    7  C   UNL     1      39.879 -13.053  -0.461  1.00  0.00     0.109 A 
HETATM    8  C   UNL     1      39.022 -12.897  -1.722  1.00  0.00     0.081 A 
HETATM    9  C   UNL     1      38.145 -11.775  -1.752  1.00  0.00     0.100 C 
HETATM   10  N   UNL     1      37.421 -10.867  -1.754  1.00  0.00    -0.191 NA
HETATM   11  C   UNL     1      39.030 -13.802  -2.739  1.00  0.00     0.140 A 
HETATM   12  O   UNL     1      39.830 -14.959  -2.697  1.00  0.00    -0.279 OA
ENDROOT
BRANCH   7  13
HETATM   13  C   UNL     1      40.959 -11.981  -0.364  1.00  0.00    -0.010 A 
HETATM   14  C   UNL     1      40.937 -11.030   0.677  1.00  0.00     0.088 A 
HETATM   15  C   UNL     1      41.868  -9.991   0.730  1.00  0.00     0.038 A 
HETATM   16  C   UNL     1      42.860  -9.897  -0.245  1.00  0.00     0.003 A 
HETATM   17  C   UNL     1      42.906 -10.822  -1.283  1.00  0.00     0.001 A 
HETATM   18  C   UNL     1      41.960 -11.846  -1.350  1.00  0.00     0.011 A 
BRANCH  14  19
HETATM   19  O   UNL     1      39.865 -11.127   1.604  1.00  0.00    -0.261 OA
BRANCH  19  20
HETATM   20  C   UNL     1      39.229 -10.056   2.242  1.00  0.00     0.368 C 
HETATM   21  N   UNL     1      39.229 -10.192   3.623  1.00  0.00    -0.324 N 
HETATM   22  C   UNL     1      39.639 -11.425   4.296  1.00  0.00     0.154 C 
HETATM   23  C   UNL     1      38.340  -9.332   4.402  1.00  0.00     0.154 C 
HETATM   24  C   UNL     1      40.093 -11.148   5.733  1.00  0.00     0.187 C 
HETATM   25  O   UNL     1      39.096 -10.418   6.461  1.00  0.00    -0.388 OA
HETATM   26  C   UNL     1      38.843  -9.151   5.835  1.00  0.00     0.187 C 
HETATM   27  O   UNL     1      38.734  -9.095   1.663  1.00  0.00    -0.238 OA
ENDBRANCH  19  20
ENDBRANCH  14  19
ENDBRANCH   7  13
BRANCH  11  28
HETATM   28  N   UNL     1      38.279 -13.717  -3.889  1.00  0.00    -0.282 NA
HETATM   29  H   UNL     1      38.530 -12.960  -4.521  1.00  0.00     0.126 HD
HETATM   30  H   UNL     1      38.198 -14.615  -4.360  1.00  0.00     0.126 HD
ENDBRANCH  11  28
BRANCH   1  31
HETATM   31  C   UNL     1      41.696 -14.763   1.857  1.00  0.00    -0.005 A 
HETATM   32  C   UNL     1      42.844 -14.001   2.109  1.00  0.00     0.014 A 
HETATM   33  C   UNL     1      43.211 -13.673   3.416  1.00  0.00     0.008 A 
HETATM   34  C   UNL     1      42.437 -14.103   4.500  1.00  0.00    -0.058 A 
HETATM   35  C   UNL     1      41.291 -14.869   4.251  1.00  0.00     0.008 A 
HETATM   36  C   UNL     1      40.928 -15.202   2.942  1.00  0.00     0.014 A 
BRANCH  34  37
HETATM   37  C   UNL     1      42.833 -13.757   5.915  1.00  0.00     0.042 C 
BRANCH  37  38
HETATM   38  C   UNL     1      44.179 -14.366   6.350  1.00  0.00    -0.019 C 
HETATM   39  C   UNL     1      44.065 -15.868   6.625  1.00  0.00     0.010 C 
HETATM   40  C   UNL     1      44.690 -13.650   7.602  1.00  0.00     0.010 C 
ENDBRANCH  37  38
ENDBRANCH  34  37
ENDBRANCH   1  31
TORSDOF 7
ENDMDL
MODEL 4
REMARK VINA RESULT:      -8.0      2.509      4.731
REMARK  7 active torsions:
REMARK  status: ('A' for Active; 'I' for Inactive)
REMARK    1  A    between atoms: C_2  and  C_3 
REMARK    2  A    between atoms: C_3  and  C_4 
REMARK    3  A    between atoms: C_7  and  C_8 
REMARK    4  A    between atoms: C_14  and  C_15 
REMARK    5  A    between atoms: C_16  and  O_17 
REMARK    6  A    between atoms: O_17  and  C_18 
REMARK       I    between atoms: C_18  and  N_19 
REMARK    7  A    between atoms: C_33  and  N_34 
ROOT
HETATM    1  C   UNL     1      41.087 -11.619   4.355  1.00  0.00     0.099 A 
HETATM    2  N   UNL     1      40.936 -10.540   5.151  1.00  0.00    -0.172 NA
HETATM    3  N   UNL     1      40.874  -9.492   4.310  1.00  0.00    -0.256 N 
HETATM    4  H   UNL     1      40.782  -8.560   4.695  1.00  0.00     0.191 HD
HETATM    5  C   UNL     1      40.958  -9.860   3.008  1.00  0.00     0.175 A 
HETATM    6  C   UNL     1      41.062 -11.227   2.988  1.00  0.00     0.040 A 
HETATM    7  C   UNL     1      41.147 -11.936   1.680  1.00  0.00     0.109 A 
HETATM    8  C   UNL     1      41.271 -10.930   0.532  1.00  0.00     0.081 A 
HETATM    9  C   UNL     1      41.576 -11.472  -0.751  1.00  0.00     0.100 C 
HETATM   10  N   UNL     1      41.844 -11.927  -1.785  1.00  0.00    -0.191 NA
HETATM   11  C   UNL     1      41.169  -9.585   0.712  1.00  0.00     0.140 A 
HETATM   12  O   UNL     1      40.946  -9.020   1.981  1.00  0.00    -0.279 OA
ENDROOT
BRANCH   7  13
HETATM   13  C   UNL     1      39.899 -12.803   1.553  1.00  0.00    -0.010 A 
HETATM   14  C   UNL     1      39.984 -14.206   1.657  1.00  0.00     0.088 A 
HETATM   15  C   UNL     1      38.866 -15.018   1.457  1.00  0.00     0.038 A 
HETATM   16  C   UNL     1      37.629 -14.439   1.174  1.00  0.00     0.003 A 
HETATM   17  C   UNL     1      37.516 -13.057   1.066  1.00  0.00     0.001 A 
HETATM   18  C   UNL     1      38.640 -12.247   1.241  1.00  0.00     0.011 A 
BRANCH  14  19
HETATM   19  O   UNL     1      41.278 -14.751   1.876  1.00  0.00    -0.261 OA
BRANCH  19  20
HETATM   20  C   UNL     1      42.003 -15.540   0.975  1.00  0.00     0.368 C 
HETATM   21  N   UNL     1      42.541 -16.667   1.579  1.00  0.00    -0.324 N 
HETATM   22  C   UNL     1      42.538 -16.865   3.029  1.00  0.00     0.154 C 
HETATM   23  C   UNL     1      43.572 -17.411   0.859  1.00  0.00     0.154 C 
HETATM   24  C   UNL     1      42.641 -18.351   3.386  1.00  0.00     0.187 C 
HETATM   25  O   UNL     1      43.764 -18.965   2.739  1.00  0.00    -0.388 OA
HETATM   26  C   UNL     1      43.637 -18.870   1.313  1.00  0.00     0.187 C 
HETATM   27  O   UNL     1      42.145 -15.283  -0.215  1.00  0.00    -0.238 OA
ENDBRANCH  19  20
ENDBRANCH  14  19
ENDBRANCH   7  13
BRANCH  11  28
HETATM   28  N   UNL     1      41.277  -8.636  -0.280  1.00  0.00    -0.282 NA
HETATM   29  H   UNL     1      42.227  -8.399  -0.558  1.00  0.00     0.126 HD
HETATM   30  H   UNL     1      40.673  -8.840  -1.072  1.00  0.00     0.126 HD
ENDBRANCH  11  28
BRANCH   1  31
HETATM   31  C   UNL     1      41.239 -12.955   4.929  1.00  0.00    -0.005 A 
HETATM   32  C   UNL     1      40.109 -13.748   5.164  1.00  0.00     0.014 A 
HETATM   33  C   UNL     1      40.234 -15.021   5.729  1.00  0.00     0.008 A 
HETATM   34  C   UNL     1      41.495 -15.525   6.070  1.00  0.00    -0.058 A 
HETATM   35  C   UNL     1      42.626 -14.732   5.839  1.00  0.00     0.008 A 
HETATM   36  C   UNL     1      42.498 -13.456   5.280  1.00  0.00     0.014 A 
BRANCH  34  37
HETATM   37  C   UNL     1      41.635 -16.897   6.685  1.00  0.00     0.042 C 
BRANCH  37  38
HETATM   38  C   UNL     1      43.091 -17.291   6.996  1.00  0.00    -0.019 C 
HETATM   39  C   UNL     1      43.374 -18.756   6.654  1.00  0.00     0.010 C 
HETATM   40  C   UNL     1      43.389 -17.041   8.476  1.00  0.00     0.010 C 
ENDBRANCH  37  38
ENDBRANCH  34  37
ENDBRANCH   1  31
TORSDOF 7
ENDMDL
MODEL 5
REMARK VINA RESULT:      -7.9      2.968      6.641
REMARK  7 active torsions:
REMARK  status: ('A' for Active; 'I' for Inactive)
REMARK    1  A    between atoms: C_2  and  C_3 
REMARK    2  A    between atoms: C_3  and  C_4 
REMARK    3  A    between atoms: C_7  and  C_8 
REMARK    4  A    between atoms: C_14  and  C_15 
REMARK    5  A    between atoms: C_16  and  O_17 
REMARK    6  A    between atoms: O_17  and  C_18 
REMARK       I    between atoms: C_18  and  N_19 
REMARK    7  A    between atoms: C_33  and  N_34 
ROOT
HETATM    1  C   UNL     1      41.461 -14.981   1.454  1.00  0.00     0.099 A 
HETATM    2  N   UNL     1      42.140 -16.147   1.465  1.00  0.00    -0.172 NA
HETATM    3  N   UNL     1      42.080 -16.596   0.199  1.00  0.00    -0.256 N 
HETATM    4  H   UNL     1      42.511 -17.485  -0.025  1.00  0.00     0.191 HD
HETATM    5  C   UNL     1      41.409 -15.755  -0.624  1.00  0.00     0.175 A 
HETATM    6  C   UNL     1      41.021 -14.682   0.135  1.00  0.00     0.040 A 
HETATM    7  C   UNL     1      40.275 -13.562  -0.505  1.00  0.00     0.109 A 
HETATM    8  C   UNL     1      39.918 -13.914  -1.952  1.00  0.00     0.081 A 
HETATM    9  C   UNL     1      39.021 -13.026  -2.614  1.00  0.00     0.100 C 
HETATM   10  N   UNL     1      38.274 -12.304  -3.133  1.00  0.00    -0.191 NA
HETATM   11  C   UNL     1      40.364 -15.041  -2.572  1.00  0.00     0.140 A 
HETATM   12  O   UNL     1      41.187 -15.973  -1.914  1.00  0.00    -0.279 OA
ENDROOT
BRANCH   7  13
HETATM   13  C   UNL     1      41.157 -12.321  -0.415  1.00  0.00    -0.010 A 
HETATM   14  C   UNL     1      40.806 -11.249   0.431  1.00  0.00     0.088 A 
HETATM   15  C   UNL     1      41.556 -10.071   0.459  1.00  0.00     0.038 A 
HETATM   16  C   UNL     1      42.690  -9.951  -0.342  1.00  0.00     0.003 A 
HETATM   17  C   UNL     1      43.060 -10.994  -1.186  1.00  0.00     0.001 A 
HETATM   18  C   UNL     1      42.296 -12.161  -1.232  1.00  0.00     0.011 A 
BRANCH  14  19
HETATM   19  O   UNL     1      39.603 -11.391   1.173  1.00  0.00    -0.261 OA
BRANCH  19  20
HETATM   20  C   UNL     1      38.396 -10.729   0.921  1.00  0.00     0.368 C 
HETATM   21  N   UNL     1      37.838 -10.197   2.075  1.00  0.00    -0.324 N 
HETATM   22  C   UNL     1      38.344 -10.505   3.413  1.00  0.00     0.154 C 
HETATM   23  C   UNL     1      36.445  -9.759   2.030  1.00  0.00     0.154 C 
HETATM   24  C   UNL     1      37.972  -9.406   4.413  1.00  0.00     0.187 C 
HETATM   25  O   UNL     1      36.562  -9.142   4.395  1.00  0.00    -0.388 OA
HETATM   26  C   UNL     1      36.150  -8.700   3.092  1.00  0.00     0.187 C 
HETATM   27  O   UNL     1      37.884 -10.614  -0.187  1.00  0.00    -0.238 OA
ENDBRANCH  19  20
ENDBRANCH  14  19
ENDBRANCH   7  13
BRANCH  11  28
HETATM   28  N   UNL     1      40.071 -15.410  -3.865  1.00  0.00    -0.282 NA
HETATM   29  H   UNL     1      39.413 -14.808  -4.355  1.00  0.00     0.126 HD
HETATM   30  H   UNL     1      40.910 -15.602  -4.407  1.00  0.00     0.126 HD
ENDBRANCH  11  28
BRANCH   1  31
HETATM   31  C   UNL     1      41.272 -14.215   2.686  1.00  0.00    -0.005 A 
HETATM   32  C   UNL     1      40.123 -14.411   3.463  1.00  0.00     0.014 A 
HETATM   33  C   UNL     1      39.919 -13.675   4.633  1.00  0.00     0.008 A 
HETATM   34  C   UNL     1      40.860 -12.727   5.049  1.00  0.00    -0.058 A 
HETATM   35  C   UNL     1      42.008 -12.526   4.272  1.00  0.00     0.008 A 
HETATM   36  C   UNL     1      42.208 -13.258   3.098  1.00  0.00     0.014 A 
BRANCH  34  37
HETATM   37  C   UNL     1      40.641 -11.925   6.310  1.00  0.00     0.042 C 
BRANCH  37  38
HETATM   38  C   UNL     1      41.730 -10.868   6.570  1.00  0.00    -0.019 C 
HETATM   39  C   UNL     1      42.155 -10.833   8.041  1.00  0.00     0.010 C 
HETATM   40  C   UNL     1      41.222  -9.488   6.147  1.00  0.00     0.010 C 
ENDBRANCH  37  38
ENDBRANCH  34  37
ENDBRANCH   1  31
TORSDOF 7
ENDMDL
MODEL 6
REMARK VINA RESULT:      -7.9      3.900      7.500
REMARK  7 active torsions:
REMARK  status: ('A' for Active; 'I' for Inactive)
REMARK    1  A    between atoms: C_2  and  C_3 
REMARK    2  A    between atoms: C_3  and  C_4 
REMARK    3  A    between atoms: C_7  and  C_8 
REMARK    4  A    between atoms: C_14  and  C_15 
REMARK    5  A    between atoms: C_16  and  O_17 
REMARK    6  A    between atoms: O_17  and  C_18 
REMARK       I    between atoms: C_18  and  N_19 
REMARK    7  A    between atoms: C_33  and  N_34 
ROOT
HETATM    1  C   UNL     1      40.544 -14.364  -0.283  1.00  0.00     0.099 A 
HETATM    2  N   UNL     1      41.659 -15.124  -0.250  1.00  0.00    -0.172 NA
HETATM    3  N   UNL     1      41.657 -15.794  -1.416  1.00  0.00    -0.256 N 
HETATM    4  H   UNL     1      42.403 -16.454  -1.602  1.00  0.00     0.191 HD
HETATM    5  C   UNL     1      40.599 -15.478  -2.200  1.00  0.00     0.175 A 
HETATM    6  C   UNL     1      39.872 -14.533  -1.524  1.00  0.00     0.040 A 
HETATM    7  C   UNL     1      38.645 -13.964  -2.152  1.00  0.00     0.109 A 
HETATM    8  C   UNL     1      38.315 -14.704  -3.451  1.00  0.00     0.081 A 
HETATM    9  C   UNL     1      37.052 -14.408  -4.042  1.00  0.00     0.100 C 
HETATM   10  N   UNL     1      36.012 -14.170  -4.500  1.00  0.00    -0.191 NA
HETATM   11  C   UNL     1      39.133 -15.647  -3.995  1.00  0.00     0.140 A 
HETATM   12  O   UNL     1      40.348 -16.014  -3.389  1.00  0.00    -0.279 OA
ENDROOT
BRANCH   7  13
HETATM   13  C   UNL     1      38.904 -12.479  -2.385  1.00  0.00    -0.010 A 
HETATM   14  C   UNL     1      37.950 -11.515  -2.002  1.00  0.00     0.088 A 
HETATM   15  C   UNL     1      38.134 -10.160  -2.288  1.00  0.00     0.038 A 
HETATM   16  C   UNL     1      39.291  -9.738  -2.941  1.00  0.00     0.003 A 
HETATM   17  C   UNL     1      40.249 -10.669  -3.329  1.00  0.00     0.001 A 
HETATM   18  C   UNL     1      40.054 -12.026  -3.066  1.00  0.00     0.011 A 
BRANCH  14  19
HETATM   19  O   UNL     1      36.756 -12.001  -1.405  1.00  0.00    -0.261 OA
BRANCH  19  20
HETATM   20  C   UNL     1      36.299 -11.703  -0.117  1.00  0.00     0.368 C 
HETATM   21  N   UNL     1      35.046 -11.106  -0.129  1.00  0.00    -0.324 N 
HETATM   22  C   UNL     1      34.404 -10.641  -1.359  1.00  0.00     0.154 C 
HETATM   23  C   UNL     1      34.578 -10.456   1.093  1.00  0.00     0.154 C 
HETATM   24  C   UNL     1      32.883 -10.571  -1.198  1.00  0.00     0.187 C 
HETATM   25  O   UNL     1      32.516  -9.796  -0.047  1.00  0.00    -0.388 OA
HETATM   26  C   UNL     1      33.052 -10.386   1.147  1.00  0.00     0.187 C 
HETATM   27  O   UNL     1      36.917 -11.945   0.914  1.00  0.00    -0.238 OA
ENDBRANCH  19  20
ENDBRANCH  14  19
ENDBRANCH   7  13
BRANCH  11  28
HETATM   28  N   UNL     1      38.885 -16.347  -5.154  1.00  0.00    -0.282 NA
HETATM   29  H   UNL     1      39.067 -15.842  -6.018  1.00  0.00     0.126 HD
HETATM   30  H   UNL     1      39.308 -17.272  -5.140  1.00  0.00     0.126 HD
ENDBRANCH  11  28
BRANCH   1  31
HETATM   31  C   UNL     1      40.183 -13.519   0.855  1.00  0.00    -0.005 A 
HETATM   32  C   UNL     1      40.433 -12.142   0.811  1.00  0.00     0.014 A 
HETATM   33  C   UNL     1      40.111 -11.322   1.896  1.00  0.00     0.008 A 
HETATM   34  C   UNL     1      39.531 -11.865   3.048  1.00  0.00    -0.058 A 
HETATM   35  C   UNL     1      39.283 -13.243   3.096  1.00  0.00     0.008 A 
HETATM   36  C   UNL     1      39.613 -14.063   2.013  1.00  0.00     0.014 A 
BRANCH  34  37
HETATM   37  C   UNL     1      39.186 -10.984   4.225  1.00  0.00     0.042 C 
BRANCH  37  38
HETATM   38  C   UNL     1      40.403 -10.275   4.847  1.00  0.00    -0.019 C 
HETATM   39  C   UNL     1      41.372 -11.265   5.500  1.00  0.00     0.010 C 
HETATM   40  C   UNL     1      39.932  -9.255   5.886  1.00  0.00     0.010 C 
ENDBRANCH  37  38
ENDBRANCH  34  37
ENDBRANCH   1  31
TORSDOF 7
ENDMDL
MODEL 7
REMARK VINA RESULT:      -7.7      1.672      2.039
REMARK  7 active torsions:
REMARK  status: ('A' for Active; 'I' for Inactive)
REMARK    1  A    between atoms: C_2  and  C_3 
REMARK    2  A    between atoms: C_3  and  C_4 
REMARK    3  A    between atoms: C_7  and  C_8 
REMARK    4  A    between atoms: C_14  and  C_15 
REMARK    5  A    between atoms: C_16  and  O_17 
REMARK    6  A    between atoms: O_17  and  C_18 
REMARK       I    between atoms: C_18  and  N_19 
REMARK    7  A    between atoms: C_33  and  N_34 
ROOT
HETATM    1  C   UNL     1      41.640 -12.724   4.865  1.00  0.00     0.099 A 
HETATM    2  N   UNL     1      41.628 -12.733   6.214  1.00  0.00    -0.172 NA
HETATM    3  N   UNL     1      41.365 -11.462   6.568  1.00  0.00    -0.256 N 
HETATM    4  H   UNL     1      41.331 -11.226   7.552  1.00  0.00     0.191 HD
HETATM    5  C   UNL     1      41.188 -10.647   5.500  1.00  0.00     0.175 A 
HETATM    6  C   UNL     1      41.322 -11.426   4.379  1.00  0.00     0.040 A 
HETATM    7  C   UNL     1      41.153 -10.809   3.033  1.00  0.00     0.109 A 
HETATM    8  C   UNL     1      41.011  -9.289   3.154  1.00  0.00     0.081 A 
HETATM    9  C   UNL     1      41.058  -8.552   1.935  1.00  0.00     0.100 C 
HETATM   10  N   UNL     1      41.118  -7.965   0.936  1.00  0.00    -0.191 NA
HETATM   11  C   UNL     1      40.912  -8.647   4.351  1.00  0.00     0.140 A 
HETATM   12  O   UNL     1      40.942  -9.345   5.572  1.00  0.00    -0.279 OA
ENDROOT
BRANCH   7  13
HETATM   13  C   UNL     1      39.929 -11.453   2.391  1.00  0.00    -0.010 A 
HETATM   14  C   UNL     1      40.075 -12.414   1.370  1.00  0.00     0.088 A 
HETATM   15  C   UNL     1      38.965 -12.948   0.712  1.00  0.00     0.038 A 
HETATM   16  C   UNL     1      37.681 -12.549   1.081  1.00  0.00     0.003 A 
HETATM   17  C   UNL     1      37.508 -11.602   2.085  1.00  0.00     0.001 A 
HETATM   18  C   UNL     1      38.619 -11.050   2.725  1.00  0.00     0.011 A 
BRANCH  14  19
HETATM   19  O   UNL     1      41.404 -12.734   0.982  1.00  0.00    -0.261 OA
BRANCH  19  20
HETATM   20  C   UNL     1      42.083 -12.224  -0.131  1.00  0.00     0.368 C 
HETATM   21  N   UNL     1      41.894 -13.004  -1.263  1.00  0.00    -0.324 N 
HETATM   22  C   UNL     1      41.256 -14.320  -1.221  1.00  0.00     0.154 C 
HETATM   23  C   UNL     1      42.778 -12.786  -2.406  1.00  0.00     0.154 C 
HETATM   24  C   UNL     1      40.665 -14.693  -2.583  1.00  0.00     0.187 C 
HETATM   25  O   UNL     1      41.646 -14.581  -3.624  1.00  0.00    -0.388 OA
HETATM   26  C   UNL     1      42.128 -13.232  -3.717  1.00  0.00     0.187 C 
HETATM   27  O   UNL     1      42.760 -11.202  -0.124  1.00  0.00    -0.238 OA
ENDBRANCH  19  20
ENDBRANCH  14  19
ENDBRANCH   7  13
BRANCH  11  28
HETATM   28  N   UNL     1      40.787  -7.287   4.520  1.00  0.00    -0.282 NA
HETATM   29  H   UNL     1      41.606  -6.816   4.899  1.00  0.00     0.126 HD
HETATM   30  H   UNL     1      40.418  -6.831   3.690  1.00  0.00     0.126 HD
ENDBRANCH  11  28
BRANCH   1  31
HETATM   31  C   UNL     1      41.943 -13.942   4.113  1.00  0.00    -0.005 A 
HETATM   32  C   UNL     1      40.984 -14.957   4.009  1.00  0.00     0.014 A 
HETATM   33  C   UNL     1      41.263 -16.134   3.309  1.00  0.00     0.008 A 
HETATM   34  C   UNL     1      42.509 -16.319   2.700  1.00  0.00    -0.058 A 
HETATM   35  C   UNL     1      43.471 -15.307   2.805  1.00  0.00     0.008 A 
HETATM   36  C   UNL     1      43.193 -14.133   3.511  1.00  0.00     0.014 A 
BRANCH  34  37
HETATM   37  C   UNL     1      42.818 -17.592   1.947  1.00  0.00     0.042 C 
BRANCH  37  38
HETATM   38  C   UNL     1      42.957 -18.830   2.853  1.00  0.00    -0.019 C 
HETATM   39  C   UNL     1      44.008 -18.624   3.947  1.00  0.00     0.010 C 
HETATM   40  C   UNL     1      43.325 -20.050   2.007  1.00  0.00     0.010 C 
ENDBRANCH  37  38
ENDBRANCH  34  37
ENDBRANCH   1  31
TORSDOF 7
ENDMDL
MODEL 8
REMARK VINA RESULT:      -7.5      2.484      3.920
REMARK  7 active torsions:
REMARK  status: ('A' for Active; 'I' for Inactive)
REMARK    1  A    between atoms: C_2  and  C_3 
REMARK    2  A    between atoms: C_3  and  C_4 
REMARK    3  A    between atoms: C_7  and  C_8 
REMARK    4  A    between atoms: C_14  and  C_15 
REMARK    5  A    between atoms: C_16  and  O_17 
REMARK    6  A    between atoms: O_17  and  C_18 
REMARK       I    between atoms: C_18  and  N_19 
REMARK    7  A    between atoms: C_33  and  N_34 
ROOT
HETATM    1  C   UNL     1      40.922 -14.395   2.693  1.00  0.00     0.099 A 
HETATM    2  N   UNL     1      40.103 -14.381   3.766  1.00  0.00    -0.172 NA
HETATM    3  N   UNL     1      39.605 -13.133   3.808  1.00  0.00    -0.256 N 
HETATM    4  H   UNL     1      38.973 -12.883   4.559  1.00  0.00     0.191 HD
HETATM    5  C   UNL     1      40.055 -12.355   2.794  1.00  0.00     0.175 A 
HETATM    6  C   UNL     1      40.881 -13.137   2.029  1.00  0.00     0.040 A 
HETATM    7  C   UNL     1      41.517 -12.561   0.811  1.00  0.00     0.109 A 
HETATM    8  C   UNL     1      41.239 -11.057   0.722  1.00  0.00     0.081 A 
HETATM    9  C   UNL     1      41.964 -10.340  -0.274  1.00  0.00     0.100 C 
HETATM   10  N   UNL     1      42.576  -9.767  -1.076  1.00  0.00    -0.191 NA
HETATM   11  C   UNL     1      40.404 -10.407   1.578  1.00  0.00     0.140 A 
HETATM   12  O   UNL     1      39.737 -11.078   2.619  1.00  0.00    -0.279 OA
ENDROOT
BRANCH   7  13
HETATM   13  C   UNL     1      40.965 -13.320  -0.390  1.00  0.00    -0.010 A 
HETATM   14  C   UNL     1      39.627 -13.143  -0.800  1.00  0.00     0.088 A 
HETATM   15  C   UNL     1      39.082 -13.895  -1.843  1.00  0.00     0.038 A 
HETATM   16  C   UNL     1      39.874 -14.824  -2.517  1.00  0.00     0.003 A 
HETATM   17  C   UNL     1      41.197 -15.018  -2.134  1.00  0.00     0.001 A 
HETATM   18  C   UNL     1      41.734 -14.285  -1.075  1.00  0.00     0.011 A 
BRANCH  14  19
HETATM   19  O   UNL     1      38.842 -12.238  -0.036  1.00  0.00    -0.261 OA
BRANCH  19  20
HETATM   20  C   UNL     1      37.497 -12.406   0.311  1.00  0.00     0.368 C 
HETATM   21  N   UNL     1      36.705 -11.358  -0.137  1.00  0.00    -0.324 N 
HETATM   22  C   UNL     1      37.264 -10.126  -0.696  1.00  0.00     0.154 C 
HETATM   23  C   UNL     1      35.356 -11.229   0.410  1.00  0.00     0.154 C 
HETATM   24  C   UNL     1      36.254  -9.422  -1.607  1.00  0.00     0.187 C 
HETATM   25  O   UNL     1      35.003  -9.215  -0.935  1.00  0.00    -0.388 OA
HETATM   26  C   UNL     1      34.430 -10.471  -0.542  1.00  0.00     0.187 C 
HETATM   27  O   UNL     1      37.052 -13.366   0.929  1.00  0.00    -0.238 OA
ENDBRANCH  19  20
ENDBRANCH  14  19
ENDBRANCH   7  13
BRANCH  11  28
HETATM   28  N   UNL     1      40.121  -9.060   1.549  1.00  0.00    -0.282 NA
HETATM   29  H   UNL     1      39.921  -8.634   2.451  1.00  0.00     0.126 HD
HETATM   30  H   UNL     1      40.807  -8.537   1.009  1.00  0.00     0.126 HD
ENDBRANCH  11  28
BRANCH   1  31
HETATM   31  C   UNL     1      41.688 -15.593   2.353  1.00  0.00    -0.005 A 
HETATM   32  C   UNL     1      41.028 -16.734   1.878  1.00  0.00     0.014 A 
HETATM   33  C   UNL     1      41.742 -17.894   1.566  1.00  0.00     0.008 A 
HETATM   34  C   UNL     1      43.132 -17.935   1.723  1.00  0.00    -0.058 A 
HETATM   35  C   UNL     1      43.794 -16.797   2.201  1.00  0.00     0.008 A 
HETATM   36  C   UNL     1      43.077 -15.640   2.520  1.00  0.00     0.014 A 
BRANCH  34  37
HETATM   37  C   UNL     1      43.908 -19.188   1.392  1.00  0.00     0.042 C 
BRANCH  37  38
HETATM   38  C   UNL     1      43.681 -20.340   2.388  1.00  0.00    -0.019 C 
HETATM   39  C   UNL     1      44.548 -20.193   3.641  1.00  0.00     0.010 C 
HETATM   40  C   UNL     1      43.980 -21.678   1.708  1.00  0.00     0.010 C 
ENDBRANCH  37  38
ENDBRANCH  34  37
ENDBRANCH   1  31
TORSDOF 7
ENDMDL
MODEL 9
REMARK VINA RESULT:      -7.2      2.957      6.727
REMARK  7 active torsions:
REMARK  status: ('A' for Active; 'I' for Inactive)
REMARK    1  A    between atoms: C_2  and  C_3 
REMARK    2  A    between atoms: C_3  and  C_4 
REMARK    3  A    between atoms: C_7  and  C_8 
REMARK    4  A    between atoms: C_14  and  C_15 
REMARK    5  A    between atoms: C_16  and  O_17 
REMARK    6  A    between atoms: O_17  and  C_18 
REMARK       I    between atoms: C_18  and  N_19 
REMARK    7  A    between atoms: C_33  and  N_34 
ROOT
HETATM    1  C   UNL     1      41.678 -14.266   3.306  1.00  0.00     0.099 A 
HETATM    2  N   UNL     1      42.654 -15.155   3.587  1.00  0.00    -0.172 NA
HETATM    3  N   UNL     1      42.856 -15.824   2.438  1.00  0.00    -0.256 N 
HETATM    4  H   UNL     1      43.541 -16.570   2.420  1.00  0.00     0.191 HD
HETATM    5  C   UNL     1      42.064 -15.385   1.430  1.00  0.00     0.175 A 
HETATM    6  C   UNL     1      41.312 -14.356   1.935  1.00  0.00     0.040 A 
HETATM    7  C   UNL     1      40.351 -13.644   1.046  1.00  0.00     0.109 A 
HETATM    8  C   UNL     1      40.261 -14.343  -0.314  1.00  0.00     0.081 A 
HETATM    9  C   UNL     1      39.223 -13.898  -1.184  1.00  0.00     0.100 C 
HETATM   10  N   UNL     1      38.362 -13.537  -1.874  1.00  0.00    -0.191 NA
HETATM   11  C   UNL     1      41.069 -15.380  -0.669  1.00  0.00     0.140 A 
HETATM   12  O   UNL     1      42.048 -15.890   0.203  1.00  0.00    -0.279 OA
ENDROOT
BRANCH   7  13
HETATM   13  C   UNL     1      40.833 -12.203   0.921  1.00  0.00    -0.010 A 
HETATM   14  C   UNL     1      40.096 -11.146   1.495  1.00  0.00     0.088 A 
HETATM   15  C   UNL     1      40.477  -9.815   1.315  1.00  0.00     0.038 A 
HETATM   16  C   UNL     1      41.621  -9.513   0.577  1.00  0.00     0.003 A 
HETATM   17  C   UNL     1      42.367 -10.536   0.000  1.00  0.00     0.001 A 
HETATM   18  C   UNL     1      41.971 -11.865   0.159  1.00  0.00     0.011 A 
BRANCH  14  19
HETATM   19  O   UNL     1      38.900 -11.500   2.176  1.00  0.00    -0.261 OA
BRANCH  19  20
HETATM   20  C   UNL     1      38.018 -10.615   2.805  1.00  0.00     0.368 C 
HETATM   21  N   UNL     1      36.844 -10.444   2.086  1.00  0.00    -0.324 N 
HETATM   22  C   UNL     1      36.669 -10.952   0.724  1.00  0.00     0.154 C 
HETATM   23  C   UNL     1      35.972  -9.326   2.442  1.00  0.00     0.154 C 
HETATM   24  C   UNL     1      35.187 -11.148   0.392  1.00  0.00     0.187 C 
HETATM   25  O   UNL     1      34.434  -9.953   0.645  1.00  0.00    -0.388 OA
HETATM   26  C   UNL     1      34.523  -9.586   2.030  1.00  0.00     0.187 C 
HETATM   27  O   UNL     1      38.238 -10.056   3.873  1.00  0.00    -0.238 OA
ENDBRANCH  19  20
ENDBRANCH  14  19
ENDBRANCH   7  13
BRANCH  11  28
HETATM   28  N   UNL     1      41.029 -16.048  -1.872  1.00  0.00    -0.282 NA
HETATM   29  H   UNL     1      40.233 -16.668  -2.002  1.00  0.00     0.126 HD
HETATM   30  H   UNL     1      41.177 -15.424  -2.661  1.00  0.00     0.126 HD
ENDBRANCH  11  28
BRANCH   1  31
HETATM   31  C   UNL     1      41.154 -13.379   4.345  1.00  0.00    -0.005 A 
HETATM   32  C   UNL     1      41.757 -12.136   4.573  1.00  0.00     0.014 A 
HETATM   33  C   UNL     1      41.281 -11.284   5.573  1.00  0.00     0.008 A 
HETATM   34  C   UNL     1      40.191 -11.660   6.367  1.00  0.00    -0.058 A 
HETATM   35  C   UNL     1      39.589 -12.905   6.143  1.00  0.00     0.008 A 
HETATM   36  C   UNL     1      40.071 -13.759   5.146  1.00  0.00     0.014 A 
BRANCH  34  37
HETATM   37  C   UNL     1      39.676 -10.746   7.452  1.00  0.00     0.042 C 
BRANCH  37  38
HETATM   38  C   UNL     1      40.668 -10.540   8.612  1.00  0.00    -0.019 C 
HETATM   39  C   UNL     1      40.052 -10.908   9.965  1.00  0.00     0.010 C 
HETATM   40  C   UNL     1      41.137  -9.084   8.638  1.00  0.00     0.010 C 
ENDBRANCH  37  38
ENDBRANCH  34  37
ENDBRANCH   1  31
TORSDOF 7
ENDMDL
MODEL 10
REMARK VINA RESULT:      -7.2      2.779      4.912
REMARK  7 active torsions:
REMARK  status: ('A' for Active; 'I' for Inactive)
REMARK    1  A    between atoms: C_2  and  C_3 
REMARK    2  A    between atoms: C_3  and  C_4 
REMARK    3  A    between atoms: C_7  and  C_8 
REMARK    4  A    between atoms: C_14  and  C_15 
REMARK    5  A    between atoms: C_16  and  O_17 
REMARK    6  A    between atoms: O_17  and  C_18 
REMARK       I    between atoms: C_18  and  N_19 
REMARK    7  A    between atoms: C_33  and  N_34 
ROOT
HETATM    1  C   UNL     1      40.926 -13.642   1.053  1.00  0.00     0.099 A 
HETATM    2  N   UNL     1      40.307 -13.028   2.084  1.00  0.00    -0.172 NA
HETATM    3  N   UNL     1      40.061 -11.780   1.648  1.00  0.00    -0.256 N 
HETATM    4  H   UNL     1      39.615 -11.121   2.276  1.00  0.00     0.191 HD
HETATM    5  C   UNL     1      40.478 -11.578   0.375  1.00  0.00     0.175 A 
HETATM    6  C   UNL     1      41.011 -12.763  -0.062  1.00  0.00     0.040 A 
HETATM    7  C   UNL     1      41.538 -12.863  -1.452  1.00  0.00     0.109 A 
HETATM    8  C   UNL     1      41.531 -11.488  -2.128  1.00  0.00     0.081 A 
HETATM    9  C   UNL     1      42.205 -11.398  -3.380  1.00  0.00     0.100 C 
HETATM   10  N   UNL     1      42.775 -11.335  -4.390  1.00  0.00    -0.191 NA
HETATM   11  C   UNL     1      40.978 -10.384  -1.554  1.00  0.00     0.140 A 
HETATM   12  O   UNL     1      40.375 -10.430  -0.284  1.00  0.00    -0.279 OA
ENDROOT
BRANCH   7  13
HETATM   13  C   UNL     1      40.669 -13.873  -2.194  1.00  0.00    -0.010 A 
HETATM   14  C   UNL     1      39.325 -13.577  -2.500  1.00  0.00     0.088 A 
HETATM   15  C   UNL     1      38.492 -14.524  -3.100  1.00  0.00     0.038 A 
HETATM   16  C   UNL     1      38.996 -15.781  -3.432  1.00  0.00     0.003 A 
HETATM   17  C   UNL     1      40.319 -16.099  -3.143  1.00  0.00     0.001 A 
HETATM   18  C   UNL     1      41.144 -15.161  -2.519  1.00  0.00     0.011 A 
BRANCH  14  19
HETATM   19  O   UNL     1      38.839 -12.311  -2.077  1.00  0.00    -0.261 OA
BRANCH  19  20
HETATM   20  C   UNL     1      37.699 -11.662  -2.564  1.00  0.00     0.368 C 
HETATM   21  N   UNL     1      36.761 -11.430  -1.567  1.00  0.00    -0.324 N 
HETATM   22  C   UNL     1      36.870 -12.011  -0.228  1.00  0.00     0.154 C 
HETATM   23  C   UNL     1      35.406 -11.055  -1.967  1.00  0.00     0.154 C 
HETATM   24  C   UNL     1      36.090 -11.186   0.799  1.00  0.00     0.187 C 
HETATM   25  O   UNL     1      34.732 -10.986   0.384  1.00  0.00    -0.388 OA
HETATM   26  C   UNL     1      34.686 -10.278  -0.864  1.00  0.00     0.187 C 
HETATM   27  O   UNL     1      37.536 -11.321  -3.730  1.00  0.00    -0.238 OA
ENDBRANCH  19  20
ENDBRANCH  14  19
ENDBRANCH   7  13
BRANCH  11  28
HETATM   28  N   UNL     1      40.948  -9.125  -2.111  1.00  0.00    -0.282 NA
HETATM   29  H   UNL     1      41.705  -8.505  -1.834  1.00  0.00     0.126 HD
HETATM   30  H   UNL     1      40.810  -9.156  -3.118  1.00  0.00     0.126 HD
ENDBRANCH  11  28
BRANCH   1  31
HETATM   31  C   UNL     1      41.393 -15.022   1.178  1.00  0.00    -0.005 A 
HETATM   32  C   UNL     1      40.467 -16.067   1.295  1.00  0.00     0.014 A 
HETATM   33  C   UNL     1      40.896 -17.389   1.433  1.00  0.00     0.008 A 
HETATM   34  C   UNL     1      42.262 -17.694   1.458  1.00  0.00    -0.058 A 
HETATM   35  C   UNL     1      43.190 -16.651   1.344  1.00  0.00     0.008 A 
HETATM   36  C   UNL     1      42.759 -15.327   1.213  1.00  0.00     0.014 A 
BRANCH  34  37
HETATM   37  C   UNL     1      42.731 -19.121   1.612  1.00  0.00     0.042 C 
BRANCH  37  38
HETATM   38  C   UNL     1      43.924 -19.281   2.572  1.00  0.00    -0.019 C 
HETATM   39  C   UNL     1      44.493 -20.703   2.547  1.00  0.00     0.010 C 
HETATM   40  C   UNL     1      43.493 -18.923   3.996  1.00  0.00     0.010 C 
ENDBRANCH  37  38
ENDBRANCH  34  37
ENDBRANCH   1  31
TORSDOF 7
ENDMDL
