MODEL 1
REMARK VINA RESULT:      -7.1      0.000      0.000
REMARK  5 active torsions:
REMARK  status: ('A' for Active; 'I' for Inactive)
REMARK    1  A    between atoms: C_2  and  C_3 
REMARK    2  A    between atoms: C_3  and  N_4 
REMARK    3  A    between atoms: C_3  and  C_19 
REMARK       I    between atoms: N_4  and  C_5 
REMARK    4  A    between atoms: C_5  and  C_6 
REMARK    5  A    between atoms: C_7  and  C_8 
ROOT
HETATM    1  N   UNL     1      44.078 -16.163   6.301  1.00  0.00    -0.345 N 
HETATM    2  C   UNL     1      43.296 -17.260   6.544  1.00  0.00     0.255 C 
HETATM    3  O   UNL     1      42.307 -17.234   7.266  1.00  0.00    -0.268 OA
HETATM    4  H   UNL     1      44.904 -16.242   5.716  1.00  0.00     0.163 HD
ENDROOT
BRANCH   2   5
HETATM    5  C   UNL     1      43.727 -18.440   5.820  1.00  0.00     0.075 A 
HETATM    6  C   UNL     1      43.417 -18.921   4.507  1.00  0.00     0.076 A 
HETATM    7  N   UNL     1      44.047 -20.089   4.277  1.00  0.00    -0.178 NA
HETATM    8  N   UNL     1      44.764 -20.322   5.378  1.00  0.00    -0.288 N 
HETATM    9  H   UNL     1      45.343 -21.155   5.406  1.00  0.00     0.188 HD
HETATM   10  C   UNL     1      44.591 -19.386   6.343  1.00  0.00     0.128 A 
BRANCH   6  11
HETATM   11  C   UNL     1      42.432 -18.417   3.461  1.00  0.00     0.040 C 
HETATM   12  C   UNL     1      42.307 -16.891   3.333  1.00  0.00     0.011 C 
HETATM   13  C   UNL     1      43.549 -16.253   2.717  1.00  0.00     0.001 C 
HETATM   14  C   UNL     1      43.852 -16.847   1.343  1.00  0.00     0.000 C 
HETATM   15  C   UNL     1      43.931 -18.370   1.386  1.00  0.00     0.001 C 
HETATM   16  C   UNL     1      42.695 -18.986   2.045  1.00  0.00     0.011 C 
ENDBRANCH   6  11
ENDBRANCH   2   5
BRANCH   1  17
HETATM   17  C   UNL     1      43.813 -14.861   6.874  1.00  0.00     0.154 C 
BRANCH  17  18
HETATM   18  C   UNL     1      45.079 -13.999   7.013  1.00  0.00     0.028 C 
HETATM   19  C   UNL     1      45.042 -12.989   8.156  1.00  0.00     0.007 C 
ENDBRANCH  17  18
BRANCH  17  20
HETATM   20  C   UNL     1      42.775 -14.207   6.008  1.00  0.00     0.127 A 
HETATM   21  N   UNL     1      42.993 -13.481   4.926  1.00  0.00    -0.237 NA
HETATM   22  C   UNL     1      41.755 -13.092   4.476  1.00  0.00     0.048 A 
HETATM   23  C   UNL     1      41.615 -12.239   3.276  1.00  0.00     0.072 C 
HETATM   24  C   UNL     1      40.770 -13.606   5.289  1.00  0.00     0.116 A 
HETATM   25  N   UNL     1      41.429 -14.317   6.254  1.00  0.00    -0.351 N 
HETATM   26  H   UNL     1      41.006 -14.829   7.016  1.00  0.00     0.166 HD
ENDBRANCH  17  20
ENDBRANCH   1  17
TORSDOF 5
ENDMDL
MODEL 2
REMARK VINA RESULT:      -7.0      2.224      4.458
REMARK  5 active torsions:
REMARK  status: ('A' for Active; 'I' for Inactive)
REMARK    1  A    between atoms: C_2  and  C_3 
REMARK    2  A    between atoms: C_3  and  N_4 
REMARK    3  A    between atoms: C_3  and  C_19 
REMARK       I    between atoms: N_4  and  C_5 
REMARK    4  A    between atoms: C_5  and  C_6 
REMARK    5  A    between atoms: C_7  and  C_8 
ROOT
HETATM    1  N   UNL     1      43.440 -14.828   5.642  1.00  0.00    -0.345 N 
HETATM    2  C   UNL     1      42.175 -14.736   5.125  1.00  0.00     0.255 C 
HETATM    3  O   UNL     1      41.161 -14.852   5.802  1.00  0.00    -0.268 OA
HETATM    4  H   UNL     1      44.248 -14.751   5.034  1.00  0.00     0.163 HD
ENDROOT
BRANCH   2   5
HETATM    5  C   UNL     1      42.159 -14.433   3.707  1.00  0.00     0.075 A 
HETATM    6  C   UNL     1      41.824 -15.229   2.564  1.00  0.00     0.076 A 
HETATM    7  N   UNL     1      41.981 -14.513   1.434  1.00  0.00    -0.178 NA
HETATM    8  N   UNL     1      42.356 -13.299   1.840  1.00  0.00    -0.288 N 
HETATM    9  H   UNL     1      42.509 -12.584   1.136  1.00  0.00     0.188 HD
HETATM   10  C   UNL     1      42.506 -13.200   3.183  1.00  0.00     0.128 A 
BRANCH   6  11
HETATM   11  C   UNL     1      41.483 -16.708   2.438  1.00  0.00     0.040 C 
HETATM   12  C   UNL     1      41.876 -17.380   1.114  1.00  0.00     0.011 C 
HETATM   13  C   UNL     1      43.387 -17.541   0.967  1.00  0.00     0.001 C 
HETATM   14  C   UNL     1      43.972 -18.343   2.127  1.00  0.00     0.000 C 
HETATM   15  C   UNL     1      43.571 -17.764   3.480  1.00  0.00     0.001 C 
HETATM   16  C   UNL     1      42.057 -17.571   3.589  1.00  0.00     0.011 C 
ENDBRANCH   6  11
ENDBRANCH   2   5
BRANCH   1  17
HETATM   17  C   UNL     1      43.705 -15.074   7.043  1.00  0.00     0.154 C 
BRANCH  17  18
HETATM   18  C   UNL     1      44.267 -16.480   7.308  1.00  0.00     0.028 C 
HETATM   19  C   UNL     1      43.218 -17.536   7.640  1.00  0.00     0.007 C 
ENDBRANCH  17  18
BRANCH  17  20
HETATM   20  C   UNL     1      44.639 -13.993   7.506  1.00  0.00     0.127 A 
HETATM   21  N   UNL     1      44.530 -13.274   8.609  1.00  0.00    -0.237 NA
HETATM   22  C   UNL     1      45.602 -12.415   8.607  1.00  0.00     0.048 A 
HETATM   23  C   UNL     1      45.792 -11.435   9.699  1.00  0.00     0.072 C 
HETATM   24  C   UNL     1      46.382 -12.630   7.493  1.00  0.00     0.116 A 
HETATM   25  N   UNL     1      45.765 -13.637   6.805  1.00  0.00    -0.351 N 
HETATM   26  H   UNL     1      46.075 -14.047   5.935  1.00  0.00     0.166 HD
ENDBRANCH  17  20
ENDBRANCH   1  17
TORSDOF 5
ENDMDL
MODEL 3
REMARK VINA RESULT:      -6.9      4.995      9.396
REMARK  5 active torsions:
REMARK  status: ('A' for Active; 'I' for Inactive)
REMARK    1  A    between atoms: C_2  and  C_3 
REMARK    2  A    between atoms: C_3  and  N_4 
REMARK    3  A    between atoms: C_3  and  C_19 
REMARK       I    between atoms: N_4  and  C_5 
REMARK    4  A    between atoms: C_5  and  C_6 
REMARK    5  A    between atoms: C_7  and  C_8 
ROOT
HETATM    1  N   UNL     1      43.230 -11.784   9.264  1.00  0.00    -0.345 N 
HETATM    2  C   UNL     1      42.385 -10.716   9.114  1.00  0.00     0.255 C 
HETATM    3  O   UNL     1      42.523  -9.868   8.240  1.00  0.00    -0.268 OA
HETATM    4  H   UNL     1      43.089 -12.445  10.021  1.00  0.00     0.163 HD
ENDROOT
BRANCH   2   5
HETATM    5  C   UNL     1      41.284 -10.722  10.056  1.00  0.00     0.075 A 
HETATM    6  C   UNL     1      41.249 -10.640  11.486  1.00  0.00     0.076 A 
HETATM    7  N   UNL     1      39.979 -10.706  11.927  1.00  0.00    -0.178 NA
HETATM    8  N   UNL     1      39.230 -10.782  10.825  1.00  0.00    -0.288 N 
HETATM    9  H   UNL     1      38.221 -10.818  10.932  1.00  0.00     0.188 HD
HETATM   10  C   UNL     1      39.955 -10.823   9.681  1.00  0.00     0.128 A 
BRANCH   6  11
HETATM   11  C   UNL     1      42.370 -10.637  12.517  1.00  0.00     0.040 C 
HETATM   12  C   UNL     1      43.422  -9.528  12.368  1.00  0.00     0.011 C 
HETATM   13  C   UNL     1      42.869  -8.148  12.715  1.00  0.00     0.001 C 
HETATM   14  C   UNL     1      42.310  -8.119  14.136  1.00  0.00     0.000 C 
HETATM   15  C   UNL     1      41.299  -9.236  14.374  1.00  0.00     0.001 C 
HETATM   16  C   UNL     1      41.859 -10.604  13.979  1.00  0.00     0.011 C 
ENDBRANCH   6  11
ENDBRANCH   2   5
BRANCH   1  17
HETATM   17  C   UNL     1      44.371 -12.016   8.406  1.00  0.00     0.154 C 
BRANCH  17  18
HETATM   18  C   UNL     1      45.693 -12.125   9.184  1.00  0.00     0.028 C 
HETATM   19  C   UNL     1      45.559 -11.970  10.696  1.00  0.00     0.007 C 
ENDBRANCH  17  18
BRANCH  17  20
HETATM   20  C   UNL     1      44.076 -13.258   7.614  1.00  0.00     0.127 A 
HETATM   21  N   UNL     1      44.630 -14.446   7.775  1.00  0.00    -0.237 NA
HETATM   22  C   UNL     1      44.055 -15.261   6.830  1.00  0.00     0.048 A 
HETATM   23  C   UNL     1      44.456 -16.679   6.703  1.00  0.00     0.072 C 
HETATM   24  C   UNL     1      43.125 -14.558   6.097  1.00  0.00     0.116 A 
HETATM   25  N   UNL     1      43.142 -13.290   6.608  1.00  0.00    -0.351 N 
HETATM   26  H   UNL     1      42.575 -12.511   6.301  1.00  0.00     0.166 HD
ENDBRANCH  17  20
ENDBRANCH   1  17
TORSDOF 5
ENDMDL
MODEL 4
REMARK VINA RESULT:      -6.9      2.196      5.476
REMARK  5 active torsions:
REMARK  status: ('A' for Active; 'I' for Inactive)
REMARK    1  A    between atoms: C_2  and  C_3 
REMARK    2  A    between atoms: C_3  and  N_4 
REMARK    3  A    between atoms: C_3  and  C_19 
REMARK       I    between atoms: N_4  and  C_5 
REMARK    4  A    between atoms: C_5  and  C_6 
REMARK    5  A    between atoms: C_7  and  C_8 
ROOT
HETATM    1  N   UNL     1      43.113 -18.255   5.843  1.00  0.00    -0.345 N 
HETATM    2  C   UNL     1      43.181 -16.890   5.932  1.00  0.00     0.255 C 
HETATM    3  O   UNL     1      44.156 -16.293   6.372  1.00  0.00    -0.268 OA
HETATM    4  H   UNL     1      42.272 -18.704   5.495  1.00  0.00     0.163 HD
ENDROOT
BRANCH   2   5
HETATM    5  C   UNL     1      42.007 -16.224   5.404  1.00  0.00     0.075 A 
HETATM    6  C   UNL     1      41.755 -15.586   4.147  1.00  0.00     0.076 A 
HETATM    7  N   UNL     1      40.505 -15.084   4.120  1.00  0.00    -0.178 NA
HETATM    8  N   UNL     1      39.967 -15.426   5.292  1.00  0.00    -0.288 N 
HETATM    9  H   UNL     1      39.004 -15.160   5.472  1.00  0.00     0.188 HD
HETATM   10  C   UNL     1      40.824 -16.083   6.109  1.00  0.00     0.128 A 
BRANCH   6  11
HETATM   11  C   UNL     1      42.677 -15.283   2.974  1.00  0.00     0.040 C 
HETATM   12  C   UNL     1      43.545 -16.450   2.479  1.00  0.00     0.011 C 
HETATM   13  C   UNL     1      42.726 -17.530   1.777  1.00  0.00     0.001 C 
HETATM   14  C   UNL     1      41.947 -16.953   0.597  1.00  0.00     0.000 C 
HETATM   15  C   UNL     1      41.105 -15.748   1.006  1.00  0.00     0.001 C 
HETATM   16  C   UNL     1      41.937 -14.697   1.745  1.00  0.00     0.011 C 
ENDBRANCH   6  11
ENDBRANCH   2   5
BRANCH   1  17
HETATM   17  C   UNL     1      44.187 -19.129   6.262  1.00  0.00     0.154 C 
BRANCH  17  18
HETATM   18  C   UNL     1      43.949 -19.748   7.649  1.00  0.00     0.028 C 
HETATM   19  C   UNL     1      44.311 -18.844   8.823  1.00  0.00     0.007 C 
ENDBRANCH  17  18
BRANCH  17  20
HETATM   20  C   UNL     1      44.340 -20.174   5.193  1.00  0.00     0.127 A 
HETATM   21  N   UNL     1      44.192 -20.000   3.892  1.00  0.00    -0.237 NA
HETATM   22  C   UNL     1      44.423 -21.227   3.319  1.00  0.00     0.048 A 
HETATM   23  C   UNL     1      44.323 -21.412   1.855  1.00  0.00     0.072 C 
HETATM   24  C   UNL     1      44.732 -22.154   4.288  1.00  0.00     0.116 A 
HETATM   25  N   UNL     1      44.683 -21.474   5.472  1.00  0.00    -0.351 N 
HETATM   26  H   UNL     1      44.863 -21.855   6.392  1.00  0.00     0.166 HD
ENDBRANCH  17  20
ENDBRANCH   1  17
TORSDOF 5
ENDMDL
MODEL 5
REMARK VINA RESULT:      -6.8      3.324      5.119
REMARK  5 active torsions:
REMARK  status: ('A' for Active; 'I' for Inactive)
REMARK    1  A    between atoms: C_2  and  C_3 
REMARK    2  A    between atoms: C_3  and  N_4 
REMARK    3  A    between atoms: C_3  and  C_19 
REMARK       I    between atoms: N_4  and  C_5 
REMARK    4  A    between atoms: C_5  and  C_6 
REMARK    5  A    between atoms: C_7  and  C_8 
ROOT
HETATM    1  N   UNL     1      42.276 -15.778   1.818  1.00  0.00    -0.345 N 
HETATM    2  C   UNL     1      41.715 -16.945   2.260  1.00  0.00     0.255 C 
HETATM    3  O   UNL     1      40.505 -17.117   2.353  1.00  0.00    -0.268 OA
HETATM    4  H   UNL     1      43.286 -15.675   1.784  1.00  0.00     0.163 HD
ENDROOT
BRANCH   2   5
HETATM    5  C   UNL     1      42.693 -17.973   2.556  1.00  0.00     0.075 A 
HETATM    6  C   UNL     1      43.036 -18.644   3.774  1.00  0.00     0.076 A 
HETATM    7  N   UNL     1      44.036 -19.520   3.560  1.00  0.00    -0.178 NA
HETATM    8  N   UNL     1      44.291 -19.445   2.252  1.00  0.00    -0.288 N 
HETATM    9  H   UNL     1      45.009 -20.052   1.869  1.00  0.00     0.188 HD
HETATM   10  C   UNL     1      43.540 -18.520   1.608  1.00  0.00     0.128 A 
BRANCH   6  11
HETATM   11  C   UNL     1      42.570 -18.421   5.207  1.00  0.00     0.040 C 
HETATM   12  C   UNL     1      43.508 -18.933   6.309  1.00  0.00     0.011 C 
HETATM   13  C   UNL     1      44.788 -18.108   6.418  1.00  0.00     0.001 C 
HETATM   14  C   UNL     1      44.476 -16.635   6.673  1.00  0.00     0.000 C 
HETATM   15  C   UNL     1      43.498 -16.074   5.644  1.00  0.00     0.001 C 
HETATM   16  C   UNL     1      42.242 -16.939   5.522  1.00  0.00     0.011 C 
ENDBRANCH   6  11
ENDBRANCH   2   5
BRANCH   1  17
HETATM   17  C   UNL     1      41.496 -14.628   1.415  1.00  0.00     0.154 C 
BRANCH  17  18
HETATM   18  C   UNL     1      42.107 -13.296   1.882  1.00  0.00     0.028 C 
HETATM   19  C   UNL     1      42.896 -13.377   3.185  1.00  0.00     0.007 C 
ENDBRANCH  17  18
BRANCH  17  20
HETATM   20  C   UNL     1      41.358 -14.696  -0.079  1.00  0.00     0.127 A 
HETATM   21  N   UNL     1      41.661 -13.744  -0.944  1.00  0.00    -0.237 NA
HETATM   22  C   UNL     1      41.366 -14.253  -2.185  1.00  0.00     0.048 A 
HETATM   23  C   UNL     1      41.565 -13.443  -3.406  1.00  0.00     0.072 C 
HETATM   24  C   UNL     1      40.894 -15.541  -2.070  1.00  0.00     0.116 A 
HETATM   25  N   UNL     1      40.899 -15.813  -0.730  1.00  0.00    -0.351 N 
HETATM   26  H   UNL     1      40.614 -16.679  -0.293  1.00  0.00     0.166 HD
ENDBRANCH  17  20
ENDBRANCH   1  17
TORSDOF 5
ENDMDL
MODEL 6
REMARK VINA RESULT:      -6.7      2.465      6.132
REMARK  5 active torsions:
REMARK  status: ('A' for Active; 'I' for Inactive)
REMARK    1  A    between atoms: C_2  and  C_3 
REMARK    2  A    between atoms: C_3  and  N_4 
REMARK    3  A    between atoms: C_3  and  C_19 
REMARK       I    between atoms: N_4  and  C_5 
REMARK    4  A    between atoms: C_5  and  C_6 
REMARK    5  A    between atoms: C_7  and  C_8 
ROOT
HETATM    1  N   UNL     1      42.985 -17.615   4.076  1.00  0.00    -0.345 N 
HETATM    2  C   UNL     1      42.970 -16.729   3.032  1.00  0.00     0.255 C 
HETATM    3  O   UNL     1      43.984 -16.344   2.462  1.00  0.00    -0.268 OA
HETATM    4  H   UNL     1      42.119 -17.883   4.533  1.00  0.00     0.163 HD
ENDROOT
BRANCH   2   5
HETATM    5  C   UNL     1      41.632 -16.336   2.636  1.00  0.00     0.075 A 
HETATM    6  C   UNL     1      40.662 -15.488   3.260  1.00  0.00     0.076 A 
HETATM    7  N   UNL     1      39.539 -15.438   2.518  1.00  0.00    -0.178 NA
HETATM    8  N   UNL     1      39.797 -16.186   1.444  1.00  0.00    -0.288 N 
HETATM    9  H   UNL     1      39.078 -16.266   0.731  1.00  0.00     0.188 HD
HETATM   10  C   UNL     1      41.020 -16.769   1.473  1.00  0.00     0.128 A 
BRANCH   6  11
HETATM   11  C   UNL     1      40.658 -14.799   4.618  1.00  0.00     0.040 C 
HETATM   12  C   UNL     1      42.030 -14.382   5.167  1.00  0.00     0.011 C 
HETATM   13  C   UNL     1      42.642 -13.219   4.389  1.00  0.00     0.001 C 
HETATM   14  C   UNL     1      41.715 -12.006   4.390  1.00  0.00     0.000 C 
HETATM   15  C   UNL     1      40.311 -12.362   3.910  1.00  0.00     0.001 C 
HETATM   16  C   UNL     1      39.734 -13.556   4.674  1.00  0.00     0.011 C 
ENDBRANCH   6  11
ENDBRANCH   2   5
BRANCH   1  17
HETATM   17  C   UNL     1      44.202 -18.185   4.612  1.00  0.00     0.154 C 
BRANCH  17  18
HETATM   18  C   UNL     1      44.235 -18.191   6.149  1.00  0.00     0.028 C 
HETATM   19  C   UNL     1      44.435 -16.821   6.789  1.00  0.00     0.007 C 
ENDBRANCH  17  18
BRANCH  17  20
HETATM   20  C   UNL     1      44.326 -19.567   4.037  1.00  0.00     0.127 A 
HETATM   21  N   UNL     1      44.086 -19.927   2.788  1.00  0.00    -0.237 NA
HETATM   22  C   UNL     1      44.326 -21.279   2.733  1.00  0.00     0.048 A 
HETATM   23  C   UNL     1      44.138 -22.033   1.474  1.00  0.00     0.072 C 
HETATM   24  C   UNL     1      44.734 -21.741   3.963  1.00  0.00     0.116 A 
HETATM   25  N   UNL     1      44.736 -20.645   4.781  1.00  0.00    -0.351 N 
HETATM   26  H   UNL     1      44.990 -20.627   5.760  1.00  0.00     0.166 HD
ENDBRANCH  17  20
ENDBRANCH   1  17
TORSDOF 5
ENDMDL
MODEL 7
REMARK VINA RESULT:      -6.7      2.630      4.666
REMARK  5 active torsions:
REMARK  status: ('A' for Active; 'I' for Inactive)
REMARK    1  A    between atoms: C_2  and  C_3 
REMARK    2  A    between atoms: C_3  and  N_4 
REMARK    3  A    between atoms: C_3  and  C_19 
REMARK       I    between atoms: N_4  and  C_5 
REMARK    4  A    between atoms: C_5  and  C_6 
REMARK    5  A    between atoms: C_7  and  C_8 
ROOT
HETATM    1  N   UNL     1      41.193 -14.458   3.853  1.00  0.00    -0.345 N 
HETATM    2  C   UNL     1      41.924 -14.116   2.747  1.00  0.00     0.255 C 
HETATM    3  O   UNL     1      42.732 -13.195   2.734  1.00  0.00    -0.268 OA
HETATM    4  H   UNL     1      40.516 -15.213   3.806  1.00  0.00     0.163 HD
ENDROOT
BRANCH   2   5
HETATM    5  C   UNL     1      41.685 -14.985   1.612  1.00  0.00     0.075 A 
HETATM    6  C   UNL     1      42.372 -16.149   1.138  1.00  0.00     0.076 A 
HETATM    7  N   UNL     1      41.786 -16.614   0.019  1.00  0.00    -0.178 NA
HETATM    8  N   UNL     1      40.743 -15.809  -0.190  1.00  0.00    -0.288 N 
HETATM    9  H   UNL     1      40.141 -15.999  -0.985  1.00  0.00     0.188 HD
HETATM   10  C   UNL     1      40.648 -14.803   0.713  1.00  0.00     0.128 A 
BRANCH   6  11
HETATM   11  C   UNL     1      43.666 -16.806   1.600  1.00  0.00     0.040 C 
HETATM   12  C   UNL     1      43.915 -16.815   3.115  1.00  0.00     0.011 C 
HETATM   13  C   UNL     1      42.972 -17.759   3.857  1.00  0.00     0.001 C 
HETATM   14  C   UNL     1      43.087 -19.185   3.324  1.00  0.00     0.000 C 
HETATM   15  C   UNL     1      42.908 -19.244   1.810  1.00  0.00     0.001 C 
HETATM   16  C   UNL     1      43.832 -18.260   1.090  1.00  0.00     0.011 C 
ENDBRANCH   6  11
ENDBRANCH   2   5
BRANCH   1  17
HETATM   17  C   UNL     1      41.302 -13.765   5.118  1.00  0.00     0.154 C 
BRANCH  17  18
HETATM   18  C   UNL     1      39.944 -13.575   5.816  1.00  0.00     0.028 C 
HETATM   19  C   UNL     1      39.816 -12.288   6.624  1.00  0.00     0.007 C 
ENDBRANCH  17  18
BRANCH  17  20
HETATM   20  C   UNL     1      42.268 -14.547   5.962  1.00  0.00     0.127 A 
HETATM   21  N   UNL     1      42.094 -15.768   6.434  1.00  0.00    -0.237 NA
HETATM   22  C   UNL     1      43.230 -16.063   7.147  1.00  0.00     0.048 A 
HETATM   23  C   UNL     1      43.378 -17.361   7.841  1.00  0.00     0.072 C 
HETATM   24  C   UNL     1      44.114 -15.009   7.091  1.00  0.00     0.116 A 
HETATM   25  N   UNL     1      43.495 -14.055   6.331  1.00  0.00    -0.351 N 
HETATM   26  H   UNL     1      43.868 -13.148   6.085  1.00  0.00     0.166 HD
ENDBRANCH  17  20
ENDBRANCH   1  17
TORSDOF 5
ENDMDL
MODEL 8
REMARK VINA RESULT:      -6.6      2.177      3.047
REMARK  5 active torsions:
REMARK  status: ('A' for Active; 'I' for Inactive)
REMARK    1  A    between atoms: C_2  and  C_3 
REMARK    2  A    between atoms: C_3  and  N_4 
REMARK    3  A    between atoms: C_3  and  C_19 
REMARK       I    between atoms: N_4  and  C_5 
REMARK    4  A    between atoms: C_5  and  C_6 
REMARK    5  A    between atoms: C_7  and  C_8 
ROOT
HETATM    1  N   UNL     1      42.156 -14.568   4.790  1.00  0.00    -0.345 N 
HETATM    2  C   UNL     1      41.884 -15.647   5.588  1.00  0.00     0.255 C 
HETATM    3  O   UNL     1      40.796 -15.834   6.119  1.00  0.00    -0.268 OA
HETATM    4  H   UNL     1      43.082 -14.444   4.394  1.00  0.00     0.163 HD
ENDROOT
BRANCH   2   5
HETATM    5  C   UNL     1      42.997 -16.570   5.699  1.00  0.00     0.075 A 
HETATM    6  C   UNL     1      43.357 -17.727   4.936  1.00  0.00     0.076 A 
HETATM    7  N   UNL     1      44.479 -18.283   5.432  1.00  0.00    -0.178 NA
HETATM    8  N   UNL     1      44.845 -17.489   6.440  1.00  0.00    -0.288 N 
HETATM    9  H   UNL     1      45.695 -17.718   6.946  1.00  0.00     0.188 HD
HETATM   10  C   UNL     1      43.984 -16.467   6.664  1.00  0.00     0.128 A 
BRANCH   6  11
HETATM   11  C   UNL     1      42.627 -18.457   3.816  1.00  0.00     0.040 C 
HETATM   12  C   UNL     1      41.805 -17.577   2.862  1.00  0.00     0.011 C 
HETATM   13  C   UNL     1      42.683 -16.715   1.959  1.00  0.00     0.001 C 
HETATM   14  C   UNL     1      43.645 -17.574   1.142  1.00  0.00     0.000 C 
HETATM   15  C   UNL     1      44.456 -18.519   2.024  1.00  0.00     0.001 C 
HETATM   16  C   UNL     1      43.559 -19.342   2.951  1.00  0.00     0.011 C 
ENDBRANCH   6  11
ENDBRANCH   2   5
BRANCH   1  17
HETATM   17  C   UNL     1      41.183 -13.539   4.493  1.00  0.00     0.154 C 
BRANCH  17  18
HETATM   18  C   UNL     1      41.808 -12.140   4.370  1.00  0.00     0.028 C 
HETATM   19  C   UNL     1      40.856 -10.986   4.667  1.00  0.00     0.007 C 
ENDBRANCH  17  18
BRANCH  17  20
HETATM   20  C   UNL     1      40.477 -13.958   3.234  1.00  0.00     0.127 A 
HETATM   21  N   UNL     1      40.730 -13.532   2.009  1.00  0.00    -0.237 NA
HETATM   22  C   UNL     1      39.837 -14.181   1.192  1.00  0.00     0.048 A 
HETATM   23  C   UNL     1      39.818 -13.930  -0.265  1.00  0.00     0.072 C 
HETATM   24  C   UNL     1      39.043 -15.028   1.933  1.00  0.00     0.116 A 
HETATM   25  N   UNL     1      39.462 -14.882   3.226  1.00  0.00    -0.351 N 
HETATM   26  H   UNL     1      39.093 -15.363   4.035  1.00  0.00     0.166 HD
ENDBRANCH  17  20
ENDBRANCH   1  17
TORSDOF 5
ENDMDL
MODEL 9
REMARK VINA RESULT:      -6.4      3.498      6.033
REMARK  5 active torsions:
REMARK  status: ('A' for Active; 'I' for Inactive)
REMARK    1  A    between atoms: C_2  and  C_3 
REMARK    2  A    between atoms: C_3  and  N_4 
REMARK    3  A    between atoms: C_3  and  C_19 
REMARK       I    between atoms: N_4  and  C_5 
REMARK    4  A    between atoms: C_5  and  C_6 
REMARK    5  A    between atoms: C_7  and  C_8 
ROOT
HETATM    1  N   UNL     1      41.354 -11.513   7.444  1.00  0.00    -0.345 N 
HETATM    2  C   UNL     1      41.330 -11.789   6.103  1.00  0.00     0.255 C 
HETATM    3  O   UNL     1      41.700 -10.996   5.246  1.00  0.00    -0.268 OA
HETATM    4  H   UNL     1      41.012 -12.194   8.114  1.00  0.00     0.163 HD
ENDROOT
BRANCH   2   5
HETATM    5  C   UNL     1      40.874 -13.133   5.805  1.00  0.00     0.075 A 
HETATM    6  C   UNL     1      41.569 -14.298   5.347  1.00  0.00     0.076 A 
HETATM    7  N   UNL     1      40.710 -15.323   5.190  1.00  0.00    -0.178 NA
HETATM    8  N   UNL     1      39.524 -14.847   5.575  1.00  0.00    -0.288 N 
HETATM    9  H   UNL     1      38.727 -15.474   5.557  1.00  0.00     0.188 HD
HETATM   10  C   UNL     1      39.556 -13.538   5.926  1.00  0.00     0.128 A 
BRANCH   6  11
HETATM   11  C   UNL     1      43.011 -14.493   4.900  1.00  0.00     0.040 C 
HETATM   12  C   UNL     1      44.092 -14.075   5.908  1.00  0.00     0.011 C 
HETATM   13  C   UNL     1      44.160 -15.009   7.114  1.00  0.00     0.001 C 
HETATM   14  C   UNL     1      44.412 -16.452   6.681  1.00  0.00     0.000 C 
HETATM   15  C   UNL     1      43.407 -16.916   5.632  1.00  0.00     0.001 C 
HETATM   16  C   UNL     1      43.324 -15.944   4.453  1.00  0.00     0.011 C 
ENDBRANCH   6  11
ENDBRANCH   2   5
BRANCH   1  17
HETATM   17  C   UNL     1      41.819 -10.253   7.983  1.00  0.00     0.154 C 
BRANCH  17  18
HETATM   18  C   UNL     1      40.687  -9.230   8.176  1.00  0.00     0.028 C 
HETATM   19  C   UNL     1      39.337  -9.834   8.552  1.00  0.00     0.007 C 
ENDBRANCH  17  18
BRANCH  17  20
HETATM   20  C   UNL     1      42.526 -10.565   9.271  1.00  0.00     0.127 A 
HETATM   21  N   UNL     1      42.531  -9.828  10.368  1.00  0.00    -0.237 NA
HETATM   22  C   UNL     1      43.309 -10.505  11.274  1.00  0.00     0.048 A 
HETATM   23  C   UNL     1      43.555  -9.956  12.626  1.00  0.00     0.072 C 
HETATM   24  C   UNL     1      43.768 -11.680  10.723  1.00  0.00     0.116 A 
HETATM   25  N   UNL     1      43.260 -11.710   9.454  1.00  0.00    -0.351 N 
HETATM   26  H   UNL     1      43.400 -12.440   8.769  1.00  0.00     0.166 HD
ENDBRANCH  17  20
ENDBRANCH   1  17
TORSDOF 5
ENDMDL
MODEL 10
REMARK VINA RESULT:      -6.4      1.835      6.280
REMARK  5 active torsions:
REMARK  status: ('A' for Active; 'I' for Inactive)
REMARK    1  A    between atoms: C_2  and  C_3 
REMARK    2  A    between atoms: C_3  and  N_4 
REMARK    3  A    between atoms: C_3  and  C_19 
REMARK       I    between atoms: N_4  and  C_5 
REMARK    4  A    between atoms: C_5  and  C_6 
REMARK    5  A    between atoms: C_7  and  C_8 
ROOT
HETATM    1  N   UNL     1      43.223 -17.868   3.809  1.00  0.00    -0.345 N 
HETATM    2  C   UNL     1      42.314 -17.564   4.788  1.00  0.00     0.255 C 
HETATM    3  O   UNL     1      41.189 -18.045   4.833  1.00  0.00    -0.268 OA
HETATM    4  H   UNL     1      44.134 -17.422   3.801  1.00  0.00     0.163 HD
ENDROOT
BRANCH   2   5
HETATM    5  C   UNL     1      42.838 -16.658   5.791  1.00  0.00     0.075 A 
HETATM    6  C   UNL     1      42.985 -15.233   5.809  1.00  0.00     0.076 A 
HETATM    7  N   UNL     1      43.548 -14.836   6.966  1.00  0.00    -0.178 NA
HETATM    8  N   UNL     1      43.714 -15.954   7.676  1.00  0.00    -0.288 N 
HETATM    9  H   UNL     1      44.111 -15.877   8.607  1.00  0.00     0.188 HD
HETATM   10  C   UNL     1      43.334 -17.074   7.015  1.00  0.00     0.128 A 
BRANCH   6  11
HETATM   11  C   UNL     1      42.749 -14.188   4.728  1.00  0.00     0.040 C 
HETATM   12  C   UNL     1      41.707 -14.548   3.658  1.00  0.00     0.011 C 
HETATM   13  C   UNL     1      40.282 -14.549   4.205  1.00  0.00     0.001 C 
HETATM   14  C   UNL     1      39.925 -13.196   4.815  1.00  0.00     0.000 C 
HETATM   15  C   UNL     1      40.953 -12.747   5.849  1.00  0.00     0.001 C 
HETATM   16  C   UNL     1      42.377 -12.794   5.292  1.00  0.00     0.011 C 
ENDBRANCH   6  11
ENDBRANCH   2   5
BRANCH   1  17
HETATM   17  C   UNL     1      42.943 -18.789   2.729  1.00  0.00     0.154 C 
BRANCH  17  18
HETATM   18  C   UNL     1      43.354 -18.241   1.353  1.00  0.00     0.028 C 
HETATM   19  C   UNL     1      44.280 -17.029   1.399  1.00  0.00     0.007 C 
ENDBRANCH  17  18
BRANCH  17  20
HETATM   20  C   UNL     1      43.645 -20.075   3.061  1.00  0.00     0.127 A 
HETATM   21  N   UNL     1      44.127 -20.430   4.238  1.00  0.00    -0.237 NA
HETATM   22  C   UNL     1      44.680 -21.675   4.060  1.00  0.00     0.048 A 
HETATM   23  C   UNL     1      45.340 -22.381   5.180  1.00  0.00     0.072 C 
HETATM   24  C   UNL     1      44.514 -22.087   2.757  1.00  0.00     0.116 A 
HETATM   25  N   UNL     1      43.850 -21.067   2.134  1.00  0.00    -0.351 N 
HETATM   26  H   UNL     1      43.563 -21.041   1.165  1.00  0.00     0.166 HD
ENDBRANCH  17  20
ENDBRANCH   1  17
TORSDOF 5
ENDMDL
