MODEL 1
REMARK VINA RESULT:      -8.2      0.000      0.000
REMARK  7 active torsions:
REMARK  status: ('A' for Active; 'I' for Inactive)
REMARK    1  A    between atoms: C_7  and  C_8 
REMARK    2  A    between atoms: C_8  and  C_9 
REMARK    3  A    between atoms: C_9  and  C_10 
REMARK    4  A    between atoms: C_10  and  O_11 
REMARK    5  A    between atoms: C_13  and  C_14 
REMARK    6  A    between atoms: C_21  and  C_22 
REMARK       I    between atoms: C_22  and  N_23 
REMARK    7  A    between atoms: N_23  and  C_24 
ROOT
HETATM    1  C   UNL     1      44.557 -15.287   6.763  1.00  0.00     0.070 C 
HETATM    2  C   UNL     1      43.315 -14.616   6.229  1.00  0.00     0.037 C 
HETATM    3  N   UNL     1      43.164 -13.276   6.570  1.00  0.00    -0.192 N 
HETATM    4  C   UNL     1      42.018 -12.595   6.378  1.00  0.00     0.726 A 
HETATM    5  N   UNL     1      40.994 -13.179   5.683  1.00  0.00    -0.083 N 
HETATM    6  N   UNL     1      39.902 -12.386   5.656  1.00  0.00    -0.140 NA
HETATM    7  C   UNL     1      40.351 -11.317   6.330  1.00  0.00     0.166 A 
HETATM    8  N   UNL     1      41.646 -11.409   6.785  1.00  0.00    -0.046 NA
HETATM    9  C   UNL     1      41.055 -14.530   5.114  1.00  0.00     0.202 C 
HETATM   10  C   UNL     1      42.342 -15.242   5.521  1.00  0.00     0.062 C 
HETATM   11  H   UNL     1      43.866 -12.862   7.176  1.00  0.00     0.184 HD
ENDROOT
BRANCH  10  12
HETATM   12  C   UNL     1      42.363 -16.684   5.162  1.00  0.00     0.256 C 
HETATM   13  N   UNL     1      43.322 -17.001   4.225  1.00  0.00    -0.323 N 
HETATM   14  H   UNL     1      43.900 -16.243   3.885  1.00  0.00     0.169 HD
HETATM   15  O   UNL     1      41.531 -17.426   5.665  1.00  0.00    -0.267 OA
BRANCH  13  16
HETATM   16  C   UNL     1      43.595 -18.274   3.682  1.00  0.00     0.035 A 
HETATM   17  C   UNL     1      44.387 -19.237   4.312  1.00  0.00     0.031 A 
HETATM   18  C   UNL     1      44.616 -20.477   3.704  1.00  0.00     0.026 A 
HETATM   19  C   UNL     1      44.057 -20.755   2.460  1.00  0.00     0.034 A 
HETATM   20 CL   UNL     1      44.346 -22.276   1.710  1.00  0.00    -0.084 Cl
HETATM   21  C   UNL     1      43.267 -19.806   1.821  1.00  0.00     0.026 A 
HETATM   22  C   UNL     1      43.033 -18.570   2.433  1.00  0.00     0.031 A 
ENDBRANCH  13  16
ENDBRANCH  10  12
BRANCH   9  23
HETATM   23  C   UNL     1      40.887 -14.480   3.596  1.00  0.00    -0.025 A 
HETATM   24  C   UNL     1      41.771 -13.704   2.828  1.00  0.00     0.052 A 
HETATM   25  C   UNL     1      41.617 -13.632   1.447  1.00  0.00     0.117 A 
HETATM   26  F   UNL     1      42.471 -12.891   0.727  1.00  0.00    -0.206 F 
HETATM   27  C   UNL     1      40.593 -14.313   0.802  1.00  0.00     0.042 A 
HETATM   28  C   UNL     1      39.703 -15.080   1.550  1.00  0.00     0.004 A 
HETATM   29  C   UNL     1      39.846 -15.162   2.939  1.00  0.00     0.010 A 
ENDBRANCH   9  23
BRANCH   7  30
HETATM   30  C   UNL     1      39.509 -10.119   6.578  1.00  0.00     0.085 C 
BRANCH  30  31
HETATM   31  C   UNL     1      39.456  -9.710   8.047  1.00  0.00     0.034 C 
BRANCH  31  32
HETATM   32  C   UNL     1      39.075 -10.861   8.971  1.00  0.00     0.164 C 
BRANCH  32  33
HETATM   33  O   UNL     1      40.244 -11.378   9.597  1.00  0.00    -0.401 OA
HETATM   34  H   UNL     1      40.515 -10.744  10.283  1.00  0.00     0.209 HD
ENDBRANCH  32  33
ENDBRANCH  31  32
ENDBRANCH  30  31
ENDBRANCH   7  30
TORSDOF 7
ENDMDL
MODEL 2
REMARK VINA RESULT:      -8.1      1.215      1.486
REMARK  7 active torsions:
REMARK  status: ('A' for Active; 'I' for Inactive)
REMARK    1  A    between atoms: C_7  and  C_8 
REMARK    2  A    between atoms: C_8  and  C_9 
REMARK    3  A    between atoms: C_9  and  C_10 
REMARK    4  A    between atoms: C_10  and  O_11 
REMARK    5  A    between atoms: C_13  and  C_14 
REMARK    6  A    between atoms: C_21  and  C_22 
REMARK       I    between atoms: C_22  and  N_23 
REMARK    7  A    between atoms: N_23  and  C_24 
ROOT
HETATM    1  C   UNL     1      44.524 -15.200   6.752  1.00  0.00     0.070 C 
HETATM    2  C   UNL     1      43.279 -14.564   6.184  1.00  0.00     0.037 C 
HETATM    3  N   UNL     1      43.100 -13.219   6.490  1.00  0.00    -0.192 N 
HETATM    4  C   UNL     1      41.945 -12.563   6.265  1.00  0.00     0.726 A 
HETATM    5  N   UNL     1      40.942 -13.181   5.571  1.00  0.00    -0.083 N 
HETATM    6  N   UNL     1      39.837 -12.408   5.509  1.00  0.00    -0.140 NA
HETATM    7  C   UNL     1      40.258 -11.316   6.163  1.00  0.00     0.166 A 
HETATM    8  N   UNL     1      41.548 -11.374   6.638  1.00  0.00    -0.046 NA
HETATM    9  C   UNL     1      41.034 -14.544   5.036  1.00  0.00     0.202 C 
HETATM   10  C   UNL     1      42.326 -15.224   5.478  1.00  0.00     0.062 C 
HETATM   11  H   UNL     1      43.786 -12.778   7.096  1.00  0.00     0.184 HD
ENDROOT
BRANCH  10  12
HETATM   12  C   UNL     1      42.377 -16.673   5.154  1.00  0.00     0.256 C 
HETATM   13  N   UNL     1      43.291 -16.983   4.171  1.00  0.00    -0.323 N 
HETATM   14  H   UNL     1      43.822 -16.216   3.780  1.00  0.00     0.169 HD
HETATM   15  O   UNL     1      41.601 -17.429   5.723  1.00  0.00    -0.267 OA
BRANCH  13  16
HETATM   16  C   UNL     1      43.577 -18.260   3.645  1.00  0.00     0.035 A 
HETATM   17  C   UNL     1      44.334 -19.227   4.312  1.00  0.00     0.031 A 
HETATM   18  C   UNL     1      44.578 -20.472   3.719  1.00  0.00     0.026 A 
HETATM   19  C   UNL     1      44.071 -20.750   2.453  1.00  0.00     0.034 A 
HETATM   20 CL   UNL     1      44.379 -22.276   1.722  1.00  0.00    -0.084 Cl
HETATM   21  C   UNL     1      43.316 -19.797   1.778  1.00  0.00     0.026 A 
HETATM   22  C   UNL     1      43.066 -18.558   2.374  1.00  0.00     0.031 A 
ENDBRANCH  13  16
ENDBRANCH  10  12
BRANCH   9  23
HETATM   23  C   UNL     1      40.887 -14.534   3.515  1.00  0.00    -0.025 A 
HETATM   24  C   UNL     1      41.760 -13.751   2.741  1.00  0.00     0.052 A 
HETATM   25  C   UNL     1      41.625 -13.715   1.357  1.00  0.00     0.117 A 
HETATM   26  F   UNL     1      42.468 -12.967   0.632  1.00  0.00    -0.206 F 
HETATM   27  C   UNL     1      40.629 -14.439   0.714  1.00  0.00     0.042 A 
HETATM   28  C   UNL     1      39.750 -15.213   1.467  1.00  0.00     0.004 A 
HETATM   29  C   UNL     1      39.874 -15.259   2.859  1.00  0.00     0.010 A 
ENDBRANCH   9  23
BRANCH   7  30
HETATM   30  C   UNL     1      39.393 -10.126   6.370  1.00  0.00     0.085 C 
BRANCH  30  31
HETATM   31  C   UNL     1      39.348  -9.193   5.163  1.00  0.00     0.034 C 
BRANCH  31  32
HETATM   32  C   UNL     1      38.042  -9.292   4.383  1.00  0.00     0.164 C 
BRANCH  32  33
HETATM   33  O   UNL     1      37.596 -10.644   4.369  1.00  0.00    -0.401 OA
HETATM   34  H   UNL     1      38.361 -11.208   4.574  1.00  0.00     0.209 HD
ENDBRANCH  32  33
ENDBRANCH  31  32
ENDBRANCH  30  31
ENDBRANCH   7  30
TORSDOF 7
ENDMDL
MODEL 3
REMARK VINA RESULT:      -7.7      2.678      4.130
REMARK  7 active torsions:
REMARK  status: ('A' for Active; 'I' for Inactive)
REMARK    1  A    between atoms: C_7  and  C_8 
REMARK    2  A    between atoms: C_8  and  C_9 
REMARK    3  A    between atoms: C_9  and  C_10 
REMARK    4  A    between atoms: C_10  and  O_11 
REMARK    5  A    between atoms: C_13  and  C_14 
REMARK    6  A    between atoms: C_21  and  C_22 
REMARK       I    between atoms: C_22  and  N_23 
REMARK    7  A    between atoms: N_23  and  C_24 
ROOT
HETATM    1  C   UNL     1      41.315 -15.790  -0.062  1.00  0.00     0.070 C 
HETATM    2  C   UNL     1      41.527 -15.084   1.254  1.00  0.00     0.037 C 
HETATM    3  N   UNL     1      40.807 -13.907   1.426  1.00  0.00    -0.192 N 
HETATM    4  C   UNL     1      41.047 -13.039   2.428  1.00  0.00     0.726 A 
HETATM    5  N   UNL     1      41.928 -13.378   3.417  1.00  0.00    -0.083 N 
HETATM    6  N   UNL     1      42.103 -12.363   4.290  1.00  0.00    -0.140 NA
HETATM    7  C   UNL     1      41.266 -11.447   3.781  1.00  0.00     0.166 A 
HETATM    8  N   UNL     1      40.599 -11.829   2.640  1.00  0.00    -0.046 NA
HETATM    9  C   UNL     1      42.650 -14.655   3.471  1.00  0.00     0.202 C 
HETATM   10  C   UNL     1      42.399 -15.482   2.213  1.00  0.00     0.062 C 
HETATM   11  H   UNL     1      40.230 -13.589   0.651  1.00  0.00     0.184 HD
ENDROOT
BRANCH  10  12
HETATM   12  C   UNL     1      43.271 -16.681   2.108  1.00  0.00     0.256 C 
HETATM   13  N   UNL     1      42.758 -17.789   2.745  1.00  0.00    -0.323 N 
HETATM   14  H   UNL     1      41.864 -17.680   3.208  1.00  0.00     0.169 HD
HETATM   15  O   UNL     1      44.347 -16.576   1.535  1.00  0.00    -0.267 OA
BRANCH  13  16
HETATM   16  C   UNL     1      43.339 -19.072   2.825  1.00  0.00     0.035 A 
HETATM   17  C   UNL     1      43.243 -20.036   1.818  1.00  0.00     0.031 A 
HETATM   18  C   UNL     1      43.844 -21.290   1.976  1.00  0.00     0.026 A 
HETATM   19  C   UNL     1      44.538 -21.586   3.145  1.00  0.00     0.034 A 
HETATM   20 CL   UNL     1      45.269 -23.131   3.341  1.00  0.00    -0.084 Cl
HETATM   21  C   UNL     1      44.642 -20.637   4.156  1.00  0.00     0.026 A 
HETATM   22  C   UNL     1      44.047 -19.382   3.994  1.00  0.00     0.031 A 
ENDBRANCH  13  16
ENDBRANCH  10  12
BRANCH   9  23
HETATM   23  C   UNL     1      42.287 -15.423   4.741  1.00  0.00    -0.025 A 
HETATM   24  C   UNL     1      43.301 -15.781   5.645  1.00  0.00     0.052 A 
HETATM   25  C   UNL     1      42.988 -16.499   6.795  1.00  0.00     0.117 A 
HETATM   26  F   UNL     1      43.965 -16.829   7.651  1.00  0.00    -0.206 F 
HETATM   27  C   UNL     1      41.681 -16.880   7.070  1.00  0.00     0.042 A 
HETATM   28  C   UNL     1      40.666 -16.541   6.180  1.00  0.00     0.004 A 
HETATM   29  C   UNL     1      40.966 -15.820   5.020  1.00  0.00     0.010 A 
ENDBRANCH   9  23
BRANCH   7  30
HETATM   30  C   UNL     1      41.076 -10.110   4.398  1.00  0.00     0.085 C 
BRANCH  30  31
HETATM   31  C   UNL     1      39.895 -10.050   5.363  1.00  0.00     0.034 C 
BRANCH  31  32
HETATM   32  C   UNL     1      38.572  -9.756   4.664  1.00  0.00     0.164 C 
BRANCH  32  33
HETATM   33  O   UNL     1      37.916 -10.980   4.349  1.00  0.00    -0.401 OA
HETATM   34  H   UNL     1      38.543 -11.703   4.525  1.00  0.00     0.209 HD
ENDBRANCH  32  33
ENDBRANCH  31  32
ENDBRANCH  30  31
ENDBRANCH   7  30
TORSDOF 7
ENDMDL
MODEL 4
REMARK VINA RESULT:      -7.6      4.487      8.634
REMARK  7 active torsions:
REMARK  status: ('A' for Active; 'I' for Inactive)
REMARK    1  A    between atoms: C_7  and  C_8 
REMARK    2  A    between atoms: C_8  and  C_9 
REMARK    3  A    between atoms: C_9  and  C_10 
REMARK    4  A    between atoms: C_10  and  O_11 
REMARK    5  A    between atoms: C_13  and  C_14 
REMARK    6  A    between atoms: C_21  and  C_22 
REMARK       I    between atoms: C_22  and  N_23 
REMARK    7  A    between atoms: N_23  and  C_24 
ROOT
HETATM    1  C   UNL     1      40.952 -15.397  -1.025  1.00  0.00     0.070 C 
HETATM    2  C   UNL     1      41.338 -15.898   0.345  1.00  0.00     0.037 C 
HETATM    3  N   UNL     1      42.446 -16.739   0.385  1.00  0.00    -0.192 N 
HETATM    4  C   UNL     1      42.785 -17.454   1.475  1.00  0.00     0.726 A 
HETATM    5  N   UNL     1      42.118 -17.248   2.651  1.00  0.00    -0.083 N 
HETATM    6  N   UNL     1      42.536 -18.102   3.610  1.00  0.00    -0.140 NA
HETATM    7  C   UNL     1      43.486 -18.777   2.948  1.00  0.00     0.166 A 
HETATM    8  N   UNL     1      43.669 -18.404   1.636  1.00  0.00    -0.046 NA
HETATM    9  C   UNL     1      41.031 -16.277   2.819  1.00  0.00     0.202 C 
HETATM   10  C   UNL     1      40.651 -15.640   1.485  1.00  0.00     0.062 C 
HETATM   11  H   UNL     1      42.884 -16.984  -0.499  1.00  0.00     0.184 HD
ENDROOT
BRANCH  10  12
HETATM   12  C   UNL     1      39.416 -14.816   1.550  1.00  0.00     0.256 C 
HETATM   13  N   UNL     1      39.661 -13.460   1.540  1.00  0.00    -0.323 N 
HETATM   14  H   UNL     1      40.629 -13.169   1.490  1.00  0.00     0.169 HD
HETATM   15  O   UNL     1      38.337 -15.382   1.656  1.00  0.00    -0.267 OA
BRANCH  13  16
HETATM   16  C   UNL     1      38.709 -12.421   1.589  1.00  0.00     0.035 A 
HETATM   17  C   UNL     1      37.720 -12.223   0.621  1.00  0.00     0.031 A 
HETATM   18  C   UNL     1      36.813 -11.163   0.739  1.00  0.00     0.026 A 
HETATM   19  C   UNL     1      36.896 -10.294   1.822  1.00  0.00     0.034 A 
HETATM   20 CL   UNL     1      35.787  -8.987   1.961  1.00  0.00    -0.084 Cl
HETATM   21  C   UNL     1      37.875 -10.478   2.793  1.00  0.00     0.026 A 
HETATM   22  C   UNL     1      38.776 -11.542   2.678  1.00  0.00     0.031 A 
ENDBRANCH  13  16
ENDBRANCH  10  12
BRANCH   9  23
HETATM   23  C   UNL     1      41.405 -15.228   3.865  1.00  0.00    -0.025 A 
HETATM   24  C   UNL     1      40.465 -14.862   4.843  1.00  0.00     0.052 A 
HETATM   25  C   UNL     1      40.783 -13.894   5.790  1.00  0.00     0.117 A 
HETATM   26  F   UNL     1      39.878 -13.558   6.719  1.00  0.00    -0.206 F 
HETATM   27  C   UNL     1      42.024 -13.267   5.787  1.00  0.00     0.042 A 
HETATM   28  C   UNL     1      42.963 -13.613   4.819  1.00  0.00     0.004 A 
HETATM   29  C   UNL     1      42.656 -14.585   3.862  1.00  0.00     0.010 A 
ENDBRANCH   9  23
BRANCH   7  30
HETATM   30  C   UNL     1      44.282 -19.860   3.581  1.00  0.00     0.085 C 
BRANCH  30  31
HETATM   31  C   UNL     1      44.948 -20.791   2.571  1.00  0.00     0.034 C 
BRANCH  31  32
HETATM   32  C   UNL     1      44.222 -22.123   2.423  1.00  0.00     0.164 C 
BRANCH  32  33
HETATM   33  O   UNL     1      44.747 -23.059   3.359  1.00  0.00    -0.401 OA
HETATM   34  H   UNL     1      44.170 -23.841   3.347  1.00  0.00     0.209 HD
ENDBRANCH  32  33
ENDBRANCH  31  32
ENDBRANCH  30  31
ENDBRANCH   7  30
TORSDOF 7
ENDMDL
MODEL 5
REMARK VINA RESULT:      -7.5      4.390      6.209
REMARK  7 active torsions:
REMARK  status: ('A' for Active; 'I' for Inactive)
REMARK    1  A    between atoms: C_7  and  C_8 
REMARK    2  A    between atoms: C_8  and  C_9 
REMARK    3  A    between atoms: C_9  and  C_10 
REMARK    4  A    between atoms: C_10  and  O_11 
REMARK    5  A    between atoms: C_13  and  C_14 
REMARK    6  A    between atoms: C_21  and  C_22 
REMARK       I    between atoms: C_22  and  N_23 
REMARK    7  A    between atoms: N_23  and  C_24 
ROOT
HETATM    1  C   UNL     1      40.901 -15.856  -2.152  1.00  0.00     0.070 C 
HETATM    2  C   UNL     1      41.245 -14.565  -1.451  1.00  0.00     0.037 C 
HETATM    3  N   UNL     1      41.290 -13.436  -2.262  1.00  0.00    -0.192 N 
HETATM    4  C   UNL     1      41.802 -12.259  -1.853  1.00  0.00     0.726 A 
HETATM    5  N   UNL     1      42.161 -12.098  -0.543  1.00  0.00    -0.083 N 
HETATM    6  N   UNL     1      42.723 -10.889  -0.332  1.00  0.00    -0.140 NA
HETATM    7  C   UNL     1      42.641 -10.356  -1.559  1.00  0.00     0.166 A 
HETATM    8  N   UNL     1      42.078 -11.167  -2.517  1.00  0.00    -0.046 NA
HETATM    9  C   UNL     1      42.024 -13.142   0.479  1.00  0.00     0.202 C 
HETATM   10  C   UNL     1      41.570 -14.461  -0.138  1.00  0.00     0.062 C 
HETATM   11  H   UNL     1      41.129 -13.563  -3.257  1.00  0.00     0.184 HD
ENDROOT
BRANCH  10  12
HETATM   12  C   UNL     1      41.626 -15.609   0.804  1.00  0.00     0.256 C 
HETATM   13  N   UNL     1      42.908 -16.037   1.072  1.00  0.00    -0.323 N 
HETATM   14  H   UNL     1      43.662 -15.541   0.613  1.00  0.00     0.169 HD
HETATM   15  O   UNL     1      40.575 -16.091   1.205  1.00  0.00    -0.267 OA
BRANCH  13  16
HETATM   16  C   UNL     1      43.294 -17.095   1.921  1.00  0.00     0.035 A 
HETATM   17  C   UNL     1      43.437 -16.971   3.305  1.00  0.00     0.031 A 
HETATM   18  C   UNL     1      43.829 -18.069   4.079  1.00  0.00     0.026 A 
HETATM   19  C   UNL     1      44.087 -19.293   3.470  1.00  0.00     0.034 A 
HETATM   20 CL   UNL     1      44.578 -20.640   4.422  1.00  0.00    -0.084 Cl
HETATM   21  C   UNL     1      43.949 -19.431   2.093  1.00  0.00     0.026 A 
HETATM   22  C   UNL     1      43.549 -18.336   1.322  1.00  0.00     0.031 A 
ENDBRANCH  13  16
ENDBRANCH  10  12
BRANCH   9  23
HETATM   23  C   UNL     1      41.087 -12.682   1.594  1.00  0.00    -0.025 A 
HETATM   24  C   UNL     1      39.731 -12.448   1.305  1.00  0.00     0.052 A 
HETATM   25  C   UNL     1      38.870 -12.009   2.305  1.00  0.00     0.117 A 
HETATM   26  F   UNL     1      37.579 -11.795   2.015  1.00  0.00    -0.206 F 
HETATM   27  C   UNL     1      39.326 -11.785   3.598  1.00  0.00     0.042 A 
HETATM   28  C   UNL     1      40.668 -12.002   3.899  1.00  0.00     0.004 A 
HETATM   29  C   UNL     1      41.545 -12.445   2.903  1.00  0.00     0.010 A 
ENDBRANCH   9  23
BRANCH   7  30
HETATM   30  C   UNL     1      43.130  -8.988  -1.869  1.00  0.00     0.085 C 
BRANCH  30  31
HETATM   31  C   UNL     1      44.374  -8.596  -1.076  1.00  0.00     0.034 C 
BRANCH  31  32
HETATM   32  C   UNL     1      44.099  -7.519  -0.033  1.00  0.00     0.164 C 
BRANCH  32  33
HETATM   33  O   UNL     1      43.293  -8.058   1.009  1.00  0.00    -0.401 OA
HETATM   34  H   UNL     1      43.872  -8.585   1.585  1.00  0.00     0.209 HD
ENDBRANCH  32  33
ENDBRANCH  31  32
ENDBRANCH  30  31
ENDBRANCH   7  30
TORSDOF 7
ENDMDL
MODEL 6
REMARK VINA RESULT:      -7.5      3.688      8.482
REMARK  7 active torsions:
REMARK  status: ('A' for Active; 'I' for Inactive)
REMARK    1  A    between atoms: C_7  and  C_8 
REMARK    2  A    between atoms: C_8  and  C_9 
REMARK    3  A    between atoms: C_9  and  C_10 
REMARK    4  A    between atoms: C_10  and  O_11 
REMARK    5  A    between atoms: C_13  and  C_14 
REMARK    6  A    between atoms: C_21  and  C_22 
REMARK       I    between atoms: C_22  and  N_23 
REMARK    7  A    between atoms: N_23  and  C_24 
ROOT
HETATM    1  C   UNL     1      42.064 -13.656   1.044  1.00  0.00     0.070 C 
HETATM    2  C   UNL     1      42.210 -14.939   1.822  1.00  0.00     0.037 C 
HETATM    3  N   UNL     1      42.995 -15.918   1.222  1.00  0.00    -0.192 N 
HETATM    4  C   UNL     1      43.042 -17.191   1.660  1.00  0.00     0.726 A 
HETATM    5  N   UNL     1      42.420 -17.525   2.831  1.00  0.00    -0.083 N 
HETATM    6  N   UNL     1      42.505 -18.851   3.073  1.00  0.00    -0.140 NA
HETATM    7  C   UNL     1      43.224 -19.254   2.016  1.00  0.00     0.166 A 
HETATM    8  N   UNL     1      43.575 -18.261   1.130  1.00  0.00    -0.046 NA
HETATM    9  C   UNL     1      41.686 -16.572   3.671  1.00  0.00     0.202 C 
HETATM   10  C   UNL     1      41.587 -15.207   2.997  1.00  0.00     0.062 C 
HETATM   11  H   UNL     1      43.374 -15.719   0.300  1.00  0.00     0.184 HD
ENDROOT
BRANCH  10  12
HETATM   12  C   UNL     1      40.671 -14.266   3.692  1.00  0.00     0.256 C 
HETATM   13  N   UNL     1      41.328 -13.250   4.353  1.00  0.00    -0.323 N 
HETATM   14  H   UNL     1      42.338 -13.247   4.300  1.00  0.00     0.169 HD
HETATM   15  O   UNL     1      39.469 -14.490   3.666  1.00  0.00    -0.267 OA
BRANCH  13  16
HETATM   16  C   UNL     1      40.747 -12.204   5.100  1.00  0.00     0.035 A 
HETATM   17  C   UNL     1      40.650 -10.885   4.650  1.00  0.00     0.031 A 
HETATM   18  C   UNL     1      40.063  -9.901   5.454  1.00  0.00     0.026 A 
HETATM   19  C   UNL     1      39.578 -10.233   6.715  1.00  0.00     0.034 A 
HETATM   20 CL   UNL     1      38.865  -9.021   7.706  1.00  0.00    -0.084 Cl
HETATM   21  C   UNL     1      39.667 -11.541   7.177  1.00  0.00     0.026 A 
HETATM   22  C   UNL     1      40.246 -12.525   6.369  1.00  0.00     0.031 A 
ENDBRANCH  13  16
ENDBRANCH  10  12
BRANCH   9  23
HETATM   23  C   UNL     1      42.322 -16.478   5.057  1.00  0.00    -0.025 A 
HETATM   24  C   UNL     1      43.478 -15.699   5.237  1.00  0.00     0.052 A 
HETATM   25  C   UNL     1      44.080 -15.621   6.488  1.00  0.00     0.117 A 
HETATM   26  F   UNL     1      45.179 -14.871   6.645  1.00  0.00    -0.206 F 
HETATM   27  C   UNL     1      43.562 -16.311   7.578  1.00  0.00     0.042 A 
HETATM   28  C   UNL     1      42.423 -17.094   7.415  1.00  0.00     0.004 A 
HETATM   29  C   UNL     1      41.807 -17.181   6.163  1.00  0.00     0.010 A 
ENDBRANCH   9  23
BRANCH   7  30
HETATM   30  C   UNL     1      43.612 -20.672   1.808  1.00  0.00     0.085 C 
BRANCH  30  31
HETATM   31  C   UNL     1      44.857 -21.081   2.591  1.00  0.00     0.034 C 
BRANCH  31  32
HETATM   32  C   UNL     1      44.539 -21.953   3.800  1.00  0.00     0.164 C 
BRANCH  32  33
HETATM   33  O   UNL     1      44.845 -23.311   3.503  1.00  0.00    -0.401 OA
HETATM   34  H   UNL     1      45.703 -23.515   3.914  1.00  0.00     0.209 HD
ENDBRANCH  32  33
ENDBRANCH  31  32
ENDBRANCH  30  31
ENDBRANCH   7  30
TORSDOF 7
ENDMDL
MODEL 7
REMARK VINA RESULT:      -7.3      3.496      7.918
REMARK  7 active torsions:
REMARK  status: ('A' for Active; 'I' for Inactive)
REMARK    1  A    between atoms: C_7  and  C_8 
REMARK    2  A    between atoms: C_8  and  C_9 
REMARK    3  A    between atoms: C_9  and  C_10 
REMARK    4  A    between atoms: C_10  and  O_11 
REMARK    5  A    between atoms: C_13  and  C_14 
REMARK    6  A    between atoms: C_21  and  C_22 
REMARK       I    between atoms: C_22  and  N_23 
REMARK    7  A    between atoms: N_23  and  C_24 
ROOT
HETATM    1  C   UNL     1      43.329 -16.184   7.360  1.00  0.00     0.070 C 
HETATM    2  C   UNL     1      43.269 -16.545   5.896  1.00  0.00     0.037 C 
HETATM    3  N   UNL     1      43.309 -17.906   5.611  1.00  0.00    -0.192 N 
HETATM    4  C   UNL     1      43.498 -18.390   4.369  1.00  0.00     0.726 A 
HETATM    5  N   UNL     1      43.503 -17.533   3.304  1.00  0.00    -0.083 N 
HETATM    6  N   UNL     1      43.782 -18.180   2.152  1.00  0.00    -0.140 NA
HETATM    7  C   UNL     1      43.903 -19.439   2.595  1.00  0.00     0.166 A 
HETATM    8  N   UNL     1      43.731 -19.607   3.950  1.00  0.00    -0.046 NA
HETATM    9  C   UNL     1      43.310 -16.083   3.417  1.00  0.00     0.202 C 
HETATM   10  C   UNL     1      43.250 -15.648   4.878  1.00  0.00     0.062 C 
HETATM   11  H   UNL     1      43.414 -18.548   6.392  1.00  0.00     0.184 HD
ENDROOT
BRANCH  10  12
HETATM   12  C   UNL     1      43.277 -14.173   5.061  1.00  0.00     0.256 C 
HETATM   13  N   UNL     1      42.028 -13.620   5.243  1.00  0.00    -0.323 N 
HETATM   14  H   UNL     1      41.240 -14.255   5.233  1.00  0.00     0.169 HD
HETATM   15  O   UNL     1      44.351 -13.592   4.987  1.00  0.00    -0.267 OA
BRANCH  13  16
HETATM   16  C   UNL     1      41.720 -12.259   5.443  1.00  0.00     0.035 A 
HETATM   17  C   UNL     1      41.333 -11.388   4.422  1.00  0.00     0.031 A 
HETATM   18  C   UNL     1      41.048 -10.046   4.703  1.00  0.00     0.026 A 
HETATM   19  C   UNL     1      41.156  -9.570   6.006  1.00  0.00     0.034 A 
HETATM   20 CL   UNL     1      40.814  -7.919   6.347  1.00  0.00    -0.084 Cl
HETATM   21  C   UNL     1      41.540 -10.425   7.033  1.00  0.00     0.026 A 
HETATM   22  C   UNL     1      41.817 -11.767   6.752  1.00  0.00     0.031 A 
ENDBRANCH  13  16
ENDBRANCH  10  12
BRANCH   9  23
HETATM   23  C   UNL     1      42.069 -15.645   2.641  1.00  0.00    -0.025 A 
HETATM   24  C   UNL     1      42.182 -14.632   1.672  1.00  0.00     0.052 A 
HETATM   25  C   UNL     1      41.057 -14.208   0.971  1.00  0.00     0.117 A 
HETATM   26  F   UNL     1      41.181 -13.246   0.048  1.00  0.00    -0.206 F 
HETATM   27  C   UNL     1      39.808 -14.764   1.215  1.00  0.00     0.042 A 
HETATM   28  C   UNL     1      39.677 -15.762   2.178  1.00  0.00     0.004 A 
HETATM   29  C   UNL     1      40.800 -16.198   2.890  1.00  0.00     0.010 A 
ENDBRANCH   9  23
BRANCH   7  30
HETATM   30  C   UNL     1      44.208 -20.577   1.690  1.00  0.00     0.085 C 
BRANCH  30  31
HETATM   31  C   UNL     1      43.731 -21.923   2.228  1.00  0.00     0.034 C 
BRANCH  31  32
HETATM   32  C   UNL     1      44.796 -22.647   3.044  1.00  0.00     0.164 C 
BRANCH  32  33
HETATM   33  O   UNL     1      44.419 -22.659   4.417  1.00  0.00    -0.401 OA
HETATM   34  H   UNL     1      43.528 -23.043   4.474  1.00  0.00     0.209 HD
ENDBRANCH  32  33
ENDBRANCH  31  32
ENDBRANCH  30  31
ENDBRANCH   7  30
TORSDOF 7
ENDMDL
MODEL 8
REMARK VINA RESULT:      -7.3      4.176      6.040
REMARK  7 active torsions:
REMARK  status: ('A' for Active; 'I' for Inactive)
REMARK    1  A    between atoms: C_7  and  C_8 
REMARK    2  A    between atoms: C_8  and  C_9 
REMARK    3  A    between atoms: C_9  and  C_10 
REMARK    4  A    between atoms: C_10  and  O_11 
REMARK    5  A    between atoms: C_13  and  C_14 
REMARK    6  A    between atoms: C_21  and  C_22 
REMARK       I    between atoms: C_22  and  N_23 
REMARK    7  A    between atoms: N_23  and  C_24 
ROOT
HETATM    1  C   UNL     1      41.482 -16.879   0.373  1.00  0.00     0.070 C 
HETATM    2  C   UNL     1      41.624 -15.384   0.508  1.00  0.00     0.037 C 
HETATM    3  N   UNL     1      41.732 -14.681  -0.687  1.00  0.00    -0.192 N 
HETATM    4  C   UNL     1      42.094 -13.385  -0.747  1.00  0.00     0.726 A 
HETATM    5  N   UNL     1      42.219 -12.666   0.409  1.00  0.00    -0.083 N 
HETATM    6  N   UNL     1      42.662 -11.414   0.165  1.00  0.00    -0.140 NA
HETATM    7  C   UNL     1      42.752 -11.436  -1.172  1.00  0.00     0.166 A 
HETATM    8  N   UNL     1      42.408 -12.629  -1.767  1.00  0.00    -0.046 NA
HETATM    9  C   UNL     1      41.980 -13.217   1.748  1.00  0.00     0.202 C 
HETATM   10  C   UNL     1      41.718 -14.719   1.687  1.00  0.00     0.062 C 
HETATM   11  H   UNL     1      41.748 -15.219  -1.550  1.00  0.00     0.184 HD
ENDROOT
BRANCH  10  12
HETATM   12  C   UNL     1      41.688 -15.372   3.021  1.00  0.00     0.256 C 
HETATM   13  N   UNL     1      42.938 -15.695   3.502  1.00  0.00    -0.323 N 
HETATM   14  H   UNL     1      43.729 -15.463   2.915  1.00  0.00     0.169 HD
HETATM   15  O   UNL     1      40.603 -15.605   3.536  1.00  0.00    -0.267 OA
BRANCH  13  16
HETATM   16  C   UNL     1      43.245 -16.317   4.730  1.00  0.00     0.035 A 
HETATM   17  C   UNL     1      43.235 -15.659   5.962  1.00  0.00     0.031 A 
HETATM   18  C   UNL     1      43.556 -16.346   7.138  1.00  0.00     0.026 A 
HETATM   19  C   UNL     1      43.896 -17.695   7.084  1.00  0.00     0.034 A 
HETATM   20 CL   UNL     1      44.300 -18.536   8.529  1.00  0.00    -0.084 Cl
HETATM   21  C   UNL     1      43.912 -18.364   5.865  1.00  0.00     0.026 A 
HETATM   22  C   UNL     1      43.582 -17.677   4.692  1.00  0.00     0.031 A 
ENDBRANCH  13  16
ENDBRANCH  10  12
BRANCH   9  23
HETATM   23  C   UNL     1      40.843 -12.468   2.441  1.00  0.00    -0.025 A 
HETATM   24  C   UNL     1      41.105 -11.752   3.622  1.00  0.00     0.052 A 
HETATM   25  C   UNL     1      40.076 -11.083   4.275  1.00  0.00     0.117 A 
HETATM   26  F   UNL     1      40.341 -10.401   5.398  1.00  0.00    -0.206 F 
HETATM   27  C   UNL     1      38.776 -11.111   3.785  1.00  0.00     0.042 A 
HETATM   28  C   UNL     1      38.498 -11.822   2.621  1.00  0.00     0.004 A 
HETATM   29  C   UNL     1      39.523 -12.500   1.954  1.00  0.00     0.010 A 
ENDBRANCH   9  23
BRANCH   7  30
HETATM   30  C   UNL     1      43.200 -10.260  -1.962  1.00  0.00     0.085 C 
BRANCH  30  31
HETATM   31  C   UNL     1      42.533  -8.955  -1.535  1.00  0.00     0.034 C 
BRANCH  31  32
HETATM   32  C   UNL     1      43.463  -8.045  -0.742  1.00  0.00     0.164 C 
BRANCH  32  33
HETATM   33  O   UNL     1      43.484  -8.454   0.621  1.00  0.00    -0.401 OA
HETATM   34  H   UNL     1      44.026  -7.813   1.112  1.00  0.00     0.209 HD
ENDBRANCH  32  33
ENDBRANCH  31  32
ENDBRANCH  30  31
ENDBRANCH   7  30
TORSDOF 7
ENDMDL
MODEL 9
REMARK VINA RESULT:      -7.2      3.856      4.979
REMARK  7 active torsions:
REMARK  status: ('A' for Active; 'I' for Inactive)
REMARK    1  A    between atoms: C_7  and  C_8 
REMARK    2  A    between atoms: C_8  and  C_9 
REMARK    3  A    between atoms: C_9  and  C_10 
REMARK    4  A    between atoms: C_10  and  O_11 
REMARK    5  A    between atoms: C_13  and  C_14 
REMARK    6  A    between atoms: C_21  and  C_22 
REMARK       I    between atoms: C_22  and  N_23 
REMARK    7  A    between atoms: N_23  and  C_24 
ROOT
HETATM    1  C   UNL     1      41.675 -12.192   4.638  1.00  0.00     0.070 C 
HETATM    2  C   UNL     1      40.879 -12.395   3.372  1.00  0.00     0.037 C 
HETATM    3  N   UNL     1      39.792 -11.543   3.204  1.00  0.00    -0.192 N 
HETATM    4  C   UNL     1      38.849 -11.735   2.261  1.00  0.00     0.726 A 
HETATM    5  N   UNL     1      39.024 -12.712   1.321  1.00  0.00    -0.083 N 
HETATM    6  N   UNL     1      37.950 -12.812   0.509  1.00  0.00    -0.140 NA
HETATM    7  C   UNL     1      37.173 -11.835   0.999  1.00  0.00     0.166 A 
HETATM    8  N   UNL     1      37.694 -11.150   2.073  1.00  0.00    -0.046 NA
HETATM    9  C   UNL     1      40.197 -13.592   1.260  1.00  0.00     0.202 C 
HETATM   10  C   UNL     1      41.114 -13.369   2.459  1.00  0.00     0.062 C 
HETATM   11  H   UNL     1      39.590 -10.884   3.950  1.00  0.00     0.184 HD
ENDROOT
BRANCH  10  12
HETATM   12  C   UNL     1      42.200 -14.378   2.571  1.00  0.00     0.256 C 
HETATM   13  N   UNL     1      41.738 -15.663   2.753  1.00  0.00    -0.323 N 
HETATM   14  H   UNL     1      40.735 -15.788   2.791  1.00  0.00     0.169 HD
HETATM   15  O   UNL     1      43.362 -13.994   2.546  1.00  0.00    -0.267 OA
BRANCH  13  16
HETATM   16  C   UNL     1      42.511 -16.835   2.891  1.00  0.00     0.035 A 
HETATM   17  C   UNL     1      43.143 -17.217   4.077  1.00  0.00     0.031 A 
HETATM   18  C   UNL     1      43.897 -18.395   4.132  1.00  0.00     0.026 A 
HETATM   19  C   UNL     1      44.028 -19.191   2.998  1.00  0.00     0.034 A 
HETATM   20 CL   UNL     1      44.963 -20.633   3.065  1.00  0.00    -0.084 Cl
HETATM   21  C   UNL     1      43.405 -18.823   1.811  1.00  0.00     0.026 A 
HETATM   22  C   UNL     1      42.645 -17.650   1.759  1.00  0.00     0.031 A 
ENDBRANCH  13  16
ENDBRANCH  10  12
BRANCH   9  23
HETATM   23  C   UNL     1      40.935 -13.410  -0.065  1.00  0.00    -0.025 A 
HETATM   24  C   UNL     1      40.881 -14.428  -1.032  1.00  0.00     0.052 A 
HETATM   25  C   UNL     1      41.565 -14.286  -2.235  1.00  0.00     0.117 A 
HETATM   26  F   UNL     1      41.500 -15.263  -3.149  1.00  0.00    -0.206 F 
HETATM   27  C   UNL     1      42.317 -13.149  -2.503  1.00  0.00     0.042 A 
HETATM   28  C   UNL     1      42.388 -12.134  -1.552  1.00  0.00     0.004 A 
HETATM   29  C   UNL     1      41.705 -12.264  -0.338  1.00  0.00     0.010 A 
ENDBRANCH   9  23
BRANCH   7  30
HETATM   30  C   UNL     1      35.838 -11.516   0.431  1.00  0.00     0.085 C 
BRANCH  30  31
HETATM   31  C   UNL     1      35.106 -10.412   1.189  1.00  0.00     0.034 C 
BRANCH  31  32
HETATM   32  C   UNL     1      33.589 -10.553   1.123  1.00  0.00     0.164 C 
BRANCH  32  33
HETATM   33  O   UNL     1      33.091 -10.945   2.398  1.00  0.00    -0.401 OA
HETATM   34  H   UNL     1      33.504 -11.795   2.626  1.00  0.00     0.209 HD
ENDBRANCH  32  33
ENDBRANCH  31  32
ENDBRANCH  30  31
ENDBRANCH   7  30
TORSDOF 7
ENDMDL
MODEL 10
REMARK VINA RESULT:      -7.2      4.378      8.133
REMARK  7 active torsions:
REMARK  status: ('A' for Active; 'I' for Inactive)
REMARK    1  A    between atoms: C_7  and  C_8 
REMARK    2  A    between atoms: C_8  and  C_9 
REMARK    3  A    between atoms: C_9  and  C_10 
REMARK    4  A    between atoms: C_10  and  O_11 
REMARK    5  A    between atoms: C_13  and  C_14 
REMARK    6  A    between atoms: C_21  and  C_22 
REMARK       I    between atoms: C_22  and  N_23 
REMARK    7  A    between atoms: N_23  and  C_24 
ROOT
HETATM    1  C   UNL     1      40.948 -15.300  -1.087  1.00  0.00     0.070 C 
HETATM    2  C   UNL     1      41.347 -15.845   0.262  1.00  0.00     0.037 C 
HETATM    3  N   UNL     1      42.464 -16.674   0.267  1.00  0.00    -0.192 N 
HETATM    4  C   UNL     1      42.817 -17.424   1.329  1.00  0.00     0.726 A 
HETATM    5  N   UNL     1      42.154 -17.268   2.515  1.00  0.00    -0.083 N 
HETATM    6  N   UNL     1      42.586 -18.150   3.440  1.00  0.00    -0.140 NA
HETATM    7  C   UNL     1      43.540 -18.790   2.750  1.00  0.00     0.166 A 
HETATM    8  N   UNL     1      43.712 -18.369   1.452  1.00  0.00    -0.046 NA
HETATM    9  C   UNL     1      41.056 -16.315   2.722  1.00  0.00     0.202 C 
HETATM   10  C   UNL     1      40.663 -15.636   1.414  1.00  0.00     0.062 C 
HETATM   11  H   UNL     1      42.901 -16.882  -0.627  1.00  0.00     0.184 HD
ENDROOT
BRANCH  10  12
HETATM   12  C   UNL     1      39.419 -14.829   1.514  1.00  0.00     0.256 C 
HETATM   13  N   UNL     1      39.634 -13.473   1.393  1.00  0.00    -0.323 N 
HETATM   14  H   UNL     1      40.589 -13.171   1.251  1.00  0.00     0.169 HD
HETATM   15  O   UNL     1      38.363 -15.404   1.739  1.00  0.00    -0.267 OA
BRANCH  13  16
HETATM   16  C   UNL     1      38.666 -12.449   1.441  1.00  0.00     0.035 A 
HETATM   17  C   UNL     1      38.580 -11.504   2.466  1.00  0.00     0.031 A 
HETATM   18  C   UNL     1      37.585 -10.520   2.444  1.00  0.00     0.026 A 
HETATM   19  C   UNL     1      36.667 -10.482   1.399  1.00  0.00     0.034 A 
HETATM   20 CL   UNL     1      35.439  -9.278   1.378  1.00  0.00    -0.084 Cl
HETATM   21  C   UNL     1      36.740 -11.417   0.371  1.00  0.00     0.026 A 
HETATM   22  C   UNL     1      37.739 -12.394   0.390  1.00  0.00     0.031 A 
ENDBRANCH  13  16
ENDBRANCH  10  12
BRANCH   9  23
HETATM   23  C   UNL     1      41.424 -15.301   3.804  1.00  0.00    -0.025 A 
HETATM   24  C   UNL     1      40.460 -14.926   4.755  1.00  0.00     0.052 A 
HETATM   25  C   UNL     1      40.774 -13.988   5.734  1.00  0.00     0.117 A 
HETATM   26  F   UNL     1      39.846 -13.644   6.637  1.00  0.00    -0.206 F 
HETATM   27  C   UNL     1      42.031 -13.400   5.788  1.00  0.00     0.042 A 
HETATM   28  C   UNL     1      42.994 -13.754   4.847  1.00  0.00     0.004 A 
HETATM   29  C   UNL     1      42.693 -14.696   3.858  1.00  0.00     0.010 A 
ENDBRANCH   9  23
BRANCH   7  30
HETATM   30  C   UNL     1      44.352 -19.886   3.340  1.00  0.00     0.085 C 
BRANCH  30  31
HETATM   31  C   UNL     1      44.326 -19.905   4.866  1.00  0.00     0.034 C 
BRANCH  31  32
HETATM   32  C   UNL     1      45.096 -18.746   5.488  1.00  0.00     0.164 C 
BRANCH  32  33
HETATM   33  O   UNL     1      44.181 -17.806   6.041  1.00  0.00    -0.401 OA
HETATM   34  H   UNL     1      44.455 -16.921   5.746  1.00  0.00     0.209 HD
ENDBRANCH  32  33
ENDBRANCH  31  32
ENDBRANCH  30  31
ENDBRANCH   7  30
TORSDOF 7
ENDMDL
