MODEL 1
REMARK VINA RESULT:      -8.6      0.000      0.000
REMARK  4 active torsions:
REMARK  status: ('A' for Active; 'I' for Inactive)
REMARK    1  A    between atoms: C_2  and  C_3 
REMARK    2  A    between atoms: C_6  and  C_7 
REMARK    3  A    between atoms: C_10  and  N_11 
REMARK    4  A    between atoms: N_11  and  C_12 
ROOT
HETATM    1  C   UNL     1      43.642 -16.131   6.038  1.00  0.00     0.076 C 
HETATM    2  C   UNL     1      42.417 -15.287   5.759  1.00  0.00     0.144 C 
HETATM    3  S   UNL     1      42.760 -13.520   5.784  1.00  0.00    -0.087 SA
HETATM    4  C   UNL     1      43.741 -13.476   7.197  1.00  0.00     0.157 C 
HETATM    5  N   UNL     1      44.463 -14.540   7.521  1.00  0.00    -0.257 N 
HETATM    6  H   UNL     1      45.077 -14.409   8.318  1.00  0.00     0.191 HD
HETATM    7  N   UNL     1      44.576 -15.805   6.886  1.00  0.00    -0.176 NA
ENDROOT
BRANCH   1   8
HETATM    8  C   UNL     1      43.754 -17.465   5.434  1.00  0.00     0.019 A 
HETATM    9  C   UNL     1      43.767 -17.834   4.038  1.00  0.00     0.005 A 
HETATM   10  C   UNL     1      43.964 -19.217   3.963  1.00  0.00     0.049 A 
HETATM   11  C   UNL     1      43.644 -17.121   2.824  1.00  0.00     0.014 A 
HETATM   12  C   UNL     1      44.075 -19.927   2.749  1.00  0.00    -0.031 A 
HETATM   13  N   UNL     1      44.024 -19.682   5.255  1.00  0.00    -0.364 N 
HETATM   14  C   UNL     1      43.940 -19.172   1.572  1.00  0.00     0.009 A 
HETATM   15  C   UNL     1      43.728 -17.799   1.605  1.00  0.00     0.002 A 
HETATM   16  C   UNL     1      43.908 -18.646   6.142  1.00  0.00     0.102 A 
HETATM   17  H   UNL     1      44.149 -20.655   5.503  1.00  0.00     0.165 HD
BRANCH  12  18
HETATM   18  C   UNL     1      44.308 -21.415   2.665  1.00  0.00     0.036 C 
HETATM   19  C   UNL     1      43.939 -21.971   1.299  1.00  0.00     0.010 C 
ENDBRANCH  12  18
ENDBRANCH   1   8
BRANCH   4  20
HETATM   20  N   UNL     1      43.707 -12.341   7.867  1.00  0.00    -0.365 N 
HETATM   21  H   UNL     1      43.407 -11.556   7.295  1.00  0.00     0.162 HD
BRANCH  20  22
HETATM   22  C   UNL     1      44.068 -12.113   9.268  1.00  0.00     0.083 C 
HETATM   23  C   UNL     1      45.470 -11.524   9.353  1.00  0.00     0.025 C 
HETATM   24  C   UNL     1      45.467 -10.837  10.707  1.00  0.00     0.002 C 
HETATM   25  C   UNL     1      44.090 -10.191  10.780  1.00  0.00     0.002 C 
HETATM   26  C   UNL     1      43.172 -11.060   9.918  1.00  0.00     0.025 C 
ENDBRANCH  20  22
ENDBRANCH   4  20
TORSDOF 4
ENDMDL
MODEL 2
REMARK VINA RESULT:      -8.0      4.784      7.735
REMARK  4 active torsions:
REMARK  status: ('A' for Active; 'I' for Inactive)
REMARK    1  A    between atoms: C_2  and  C_3 
REMARK    2  A    between atoms: C_6  and  C_7 
REMARK    3  A    between atoms: C_10  and  N_11 
REMARK    4  A    between atoms: N_11  and  C_12 
ROOT
HETATM    1  C   UNL     1      41.858 -16.694   2.194  1.00  0.00     0.076 C 
HETATM    2  C   UNL     1      42.549 -15.593   1.419  1.00  0.00     0.144 C 
HETATM    3  S   UNL     1      41.517 -14.135   1.198  1.00  0.00    -0.087 SA
HETATM    4  C   UNL     1      40.051 -14.928   0.775  1.00  0.00     0.157 C 
HETATM    5  N   UNL     1      39.807 -16.141   1.249  1.00  0.00    -0.257 N 
HETATM    6  H   UNL     1      38.888 -16.508   1.023  1.00  0.00     0.191 HD
HETATM    7  N   UNL     1      40.590 -16.977   2.088  1.00  0.00    -0.176 NA
ENDROOT
BRANCH   1   8
HETATM    8  C   UNL     1      42.656 -17.603   3.026  1.00  0.00     0.019 A 
HETATM    9  C   UNL     1      43.124 -18.937   2.726  1.00  0.00     0.005 A 
HETATM   10  C   UNL     1      43.906 -19.368   3.803  1.00  0.00     0.049 A 
HETATM   11  C   UNL     1      42.970 -19.817   1.632  1.00  0.00     0.014 A 
HETATM   12  C   UNL     1      44.566 -20.613   3.842  1.00  0.00    -0.031 A 
HETATM   13  N   UNL     1      43.881 -18.363   4.741  1.00  0.00    -0.364 N 
HETATM   14  C   UNL     1      44.377 -21.453   2.732  1.00  0.00     0.009 A 
HETATM   15  C   UNL     1      43.595 -21.068   1.649  1.00  0.00     0.002 A 
HETATM   16  C   UNL     1      43.146 -17.302   4.286  1.00  0.00     0.102 A 
HETATM   17  H   UNL     1      44.355 -18.408   5.634  1.00  0.00     0.165 HD
BRANCH  12  18
HETATM   18  C   UNL     1      45.426 -21.073   4.993  1.00  0.00     0.036 C 
HETATM   19  C   UNL     1      45.181 -22.534   5.337  1.00  0.00     0.010 C 
ENDBRANCH  12  18
ENDBRANCH   1   8
BRANCH   4  20
HETATM   20  N   UNL     1      39.246 -14.236  -0.010  1.00  0.00    -0.365 N 
HETATM   21  H   UNL     1      38.412 -13.910   0.472  1.00  0.00     0.162 HD
BRANCH  20  22
HETATM   22  C   UNL     1      39.419 -13.936  -1.432  1.00  0.00     0.083 C 
HETATM   23  C   UNL     1      40.303 -14.992  -2.082  1.00  0.00     0.025 C 
HETATM   24  C   UNL     1      39.925 -14.894  -3.549  1.00  0.00     0.002 C 
HETATM   25  C   UNL     1      38.413 -14.716  -3.520  1.00  0.00     0.002 C 
HETATM   26  C   UNL     1      38.096 -14.025  -2.193  1.00  0.00     0.025 C 
ENDBRANCH  20  22
ENDBRANCH   4  20
TORSDOF 4
ENDMDL
MODEL 3
REMARK VINA RESULT:      -7.9      4.726      7.268
REMARK  4 active torsions:
REMARK  status: ('A' for Active; 'I' for Inactive)
REMARK    1  A    between atoms: C_2  and  C_3 
REMARK    2  A    between atoms: C_6  and  C_7 
REMARK    3  A    between atoms: C_10  and  N_11 
REMARK    4  A    between atoms: N_11  and  C_12 
ROOT
HETATM    1  C   UNL     1      42.862 -16.496   2.027  1.00  0.00     0.076 C 
HETATM    2  C   UNL     1      42.847 -15.046   2.462  1.00  0.00     0.144 C 
HETATM    3  S   UNL     1      41.539 -14.090   1.677  1.00  0.00    -0.087 SA
HETATM    4  C   UNL     1      41.725 -14.682   0.072  1.00  0.00     0.157 C 
HETATM    5  N   UNL     1      42.182 -15.911  -0.119  1.00  0.00    -0.257 N 
HETATM    6  H   UNL     1      42.186 -16.217  -1.087  1.00  0.00     0.191 HD
HETATM    7  N   UNL     1      42.591 -16.898   0.817  1.00  0.00    -0.176 NA
ENDROOT
BRANCH   1   8
HETATM    8  C   UNL     1      43.333 -17.526   2.961  1.00  0.00     0.019 A 
HETATM    9  C   UNL     1      43.584 -18.929   2.719  1.00  0.00     0.005 A 
HETATM   10  C   UNL     1      44.089 -19.482   3.899  1.00  0.00     0.049 A 
HETATM   11  C   UNL     1      43.443 -19.780   1.600  1.00  0.00     0.014 A 
HETATM   12  C   UNL     1      44.489 -20.828   4.024  1.00  0.00    -0.031 A 
HETATM   13  N   UNL     1      44.104 -18.477   4.837  1.00  0.00    -0.364 N 
HETATM   14  C   UNL     1      44.324 -21.635   2.885  1.00  0.00     0.009 A 
HETATM   15  C   UNL     1      43.810 -21.126   1.697  1.00  0.00     0.002 A 
HETATM   16  C   UNL     1      43.664 -17.303   4.287  1.00  0.00     0.102 A 
HETATM   17  H   UNL     1      44.413 -18.597   5.793  1.00  0.00     0.165 HD
BRANCH  12  18
HETATM   18  C   UNL     1      45.052 -21.424   5.290  1.00  0.00     0.036 C 
HETATM   19  C   UNL     1      44.010 -21.501   6.395  1.00  0.00     0.010 C 
ENDBRANCH  12  18
ENDBRANCH   1   8
BRANCH   4  20
HETATM   20  N   UNL     1      41.375 -13.838  -0.879  1.00  0.00    -0.365 N 
HETATM   21  H   UNL     1      40.378 -13.638  -0.879  1.00  0.00     0.162 HD
BRANCH  20  22
HETATM   22  C   UNL     1      42.231 -13.223  -1.894  1.00  0.00     0.083 C 
HETATM   23  C   UNL     1      41.420 -12.931  -3.151  1.00  0.00     0.025 C 
HETATM   24  C   UNL     1      42.226 -11.837  -3.827  1.00  0.00     0.002 C 
HETATM   25  C   UNL     1      42.664 -10.945  -2.673  1.00  0.00     0.002 C 
HETATM   26  C   UNL     1      42.746 -11.855  -1.447  1.00  0.00     0.025 C 
ENDBRANCH  20  22
ENDBRANCH   4  20
TORSDOF 4
ENDMDL
MODEL 4
REMARK VINA RESULT:      -7.9      3.423      3.912
REMARK  4 active torsions:
REMARK  status: ('A' for Active; 'I' for Inactive)
REMARK    1  A    between atoms: C_2  and  C_3 
REMARK    2  A    between atoms: C_6  and  C_7 
REMARK    3  A    between atoms: C_10  and  N_11 
REMARK    4  A    between atoms: N_11  and  C_12 
ROOT
HETATM    1  C   UNL     1      40.840 -15.662   4.209  1.00  0.00     0.076 C 
HETATM    2  C   UNL     1      40.147 -14.539   3.470  1.00  0.00     0.144 C 
HETATM    3  S   UNL     1      40.204 -12.973   4.355  1.00  0.00    -0.087 SA
HETATM    4  C   UNL     1      39.823 -13.560   5.927  1.00  0.00     0.157 C 
HETATM    5  N   UNL     1      40.164 -14.797   6.259  1.00  0.00    -0.257 N 
HETATM    6  H   UNL     1      39.980 -15.043   7.227  1.00  0.00     0.191 HD
HETATM    7  N   UNL     1      40.817 -15.807   5.505  1.00  0.00    -0.176 NA
ENDROOT
BRANCH   1   8
HETATM    8  C   UNL     1      41.475 -16.745   3.448  1.00  0.00     0.019 A 
HETATM    9  C   UNL     1      42.521 -17.655   3.858  1.00  0.00     0.005 A 
HETATM   10  C   UNL     1      42.740 -18.554   2.810  1.00  0.00     0.049 A 
HETATM   11  C   UNL     1      43.295 -17.809   5.030  1.00  0.00     0.014 A 
HETATM   12  C   UNL     1      43.665 -19.617   2.872  1.00  0.00    -0.031 A 
HETATM   13  N   UNL     1      41.900 -18.186   1.786  1.00  0.00    -0.364 N 
HETATM   14  C   UNL     1      44.413 -19.723   4.056  1.00  0.00     0.009 A 
HETATM   15  C   UNL     1      44.236 -18.839   5.114  1.00  0.00     0.002 A 
HETATM   16  C   UNL     1      41.134 -17.114   2.158  1.00  0.00     0.102 A 
HETATM   17  H   UNL     1      41.854 -18.658   0.893  1.00  0.00     0.165 HD
BRANCH  12  18
HETATM   18  C   UNL     1      43.890 -20.601   1.750  1.00  0.00     0.036 C 
HETATM   19  C   UNL     1      44.364 -21.950   2.266  1.00  0.00     0.010 C 
ENDBRANCH  12  18
ENDBRANCH   1   8
BRANCH   4  20
HETATM   20  N   UNL     1      39.208 -12.698   6.713  1.00  0.00    -0.365 N 
HETATM   21  H   UNL     1      38.206 -12.862   6.769  1.00  0.00     0.162 HD
BRANCH  20  22
HETATM   22  C   UNL     1      39.794 -11.574   7.446  1.00  0.00     0.083 C 
HETATM   23  C   UNL     1      39.442 -10.263   6.755  1.00  0.00     0.025 C 
HETATM   24  C   UNL     1      39.592  -9.242   7.868  1.00  0.00     0.002 C 
HETATM   25  C   UNL     1      38.994  -9.942   9.081  1.00  0.00     0.002 C 
HETATM   26  C   UNL     1      39.197 -11.439   8.846  1.00  0.00     0.025 C 
ENDBRANCH  20  22
ENDBRANCH   4  20
TORSDOF 4
ENDMDL
MODEL 5
REMARK VINA RESULT:      -7.7      5.192      8.591
REMARK  4 active torsions:
REMARK  status: ('A' for Active; 'I' for Inactive)
REMARK    1  A    between atoms: C_2  and  C_3 
REMARK    2  A    between atoms: C_6  and  C_7 
REMARK    3  A    between atoms: C_10  and  N_11 
REMARK    4  A    between atoms: N_11  and  C_12 
ROOT
HETATM    1  C   UNL     1      41.609 -15.457   1.537  1.00  0.00     0.076 C 
HETATM    2  C   UNL     1      40.577 -14.359   1.679  1.00  0.00     0.144 C 
HETATM    3  S   UNL     1      39.519 -14.198   0.232  1.00  0.00    -0.087 SA
HETATM    4  C   UNL     1      40.734 -14.319  -0.980  1.00  0.00     0.157 C 
HETATM    5  N   UNL     1      41.827 -15.028  -0.737  1.00  0.00    -0.257 N 
HETATM    6  H   UNL     1      42.457 -15.121  -1.528  1.00  0.00     0.191 HD
HETATM    7  N   UNL     1      42.221 -15.744   0.423  1.00  0.00    -0.176 NA
ENDROOT
BRANCH   1   8
HETATM    8  C   UNL     1      42.071 -16.174   2.733  1.00  0.00     0.019 A 
HETATM    9  C   UNL     1      42.780 -17.430   2.824  1.00  0.00     0.005 A 
HETATM   10  C   UNL     1      43.062 -17.664   4.173  1.00  0.00     0.049 A 
HETATM   11  C   UNL     1      43.224 -18.386   1.883  1.00  0.00     0.014 A 
HETATM   12  C   UNL     1      43.786 -18.781   4.639  1.00  0.00    -0.031 A 
HETATM   13  N   UNL     1      42.511 -16.623   4.883  1.00  0.00    -0.364 N 
HETATM   14  C   UNL     1      44.200 -19.705   3.665  1.00  0.00     0.009 A 
HETATM   15  C   UNL     1      43.926 -19.515   2.315  1.00  0.00     0.002 A 
HETATM   16  C   UNL     1      41.924 -15.724   4.034  1.00  0.00     0.102 A 
HETATM   17  H   UNL     1      42.552 -16.539   5.890  1.00  0.00     0.165 HD
BRANCH  12  18
HETATM   18  C   UNL     1      44.108 -19.027   6.093  1.00  0.00     0.036 C 
HETATM   19  C   UNL     1      45.240 -18.138   6.582  1.00  0.00     0.010 C 
ENDBRANCH  12  18
ENDBRANCH   1   8
BRANCH   4  20
HETATM   20  N   UNL     1      40.467 -13.683  -2.105  1.00  0.00    -0.365 N 
HETATM   21  H   UNL     1      40.719 -12.698  -2.068  1.00  0.00     0.162 HD
BRANCH  20  22
HETATM   22  C   UNL     1      39.852 -14.223  -3.318  1.00  0.00     0.083 C 
HETATM   23  C   UNL     1      40.021 -15.737  -3.357  1.00  0.00     0.025 C 
HETATM   24  C   UNL     1      38.902 -16.179  -4.282  1.00  0.00     0.002 C 
HETATM   25  C   UNL     1      37.728 -15.300  -3.874  1.00  0.00     0.002 C 
HETATM   26  C   UNL     1      38.339 -14.008  -3.329  1.00  0.00     0.025 C 
ENDBRANCH  20  22
ENDBRANCH   4  20
TORSDOF 4
ENDMDL
MODEL 6
REMARK VINA RESULT:      -7.7      2.692      3.200
REMARK  4 active torsions:
REMARK  status: ('A' for Active; 'I' for Inactive)
REMARK    1  A    between atoms: C_2  and  C_3 
REMARK    2  A    between atoms: C_6  and  C_7 
REMARK    3  A    between atoms: C_10  and  N_11 
REMARK    4  A    between atoms: N_11  and  C_12 
ROOT
HETATM    1  C   UNL     1      41.064 -15.687   4.871  1.00  0.00     0.076 C 
HETATM    2  C   UNL     1      40.373 -14.897   3.780  1.00  0.00     0.144 C 
HETATM    3  S   UNL     1      40.326 -13.129   4.115  1.00  0.00    -0.087 SA
HETATM    4  C   UNL     1      39.879 -13.200   5.774  1.00  0.00     0.157 C 
HETATM    5  N   UNL     1      40.246 -14.246   6.502  1.00  0.00    -0.257 N 
HETATM    6  H   UNL     1      40.017 -14.177   7.489  1.00  0.00     0.191 HD
HETATM    7  N   UNL     1      40.974 -15.409   6.142  1.00  0.00    -0.176 NA
ENDROOT
BRANCH   1   8
HETATM    8  C   UNL     1      41.779 -16.922   4.527  1.00  0.00     0.019 A 
HETATM    9  C   UNL     1      42.415 -17.291   3.284  1.00  0.00     0.005 A 
HETATM   10  C   UNL     1      43.025 -18.535   3.467  1.00  0.00     0.049 A 
HETATM   11  C   UNL     1      42.544 -16.675   2.018  1.00  0.00     0.014 A 
HETATM   12  C   UNL     1      43.780 -19.191   2.473  1.00  0.00    -0.031 A 
HETATM   13  N   UNL     1      42.737 -18.935   4.751  1.00  0.00    -0.364 N 
HETATM   14  C   UNL     1      43.873 -18.540   1.231  1.00  0.00     0.009 A 
HETATM   15  C   UNL     1      43.269 -17.309   1.005  1.00  0.00     0.002 A 
HETATM   16  C   UNL     1      42.002 -17.978   5.396  1.00  0.00     0.102 A 
HETATM   17  H   UNL     1      43.043 -19.811   5.155  1.00  0.00     0.165 HD
BRANCH  12  18
HETATM   18  C   UNL     1      44.455 -20.526   2.674  1.00  0.00     0.036 C 
HETATM   19  C   UNL     1      43.828 -21.614   1.817  1.00  0.00     0.010 C 
ENDBRANCH  12  18
ENDBRANCH   1   8
BRANCH   4  20
HETATM   20  N   UNL     1      39.191 -12.164   6.214  1.00  0.00    -0.365 N 
HETATM   21  H   UNL     1      38.221 -12.181   5.913  1.00  0.00     0.162 HD
BRANCH  20  22
HETATM   22  C   UNL     1      39.674 -11.043   7.023  1.00  0.00     0.083 C 
HETATM   23  C   UNL     1      39.404 -11.312   8.498  1.00  0.00     0.025 C 
HETATM   24  C   UNL     1      40.416 -10.423   9.196  1.00  0.00     0.002 C 
HETATM   25  C   UNL     1      41.674 -10.576   8.351  1.00  0.00     0.002 C 
HETATM   26  C   UNL     1      41.193 -10.895   6.935  1.00  0.00     0.025 C 
ENDBRANCH  20  22
ENDBRANCH   4  20
TORSDOF 4
ENDMDL
MODEL 7
REMARK VINA RESULT:      -7.5      5.200      7.239
REMARK  4 active torsions:
REMARK  status: ('A' for Active; 'I' for Inactive)
REMARK    1  A    between atoms: C_2  and  C_3 
REMARK    2  A    between atoms: C_6  and  C_7 
REMARK    3  A    between atoms: C_10  and  N_11 
REMARK    4  A    between atoms: N_11  and  C_12 
ROOT
HETATM    1  C   UNL     1      41.483 -16.434   2.079  1.00  0.00     0.076 C 
HETATM    2  C   UNL     1      42.326 -15.716   1.047  1.00  0.00     0.144 C 
HETATM    3  S   UNL     1      41.664 -14.105   0.596  1.00  0.00    -0.087 SA
HETATM    4  C   UNL     1      40.009 -14.548   0.445  1.00  0.00     0.157 C 
HETATM    5  N   UNL     1      39.533 -15.545   1.177  1.00  0.00    -0.257 N 
HETATM    6  H   UNL     1      38.532 -15.693   1.094  1.00  0.00     0.191 HD
HETATM    7  N   UNL     1      40.181 -16.388   2.118  1.00  0.00    -0.176 NA
ENDROOT
BRANCH   1   8
HETATM    8  C   UNL     1      42.126 -17.352   3.027  1.00  0.00     0.019 A 
HETATM    9  C   UNL     1      42.857 -18.570   2.763  1.00  0.00     0.005 A 
HETATM   10  C   UNL     1      43.340 -19.052   3.984  1.00  0.00     0.049 A 
HETATM   11  C   UNL     1      43.167 -19.304   1.597  1.00  0.00     0.014 A 
HETATM   12  C   UNL     1      44.139 -20.207   4.108  1.00  0.00    -0.031 A 
HETATM   13  N   UNL     1      42.889 -18.194   4.958  1.00  0.00    -0.364 N 
HETATM   14  C   UNL     1      44.415 -20.904   2.919  1.00  0.00     0.009 A 
HETATM   15  C   UNL     1      43.939 -20.466   1.688  1.00  0.00     0.002 A 
HETATM   16  C   UNL     1      42.171 -17.171   4.400  1.00  0.00     0.102 A 
HETATM   17  H   UNL     1      43.078 -18.307   5.946  1.00  0.00     0.165 HD
BRANCH  12  18
HETATM   18  C   UNL     1      44.678 -20.719   5.421  1.00  0.00     0.036 C 
HETATM   19  C   UNL     1      44.946 -22.215   5.380  1.00  0.00     0.010 C 
ENDBRANCH  12  18
ENDBRANCH   1   8
BRANCH   4  20
HETATM   20  N   UNL     1      39.312 -13.826  -0.412  1.00  0.00    -0.365 N 
HETATM   21  H   UNL     1      39.864 -13.521  -1.209  1.00  0.00     0.162 HD
BRANCH  20  22
HETATM   22  C   UNL     1      37.908 -13.422  -0.312  1.00  0.00     0.083 C 
HETATM   23  C   UNL     1      37.699 -12.572   0.935  1.00  0.00     0.025 C 
HETATM   24  C   UNL     1      36.440 -11.792   0.606  1.00  0.00     0.002 C 
HETATM   25  C   UNL     1      36.621 -11.416  -0.859  1.00  0.00     0.002 C 
HETATM   26  C   UNL     1      37.499 -12.510  -1.468  1.00  0.00     0.025 C 
ENDBRANCH  20  22
ENDBRANCH   4  20
TORSDOF 4
ENDMDL
MODEL 8
REMARK VINA RESULT:      -7.5      5.068      7.259
REMARK  4 active torsions:
REMARK  status: ('A' for Active; 'I' for Inactive)
REMARK    1  A    between atoms: C_2  and  C_3 
REMARK    2  A    between atoms: C_6  and  C_7 
REMARK    3  A    between atoms: C_10  and  N_11 
REMARK    4  A    between atoms: N_11  and  C_12 
ROOT
HETATM    1  C   UNL     1      41.372 -16.566   2.317  1.00  0.00     0.076 C 
HETATM    2  C   UNL     1      41.837 -15.148   2.063  1.00  0.00     0.144 C 
HETATM    3  S   UNL     1      40.640 -13.911   2.589  1.00  0.00    -0.087 SA
HETATM    4  C   UNL     1      39.220 -14.657   1.966  1.00  0.00     0.157 C 
HETATM    5  N   UNL     1      39.168 -15.978   1.870  1.00  0.00    -0.257 N 
HETATM    6  H   UNL     1      38.270 -16.346   1.572  1.00  0.00     0.191 HD
HETATM    7  N   UNL     1      40.138 -16.964   2.189  1.00  0.00    -0.176 NA
ENDROOT
BRANCH   1   8
HETATM    8  C   UNL     1      42.364 -17.612   2.597  1.00  0.00     0.019 A 
HETATM    9  C   UNL     1      42.827 -18.110   3.872  1.00  0.00     0.005 A 
HETATM   10  C   UNL     1      43.721 -19.156   3.623  1.00  0.00     0.049 A 
HETATM   11  C   UNL     1      42.560 -17.779   5.220  1.00  0.00     0.014 A 
HETATM   12  C   UNL     1      44.343 -19.912   4.638  1.00  0.00    -0.031 A 
HETATM   13  N   UNL     1      43.836 -19.266   2.258  1.00  0.00    -0.364 N 
HETATM   14  C   UNL     1      44.048 -19.540   5.961  1.00  0.00     0.009 A 
HETATM   15  C   UNL     1      43.177 -18.495   6.249  1.00  0.00     0.002 A 
HETATM   16  C   UNL     1      43.025 -18.357   1.634  1.00  0.00     0.102 A 
HETATM   17  H   UNL     1      44.431 -19.938   1.791  1.00  0.00     0.165 HD
BRANCH  12  18
HETATM   18  C   UNL     1      45.293 -21.054   4.373  1.00  0.00     0.036 C 
HETATM   19  C   UNL     1      44.965 -22.273   5.221  1.00  0.00     0.010 C 
ENDBRANCH  12  18
ENDBRANCH   1   8
BRANCH   4  20
HETATM   20  N   UNL     1      38.252 -13.825   1.632  1.00  0.00    -0.365 N 
HETATM   21  H   UNL     1      37.863 -13.333   2.433  1.00  0.00     0.162 HD
BRANCH  20  22
HETATM   22  C   UNL     1      37.697 -13.581   0.299  1.00  0.00     0.083 C 
HETATM   23  C   UNL     1      37.033 -12.211   0.256  1.00  0.00     0.025 C 
HETATM   24  C   UNL     1      37.041 -11.877  -1.225  1.00  0.00     0.002 C 
HETATM   25  C   UNL     1      38.407 -12.357  -1.695  1.00  0.00     0.002 C 
HETATM   26  C   UNL     1      38.792 -13.507  -0.764  1.00  0.00     0.025 C 
ENDBRANCH  20  22
ENDBRANCH   4  20
TORSDOF 4
ENDMDL
MODEL 9
REMARK VINA RESULT:      -7.5      5.221      7.491
REMARK  4 active torsions:
REMARK  status: ('A' for Active; 'I' for Inactive)
REMARK    1  A    between atoms: C_2  and  C_3 
REMARK    2  A    between atoms: C_6  and  C_7 
REMARK    3  A    between atoms: C_10  and  N_11 
REMARK    4  A    between atoms: N_11  and  C_12 
ROOT
HETATM    1  C   UNL     1      42.359 -17.235   1.811  1.00  0.00     0.076 C 
HETATM    2  C   UNL     1      42.792 -15.799   2.008  1.00  0.00     0.144 C 
HETATM    3  S   UNL     1      41.414 -14.642   2.007  1.00  0.00    -0.087 SA
HETATM    4  C   UNL     1      40.550 -15.282   0.664  1.00  0.00     0.157 C 
HETATM    5  N   UNL     1      40.642 -16.576   0.389  1.00  0.00    -0.257 N 
HETATM    6  H   UNL     1      40.041 -16.892  -0.366  1.00  0.00     0.191 HD
HETATM    7  N   UNL     1      41.384 -17.603   1.028  1.00  0.00    -0.176 NA
ENDROOT
BRANCH   1   8
HETATM    8  C   UNL     1      43.143 -18.317   2.419  1.00  0.00     0.019 A 
HETATM    9  C   UNL     1      43.314 -18.644   3.816  1.00  0.00     0.005 A 
HETATM   10  C   UNL     1      44.093 -19.803   3.892  1.00  0.00     0.049 A 
HETATM   11  C   UNL     1      42.866 -18.072   5.028  1.00  0.00     0.014 A 
HETATM   12  C   UNL     1      44.430 -20.442   5.103  1.00  0.00    -0.031 A 
HETATM   13  N   UNL     1      44.425 -20.146   2.603  1.00  0.00    -0.364 N 
HETATM   14  C   UNL     1      43.965 -19.830   6.280  1.00  0.00     0.009 A 
HETATM   15  C   UNL     1      43.200 -18.669   6.247  1.00  0.00     0.002 A 
HETATM   16  C   UNL     1      43.857 -19.272   1.714  1.00  0.00     0.102 A 
HETATM   17  H   UNL     1      44.998 -20.942   2.357  1.00  0.00     0.165 HD
BRANCH  12  18
HETATM   18  C   UNL     1      45.254 -21.703   5.188  1.00  0.00     0.036 C 
HETATM   19  C   UNL     1      44.578 -22.871   4.489  1.00  0.00     0.010 C 
ENDBRANCH  12  18
ENDBRANCH   1   8
BRANCH   4  20
HETATM   20  N   UNL     1      39.827 -14.406  -0.005  1.00  0.00    -0.365 N 
HETATM   21  H   UNL     1      38.918 -14.240   0.420  1.00  0.00     0.162 HD
BRANCH  20  22
HETATM   22  C   UNL     1      40.178 -13.713  -1.247  1.00  0.00     0.083 C 
HETATM   23  C   UNL     1      41.686 -13.512  -1.321  1.00  0.00     0.025 C 
HETATM   24  C   UNL     1      41.932 -13.343  -2.809  1.00  0.00     0.002 C 
HETATM   25  C   UNL     1      41.014 -14.377  -3.447  1.00  0.00     0.002 C 
HETATM   26  C   UNL     1      39.844 -14.554  -2.478  1.00  0.00     0.025 C 
ENDBRANCH  20  22
ENDBRANCH   4  20
TORSDOF 4
ENDMDL
MODEL 10
REMARK VINA RESULT:      -7.3      4.118      5.084
REMARK  4 active torsions:
REMARK  status: ('A' for Active; 'I' for Inactive)
REMARK    1  A    between atoms: C_2  and  C_3 
REMARK    2  A    between atoms: C_6  and  C_7 
REMARK    3  A    between atoms: C_10  and  N_11 
REMARK    4  A    between atoms: N_11  and  C_12 
ROOT
HETATM    1  C   UNL     1      42.790 -15.504   3.450  1.00  0.00     0.076 C 
HETATM    2  C   UNL     1      41.510 -15.496   2.644  1.00  0.00     0.144 C 
HETATM    3  S   UNL     1      41.489 -14.226   1.369  1.00  0.00    -0.087 SA
HETATM    4  C   UNL     1      42.130 -12.927   2.298  1.00  0.00     0.157 C 
HETATM    5  N   UNL     1      42.963 -13.190   3.295  1.00  0.00    -0.257 N 
HETATM    6  H   UNL     1      43.361 -12.371   3.743  1.00  0.00     0.191 HD
HETATM    7  N   UNL     1      43.448 -14.430   3.788  1.00  0.00    -0.176 NA
ENDROOT
BRANCH   1   8
HETATM    8  C   UNL     1      43.282 -16.768   4.013  1.00  0.00     0.019 A 
HETATM    9  C   UNL     1      43.518 -18.030   3.351  1.00  0.00     0.005 A 
HETATM   10  C   UNL     1      44.054 -18.914   4.293  1.00  0.00     0.049 A 
HETATM   11  C   UNL     1      43.340 -18.503   2.031  1.00  0.00     0.014 A 
HETATM   12  C   UNL     1      44.450 -20.233   3.991  1.00  0.00    -0.031 A 
HETATM   13  N   UNL     1      44.102 -18.240   5.490  1.00  0.00    -0.364 N 
HETATM   14  C   UNL     1      44.247 -20.657   2.667  1.00  0.00     0.009 A 
HETATM   15  C   UNL     1      43.703 -19.813   1.705  1.00  0.00     0.002 A 
HETATM   16  C   UNL     1      43.652 -16.956   5.335  1.00  0.00     0.102 A 
HETATM   17  H   UNL     1      44.437 -18.643   6.355  1.00  0.00     0.165 HD
BRANCH  12  18
HETATM   18  C   UNL     1      45.046 -21.183   5.001  1.00  0.00     0.036 C 
HETATM   19  C   UNL     1      44.731 -22.633   4.671  1.00  0.00     0.010 C 
ENDBRANCH  12  18
ENDBRANCH   1   8
BRANCH   4  20
HETATM   20  N   UNL     1      41.738 -11.725   1.925  1.00  0.00    -0.365 N 
HETATM   21  H   UNL     1      42.189 -11.412   1.069  1.00  0.00     0.162 HD
BRANCH  20  22
HETATM   22  C   UNL     1      40.790 -10.838   2.603  1.00  0.00     0.083 C 
HETATM   23  C   UNL     1      40.033 -10.005   1.577  1.00  0.00     0.025 C 
HETATM   24  C   UNL     1      38.772  -9.611   2.325  1.00  0.00     0.002 C 
HETATM   25  C   UNL     1      38.393 -10.876   3.083  1.00  0.00     0.002 C 
HETATM   26  C   UNL     1      39.703 -11.625   3.333  1.00  0.00     0.025 C 
ENDBRANCH  20  22
ENDBRANCH   4  20
TORSDOF 4
ENDMDL
