MODEL 1
REMARK VINA RESULT:      -9.3      0.000      0.000
REMARK  7 active torsions:
REMARK  status: ('A' for Active; 'I' for Inactive)
REMARK       I    between atoms: C_2  and  N_3 
REMARK    1  A    between atoms: N_3  and  C_4 
REMARK    2  A    between atoms: C_6  and  N_7 
REMARK       I    between atoms: N_7  and  C_8 
REMARK       I    between atoms: C_8  and  N_9 
REMARK    3  A    between atoms: N_9  and  C_10 
REMARK    4  A    between atoms: C_10  and  C_11 
REMARK    5  A    between atoms: C_11  and  C_12 
REMARK    6  A    between atoms: N_14  and  C_16 
REMARK    7  A    between atoms: C_16  and  C_17 
ROOT
HETATM    1  N   UNL     1      45.345 -11.353   9.622  1.00  0.00    -0.309 N 
HETATM    2  C   UNL     1      45.617 -12.190   8.584  1.00  0.00     0.320 C 
HETATM    3  N   UNL     1      44.638 -13.048   8.192  1.00  0.00    -0.343 N 
HETATM    4  O   UNL     1      46.724 -12.160   8.045  1.00  0.00    -0.247 OA
HETATM    5  H   UNL     1      46.191 -10.942   9.999  1.00  0.00     0.170 HD
HETATM    6  H   UNL     1      43.936 -13.238   8.897  1.00  0.00     0.164 HD
ENDROOT
BRANCH   3   7
HETATM    7  C   UNL     1      44.853 -14.112   7.236  1.00  0.00     0.125 C 
BRANCH   7   8
HETATM    8  C   UNL     1      43.734 -15.159   7.203  1.00  0.00     0.026 C 
BRANCH   8   9
HETATM    9  C   UNL     1      44.106 -16.641   7.068  1.00  0.00     0.014 C 
HETATM   10  C   UNL     1      44.007 -17.235   5.669  1.00  0.00     0.240 C 
HETATM   11  N   UNL     1      43.877 -18.730   5.892  1.00  0.00    -0.067 N 
HETATM   12  H   UNL     1      42.993 -18.996   5.433  1.00  0.00     0.280 HD
HETATM   13  C   UNL     1      43.699 -18.963   7.375  1.00  0.00     0.235 C 
HETATM   14  C   UNL     1      43.326 -17.609   7.943  1.00  0.00     0.034 C 
BRANCH  11  15
HETATM   15  C   UNL     1      44.970 -19.569   5.297  1.00  0.00     0.273 C 
BRANCH  15  16
HETATM   16  C   UNL     1      44.572 -20.304   4.047  1.00  0.00    -0.033 A 
HETATM   17  C   UNL     1      44.795 -21.685   3.927  1.00  0.00     0.009 A 
HETATM   18  C   UNL     1      44.402 -22.370   2.776  1.00  0.00     0.001 A 
HETATM   19  C   UNL     1      43.782 -21.685   1.735  1.00  0.00     0.000 A 
HETATM   20  C   UNL     1      43.555 -20.315   1.841  1.00  0.00     0.001 A 
HETATM   21  C   UNL     1      43.950 -19.625   2.988  1.00  0.00     0.009 A 
ENDBRANCH  15  16
ENDBRANCH  11  15
ENDBRANCH   8   9
ENDBRANCH   7   8
ENDBRANCH   3   7
BRANCH   1  22
HETATM   22  C   UNL     1      44.142 -10.970  10.252  1.00  0.00     0.038 A 
HETATM   23  C   UNL     1      43.974 -10.864  11.639  1.00  0.00     0.059 A 
HETATM   24  C   UNL     1      42.752 -10.457  12.189  1.00  0.00     0.036 A 
HETATM   25  C   UNL     1      41.674 -10.199  11.334  1.00  0.00     0.029 A 
HETATM   26  C   UNL     1      41.816 -10.346   9.955  1.00  0.00     0.004 A 
HETATM   27  C   UNL     1      43.043 -10.733   9.418  1.00  0.00     0.029 A 
BRANCH  24  28
HETATM   28  N   UNL     1      42.524 -10.290  13.572  1.00  0.00    -0.327 N 
HETATM   29  C   UNL     1      42.533  -9.109  14.292  1.00  0.00     0.218 C 
HETATM   30  C   UNL     1      42.225  -9.312  15.757  1.00  0.00     0.117 C 
HETATM   31  O   UNL     1      42.733  -7.983  13.847  1.00  0.00    -0.274 OA
HETATM   32  H   UNL     1      42.286 -11.133  14.083  1.00  0.00     0.169 HD
ENDBRANCH  24  28
ENDBRANCH   1  22
TORSDOF 7
ENDMDL
MODEL 2
REMARK VINA RESULT:      -9.2      5.020      8.685
REMARK  7 active torsions:
REMARK  status: ('A' for Active; 'I' for Inactive)
REMARK       I    between atoms: C_2  and  N_3 
REMARK    1  A    between atoms: N_3  and  C_4 
REMARK    2  A    between atoms: C_6  and  N_7 
REMARK       I    between atoms: N_7  and  C_8 
REMARK       I    between atoms: C_8  and  N_9 
REMARK    3  A    between atoms: N_9  and  C_10 
REMARK    4  A    between atoms: C_10  and  C_11 
REMARK    5  A    between atoms: C_11  and  C_12 
REMARK    6  A    between atoms: N_14  and  C_16 
REMARK    7  A    between atoms: C_16  and  C_17 
ROOT
HETATM    1  N   UNL     1      40.813 -14.695   4.011  1.00  0.00    -0.309 N 
HETATM    2  C   UNL     1      41.659 -14.128   4.914  1.00  0.00     0.320 C 
HETATM    3  N   UNL     1      42.979 -14.440   4.826  1.00  0.00    -0.343 N 
HETATM    4  O   UNL     1      41.215 -13.372   5.780  1.00  0.00    -0.247 OA
HETATM    5  H   UNL     1      39.847 -14.609   4.303  1.00  0.00     0.170 HD
HETATM    6  H   UNL     1      43.176 -15.307   4.339  1.00  0.00     0.164 HD
ENDROOT
BRANCH   3   7
HETATM    7  C   UNL     1      43.952 -14.062   5.827  1.00  0.00     0.125 C 
BRANCH   7   8
HETATM    8  C   UNL     1      43.911 -14.920   7.095  1.00  0.00     0.026 C 
BRANCH   8   9
HETATM    9  C   UNL     1      44.152 -16.431   6.978  1.00  0.00     0.014 C 
HETATM   10  C   UNL     1      44.154 -17.004   5.567  1.00  0.00     0.240 C 
HETATM   11  N   UNL     1      43.856 -18.481   5.749  1.00  0.00    -0.067 N 
HETATM   12  H   UNL     1      43.008 -18.657   5.191  1.00  0.00     0.280 HD
HETATM   13  C   UNL     1      43.492 -18.704   7.200  1.00  0.00     0.235 C 
HETATM   14  C   UNL     1      43.190 -17.324   7.745  1.00  0.00     0.034 C 
BRANCH  11  15
HETATM   15  C   UNL     1      44.924 -19.419   5.266  1.00  0.00     0.273 C 
BRANCH  15  16
HETATM   16  C   UNL     1      44.530 -20.232   4.063  1.00  0.00    -0.033 A 
HETATM   17  C   UNL     1      43.917 -19.622   2.957  1.00  0.00     0.009 A 
HETATM   18  C   UNL     1      43.576 -20.374   1.832  1.00  0.00     0.001 A 
HETATM   19  C   UNL     1      43.842 -21.740   1.799  1.00  0.00     0.000 A 
HETATM   20  C   UNL     1      44.449 -22.358   2.890  1.00  0.00     0.001 A 
HETATM   21  C   UNL     1      44.789 -21.610   4.019  1.00  0.00     0.009 A 
ENDBRANCH  15  16
ENDBRANCH  11  15
ENDBRANCH   8   9
ENDBRANCH   7   8
ENDBRANCH   3   7
BRANCH   1  22
HETATM   22  C   UNL     1      41.029 -15.362   2.786  1.00  0.00     0.038 A 
HETATM   23  C   UNL     1      41.317 -14.719   1.575  1.00  0.00     0.059 A 
HETATM   24  C   UNL     1      41.540 -15.453   0.403  1.00  0.00     0.036 A 
HETATM   25  C   UNL     1      41.424 -16.847   0.442  1.00  0.00     0.029 A 
HETATM   26  C   UNL     1      41.093 -17.495   1.631  1.00  0.00     0.004 A 
HETATM   27  C   UNL     1      40.893 -16.754   2.796  1.00  0.00     0.029 A 
BRANCH  24  28
HETATM   28  N   UNL     1      41.874 -14.874  -0.840  1.00  0.00    -0.327 N 
HETATM   29  C   UNL     1      41.012 -14.501  -1.855  1.00  0.00     0.218 C 
HETATM   30  C   UNL     1      41.727 -13.889  -3.038  1.00  0.00     0.117 C 
HETATM   31  O   UNL     1      39.789 -14.600  -1.850  1.00  0.00    -0.274 OA
HETATM   32  H   UNL     1      42.858 -14.673  -0.981  1.00  0.00     0.169 HD
ENDBRANCH  24  28
ENDBRANCH   1  22
TORSDOF 7
ENDMDL
MODEL 3
REMARK VINA RESULT:      -9.2      1.851      2.641
REMARK  7 active torsions:
REMARK  status: ('A' for Active; 'I' for Inactive)
REMARK       I    between atoms: C_2  and  N_3 
REMARK    1  A    between atoms: N_3  and  C_4 
REMARK    2  A    between atoms: C_6  and  N_7 
REMARK       I    between atoms: N_7  and  C_8 
REMARK       I    between atoms: C_8  and  N_9 
REMARK    3  A    between atoms: N_9  and  C_10 
REMARK    4  A    between atoms: C_10  and  C_11 
REMARK    5  A    between atoms: C_11  and  C_12 
REMARK    6  A    between atoms: N_14  and  C_16 
REMARK    7  A    between atoms: C_16  and  C_17 
ROOT
HETATM    1  N   UNL     1      45.005 -11.752   9.934  1.00  0.00    -0.309 N 
HETATM    2  C   UNL     1      45.318 -12.395   8.776  1.00  0.00     0.320 C 
HETATM    3  N   UNL     1      44.325 -13.073   8.143  1.00  0.00    -0.343 N 
HETATM    4  O   UNL     1      46.472 -12.361   8.348  1.00  0.00    -0.247 OA
HETATM    5  H   UNL     1      45.837 -11.497  10.453  1.00  0.00     0.170 HD
HETATM    6  H   UNL     1      43.545 -13.331   8.735  1.00  0.00     0.164 HD
ENDROOT
BRANCH   3   7
HETATM    7  C   UNL     1      44.557 -13.949   7.015  1.00  0.00     0.125 C 
BRANCH   7   8
HETATM    8  C   UNL     1      43.504 -15.050   6.851  1.00  0.00     0.026 C 
BRANCH   8   9
HETATM    9  C   UNL     1      43.958 -16.516   6.835  1.00  0.00     0.014 C 
HETATM   10  C   UNL     1      43.851 -17.238   5.498  1.00  0.00     0.240 C 
HETATM   11  N   UNL     1      43.815 -18.712   5.857  1.00  0.00    -0.067 N 
HETATM   12  H   UNL     1      42.935 -19.066   5.456  1.00  0.00     0.280 HD
HETATM   13  C   UNL     1      43.697 -18.819   7.361  1.00  0.00     0.235 C 
HETATM   14  C   UNL     1      43.264 -17.442   7.820  1.00  0.00     0.034 C 
BRANCH  11  15
HETATM   15  C   UNL     1      44.937 -19.539   5.301  1.00  0.00     0.273 C 
BRANCH  15  16
HETATM   16  C   UNL     1      44.570 -20.326   4.072  1.00  0.00    -0.033 A 
HETATM   17  C   UNL     1      44.824 -21.705   4.003  1.00  0.00     0.009 A 
HETATM   18  C   UNL     1      44.461 -22.437   2.872  1.00  0.00     0.001 A 
HETATM   19  C   UNL     1      43.841 -21.802   1.799  1.00  0.00     0.000 A 
HETATM   20  C   UNL     1      43.585 -20.434   1.854  1.00  0.00     0.001 A 
HETATM   21  C   UNL     1      43.950 -19.696   2.982  1.00  0.00     0.009 A 
ENDBRANCH  15  16
ENDBRANCH  11  15
ENDBRANCH   8   9
ENDBRANCH   7   8
ENDBRANCH   3   7
BRANCH   1  22
HETATM   22  C   UNL     1      43.776 -11.391  10.526  1.00  0.00     0.038 A 
HETATM   23  C   UNL     1      42.780 -10.642   9.886  1.00  0.00     0.059 A 
HETATM   24  C   UNL     1      41.575 -10.340  10.534  1.00  0.00     0.036 A 
HETATM   25  C   UNL     1      41.391 -10.759  11.857  1.00  0.00     0.029 A 
HETATM   26  C   UNL     1      42.393 -11.466  12.519  1.00  0.00     0.004 A 
HETATM   27  C   UNL     1      43.581 -11.776  11.857  1.00  0.00     0.029 A 
BRANCH  24  28
HETATM   28  N   UNL     1      40.514  -9.626   9.936  1.00  0.00    -0.327 N 
HETATM   29  C   UNL     1      39.605 -10.090   9.002  1.00  0.00     0.218 C 
HETATM   30  C   UNL     1      38.589  -9.045   8.603  1.00  0.00     0.117 C 
HETATM   31  O   UNL     1      39.555 -11.221   8.530  1.00  0.00    -0.274 OA
HETATM   32  H   UNL     1      40.384  -8.676  10.266  1.00  0.00     0.169 HD
ENDBRANCH  24  28
ENDBRANCH   1  22
TORSDOF 7
ENDMDL
MODEL 4
REMARK VINA RESULT:      -9.2      5.777      9.211
REMARK  7 active torsions:
REMARK  status: ('A' for Active; 'I' for Inactive)
REMARK       I    between atoms: C_2  and  N_3 
REMARK    1  A    between atoms: N_3  and  C_4 
REMARK    2  A    between atoms: C_6  and  N_7 
REMARK       I    between atoms: N_7  and  C_8 
REMARK       I    between atoms: C_8  and  N_9 
REMARK    3  A    between atoms: N_9  and  C_10 
REMARK    4  A    between atoms: C_10  and  C_11 
REMARK    5  A    between atoms: C_11  and  C_12 
REMARK    6  A    between atoms: N_14  and  C_16 
REMARK    7  A    between atoms: C_16  and  C_17 
ROOT
HETATM    1  N   UNL     1      42.193 -13.884   2.921  1.00  0.00    -0.309 N 
HETATM    2  C   UNL     1      41.933 -14.043   4.248  1.00  0.00     0.320 C 
HETATM    3  N   UNL     1      41.066 -15.027   4.607  1.00  0.00    -0.343 N 
HETATM    4  O   UNL     1      42.466 -13.299   5.072  1.00  0.00    -0.247 OA
HETATM    5  H   UNL     1      42.636 -12.992   2.735  1.00  0.00     0.170 HD
HETATM    6  H   UNL     1      40.436 -15.324   3.872  1.00  0.00     0.164 HD
ENDROOT
BRANCH   3   7
HETATM    7  C   UNL     1      40.559 -15.184   5.953  1.00  0.00     0.125 C 
BRANCH   7   8
HETATM    8  C   UNL     1      40.867 -16.546   6.582  1.00  0.00     0.026 C 
BRANCH   8   9
HETATM    9  C   UNL     1      42.297 -17.096   6.501  1.00  0.00     0.014 C 
HETATM   10  C   UNL     1      42.484 -18.366   5.681  1.00  0.00     0.240 C 
HETATM   11  N   UNL     1      43.775 -18.974   6.199  1.00  0.00    -0.067 N 
HETATM   12  H   UNL     1      43.518 -19.919   6.521  1.00  0.00     0.280 HD
HETATM   13  C   UNL     1      44.202 -18.185   7.416  1.00  0.00     0.235 C 
HETATM   14  C   UNL     1      42.972 -17.403   7.829  1.00  0.00     0.034 C 
BRANCH  11  15
HETATM   15  C   UNL     1      44.872 -19.120   5.185  1.00  0.00     0.273 C 
BRANCH  15  16
HETATM   16  C   UNL     1      44.531 -20.027   4.035  1.00  0.00    -0.033 A 
HETATM   17  C   UNL     1      44.001 -19.504   2.844  1.00  0.00     0.009 A 
HETATM   18  C   UNL     1      43.708 -20.346   1.769  1.00  0.00     0.001 A 
HETATM   19  C   UNL     1      43.941 -21.714   1.871  1.00  0.00     0.000 A 
HETATM   20  C   UNL     1      44.465 -22.246   3.047  1.00  0.00     0.001 A 
HETATM   21  C   UNL     1      44.756 -21.409   4.126  1.00  0.00     0.009 A 
ENDBRANCH  15  16
ENDBRANCH  11  15
ENDBRANCH   8   9
ENDBRANCH   7   8
ENDBRANCH   3   7
BRANCH   1  22
HETATM   22  C   UNL     1      41.962 -14.704   1.796  1.00  0.00     0.038 A 
HETATM   23  C   UNL     1      41.078 -14.390   0.756  1.00  0.00     0.059 A 
HETATM   24  C   UNL     1      40.917 -15.247  -0.340  1.00  0.00     0.036 A 
HETATM   25  C   UNL     1      41.621 -16.457  -0.364  1.00  0.00     0.029 A 
HETATM   26  C   UNL     1      42.469 -16.802   0.687  1.00  0.00     0.004 A 
HETATM   27  C   UNL     1      42.634 -15.930   1.764  1.00  0.00     0.029 A 
BRANCH  24  28
HETATM   28  N   UNL     1      40.076 -14.975  -1.439  1.00  0.00    -0.327 N 
HETATM   29  C   UNL     1      40.365 -15.133  -2.783  1.00  0.00     0.218 C 
HETATM   30  C   UNL     1      39.208 -14.760  -3.680  1.00  0.00     0.117 C 
HETATM   31  O   UNL     1      41.415 -15.553  -3.260  1.00  0.00    -0.274 OA
HETATM   32  H   UNL     1      39.137 -14.667  -1.209  1.00  0.00     0.169 HD
ENDBRANCH  24  28
ENDBRANCH   1  22
TORSDOF 7
ENDMDL
MODEL 5
REMARK VINA RESULT:      -9.1      2.281      3.132
REMARK  7 active torsions:
REMARK  status: ('A' for Active; 'I' for Inactive)
REMARK       I    between atoms: C_2  and  N_3 
REMARK    1  A    between atoms: N_3  and  C_4 
REMARK    2  A    between atoms: C_6  and  N_7 
REMARK       I    between atoms: N_7  and  C_8 
REMARK       I    between atoms: C_8  and  N_9 
REMARK    3  A    between atoms: N_9  and  C_10 
REMARK    4  A    between atoms: C_10  and  C_11 
REMARK    5  A    between atoms: C_11  and  C_12 
REMARK    6  A    between atoms: N_14  and  C_16 
REMARK    7  A    between atoms: C_16  and  C_17 
ROOT
HETATM    1  N   UNL     1      45.250 -12.254   8.634  1.00  0.00    -0.309 N 
HETATM    2  C   UNL     1      45.249 -13.232   7.687  1.00  0.00     0.320 C 
HETATM    3  N   UNL     1      44.292 -14.193   7.773  1.00  0.00    -0.343 N 
HETATM    4  O   UNL     1      46.107 -13.229   6.802  1.00  0.00    -0.247 OA
HETATM    5  H   UNL     1      46.125 -11.743   8.639  1.00  0.00     0.170 HD
HETATM    6  H   UNL     1      43.887 -14.304   8.694  1.00  0.00     0.164 HD
ENDROOT
BRANCH   3   7
HETATM    7  C   UNL     1      44.289 -15.384   6.951  1.00  0.00     0.125 C 
BRANCH   7   8
HETATM    8  C   UNL     1      43.052 -15.523   6.058  1.00  0.00     0.026 C 
BRANCH   8   9
HETATM    9  C   UNL     1      43.019 -16.636   5.002  1.00  0.00     0.014 C 
HETATM   10  C   UNL     1      43.386 -16.226   3.581  1.00  0.00     0.240 C 
HETATM   11  N   UNL     1      42.763 -17.291   2.699  1.00  0.00    -0.067 N 
HETATM   12  H   UNL     1      42.137 -16.780   2.059  1.00  0.00     0.280 HD
HETATM   13  C   UNL     1      41.894 -18.166   3.573  1.00  0.00     0.235 C 
HETATM   14  C   UNL     1      41.700 -17.376   4.850  1.00  0.00     0.034 C 
BRANCH  11  15
HETATM   15  C   UNL     1      43.727 -18.080   1.860  1.00  0.00     0.273 C 
BRANCH  15  16
HETATM   16  C   UNL     1      44.025 -19.454   2.394  1.00  0.00    -0.033 A 
HETATM   17  C   UNL     1      44.668 -19.617   3.632  1.00  0.00     0.009 A 
HETATM   18  C   UNL     1      44.921 -20.893   4.136  1.00  0.00     0.001 A 
HETATM   19  C   UNL     1      44.537 -22.018   3.412  1.00  0.00     0.000 A 
HETATM   20  C   UNL     1      43.900 -21.871   2.182  1.00  0.00     0.001 A 
HETATM   21  C   UNL     1      43.647 -20.596   1.671  1.00  0.00     0.009 A 
ENDBRANCH  15  16
ENDBRANCH  11  15
ENDBRANCH   8   9
ENDBRANCH   7   8
ENDBRANCH   3   7
BRANCH   1  22
HETATM   22  C   UNL     1      44.290 -11.840   9.581  1.00  0.00     0.038 A 
HETATM   23  C   UNL     1      43.179 -11.039   9.283  1.00  0.00     0.059 A 
HETATM   24  C   UNL     1      42.257 -10.685  10.276  1.00  0.00     0.036 A 
HETATM   25  C   UNL     1      42.482 -11.104  11.593  1.00  0.00     0.029 A 
HETATM   26  C   UNL     1      43.608 -11.861  11.910  1.00  0.00     0.004 A 
HETATM   27  C   UNL     1      44.509 -12.224  10.909  1.00  0.00     0.029 A 
BRANCH  24  28
HETATM   28  N   UNL     1      41.097  -9.917  10.039  1.00  0.00    -0.327 N 
HETATM   29  C   UNL     1      39.888 -10.351   9.526  1.00  0.00     0.218 C 
HETATM   30  C   UNL     1      38.860  -9.248   9.432  1.00  0.00     0.117 C 
HETATM   31  O   UNL     1      39.605 -11.497   9.191  1.00  0.00    -0.274 OA
HETATM   32  H   UNL     1      41.149  -8.944  10.319  1.00  0.00     0.169 HD
ENDBRANCH  24  28
ENDBRANCH   1  22
TORSDOF 7
ENDMDL
MODEL 6
REMARK VINA RESULT:      -8.8      2.710      4.742
REMARK  7 active torsions:
REMARK  status: ('A' for Active; 'I' for Inactive)
REMARK       I    between atoms: C_2  and  N_3 
REMARK    1  A    between atoms: N_3  and  C_4 
REMARK    2  A    between atoms: C_6  and  N_7 
REMARK       I    between atoms: N_7  and  C_8 
REMARK       I    between atoms: C_8  and  N_9 
REMARK    3  A    between atoms: N_9  and  C_10 
REMARK    4  A    between atoms: C_10  and  C_11 
REMARK    5  A    between atoms: C_11  and  C_12 
REMARK    6  A    between atoms: N_14  and  C_16 
REMARK    7  A    between atoms: C_16  and  C_17 
ROOT
HETATM    1  N   UNL     1      40.547 -10.412   9.747  1.00  0.00    -0.309 N 
HETATM    2  C   UNL     1      39.869 -10.879   8.662  1.00  0.00     0.320 C 
HETATM    3  N   UNL     1      40.585 -11.507   7.693  1.00  0.00    -0.343 N 
HETATM    4  O   UNL     1      38.652 -10.710   8.581  1.00  0.00    -0.247 OA
HETATM    5  H   UNL     1      39.990  -9.754  10.278  1.00  0.00     0.170 HD
HETATM    6  H   UNL     1      41.572 -11.281   7.683  1.00  0.00     0.164 HD
ENDROOT
BRANCH   3   7
HETATM    7  C   UNL     1      40.027 -11.881   6.411  1.00  0.00     0.125 C 
BRANCH   7   8
HETATM    8  C   UNL     1      39.926 -13.394   6.192  1.00  0.00     0.026 C 
BRANCH   8   9
HETATM    9  C   UNL     1      40.953 -14.083   5.283  1.00  0.00     0.014 C 
HETATM   10  C   UNL     1      40.903 -15.605   5.245  1.00  0.00     0.240 C 
HETATM   11  N   UNL     1      42.280 -16.026   4.767  1.00  0.00    -0.067 N 
HETATM   12  H   UNL     1      42.647 -16.640   5.509  1.00  0.00     0.280 HD
HETATM   13  C   UNL     1      43.154 -14.792   4.733  1.00  0.00     0.235 C 
HETATM   14  C   UNL     1      42.413 -13.763   5.560  1.00  0.00     0.034 C 
BRANCH  11  15
HETATM   15  C   UNL     1      42.310 -16.796   3.480  1.00  0.00     0.273 C 
BRANCH  15  16
HETATM   16  C   UNL     1      43.137 -18.051   3.533  1.00  0.00    -0.033 A 
HETATM   17  C   UNL     1      43.281 -18.862   2.395  1.00  0.00     0.009 A 
HETATM   18  C   UNL     1      44.070 -20.013   2.440  1.00  0.00     0.001 A 
HETATM   19  C   UNL     1      44.721 -20.366   3.618  1.00  0.00     0.000 A 
HETATM   20  C   UNL     1      44.585 -19.572   4.754  1.00  0.00     0.001 A 
HETATM   21  C   UNL     1      43.795 -18.422   4.715  1.00  0.00     0.009 A 
ENDBRANCH  15  16
ENDBRANCH  11  15
ENDBRANCH   8   9
ENDBRANCH   7   8
ENDBRANCH   3   7
BRANCH   1  22
HETATM   22  C   UNL     1      41.842 -10.666  10.246  1.00  0.00     0.038 A 
HETATM   23  C   UNL     1      42.974 -10.866   9.445  1.00  0.00     0.059 A 
HETATM   24  C   UNL     1      44.233 -11.094  10.016  1.00  0.00     0.036 A 
HETATM   25  C   UNL     1      44.343 -11.167  11.410  1.00  0.00     0.029 A 
HETATM   26  C   UNL     1      43.216 -11.015  12.216  1.00  0.00     0.004 A 
HETATM   27  C   UNL     1      41.972 -10.770  11.635  1.00  0.00     0.029 A 
BRANCH  24  28
HETATM   28  N   UNL     1      45.419 -11.263   9.271  1.00  0.00    -0.327 N 
HETATM   29  C   UNL     1      45.789 -12.357   8.510  1.00  0.00     0.218 C 
HETATM   30  C   UNL     1      47.127 -12.175   7.831  1.00  0.00     0.117 C 
HETATM   31  O   UNL     1      45.137 -13.382   8.339  1.00  0.00    -0.274 OA
HETATM   32  H   UNL     1      46.051 -10.469   9.264  1.00  0.00     0.169 HD
ENDBRANCH  24  28
ENDBRANCH   1  22
TORSDOF 7
ENDMDL
MODEL 7
REMARK VINA RESULT:      -8.7      2.482      2.974
REMARK  7 active torsions:
REMARK  status: ('A' for Active; 'I' for Inactive)
REMARK       I    between atoms: C_2  and  N_3 
REMARK    1  A    between atoms: N_3  and  C_4 
REMARK    2  A    between atoms: C_6  and  N_7 
REMARK       I    between atoms: N_7  and  C_8 
REMARK       I    between atoms: C_8  and  N_9 
REMARK    3  A    between atoms: N_9  and  C_10 
REMARK    4  A    between atoms: C_10  and  C_11 
REMARK    5  A    between atoms: C_11  and  C_12 
REMARK    6  A    between atoms: N_14  and  C_16 
REMARK    7  A    between atoms: C_16  and  C_17 
ROOT
HETATM    1  N   UNL     1      42.101 -10.358   7.788  1.00  0.00    -0.309 N 
HETATM    2  C   UNL     1      41.479 -11.039   6.787  1.00  0.00     0.320 C 
HETATM    3  N   UNL     1      41.778 -12.357   6.639  1.00  0.00    -0.343 N 
HETATM    4  O   UNL     1      40.689 -10.453   6.046  1.00  0.00    -0.247 OA
HETATM    5  H   UNL     1      42.014  -9.356   7.666  1.00  0.00     0.170 HD
HETATM    6  H   UNL     1      42.664 -12.636   7.042  1.00  0.00     0.164 HD
ENDROOT
BRANCH   3   7
HETATM    7  C   UNL     1      41.338 -13.148   5.511  1.00  0.00     0.125 C 
BRANCH   7   8
HETATM    8  C   UNL     1      40.742 -14.506   5.894  1.00  0.00     0.026 C 
BRANCH   8   9
HETATM    9  C   UNL     1      41.543 -15.780   5.597  1.00  0.00     0.014 C 
HETATM   10  C   UNL     1      42.129 -15.895   4.196  1.00  0.00     0.240 C 
HETATM   11  N   UNL     1      42.359 -17.380   3.993  1.00  0.00    -0.067 N 
HETATM   12  H   UNL     1      41.815 -17.626   3.152  1.00  0.00     0.280 HD
HETATM   13  C   UNL     1      41.731 -18.109   5.160  1.00  0.00     0.235 C 
HETATM   14  C   UNL     1      40.810 -17.096   5.806  1.00  0.00     0.034 C 
BRANCH  11  15
HETATM   15  C   UNL     1      43.783 -17.787   3.750  1.00  0.00     0.273 C 
BRANCH  15  16
HETATM   16  C   UNL     1      43.954 -19.231   3.365  1.00  0.00    -0.033 A 
HETATM   17  C   UNL     1      43.421 -19.719   2.162  1.00  0.00     0.009 A 
HETATM   18  C   UNL     1      43.603 -21.053   1.795  1.00  0.00     0.001 A 
HETATM   19  C   UNL     1      44.317 -21.913   2.624  1.00  0.00     0.000 A 
HETATM   20  C   UNL     1      44.850 -21.442   3.822  1.00  0.00     0.001 A 
HETATM   21  C   UNL     1      44.668 -20.109   4.195  1.00  0.00     0.009 A 
ENDBRANCH  15  16
ENDBRANCH  11  15
ENDBRANCH   8   9
ENDBRANCH   7   8
ENDBRANCH   3   7
BRANCH   1  22
HETATM   22  C   UNL     1      42.825 -10.779   8.925  1.00  0.00     0.038 A 
HETATM   23  C   UNL     1      42.608 -10.298  10.223  1.00  0.00     0.059 A 
HETATM   24  C   UNL     1      43.354 -10.779  11.306  1.00  0.00     0.036 A 
HETATM   25  C   UNL     1      44.362 -11.722  11.070  1.00  0.00     0.029 A 
HETATM   26  C   UNL     1      44.618 -12.174   9.777  1.00  0.00     0.004 A 
HETATM   27  C   UNL     1      43.855 -11.700   8.709  1.00  0.00     0.029 A 
BRANCH  24  28
HETATM   28  N   UNL     1      43.162 -10.370  12.642  1.00  0.00    -0.327 N 
HETATM   29  C   UNL     1      42.106 -10.687  13.478  1.00  0.00     0.218 C 
HETATM   30  C   UNL     1      42.248 -10.085  14.857  1.00  0.00     0.117 C 
HETATM   31  O   UNL     1      41.144 -11.397  13.204  1.00  0.00    -0.274 OA
HETATM   32  H   UNL     1      43.909  -9.813  13.043  1.00  0.00     0.169 HD
ENDBRANCH  24  28
ENDBRANCH   1  22
TORSDOF 7
ENDMDL
MODEL 8
REMARK VINA RESULT:      -8.7      5.356      9.764
REMARK  7 active torsions:
REMARK  status: ('A' for Active; 'I' for Inactive)
REMARK       I    between atoms: C_2  and  N_3 
REMARK    1  A    between atoms: N_3  and  C_4 
REMARK    2  A    between atoms: C_6  and  N_7 
REMARK       I    between atoms: N_7  and  C_8 
REMARK       I    between atoms: C_8  and  N_9 
REMARK    3  A    between atoms: N_9  and  C_10 
REMARK    4  A    between atoms: C_10  and  C_11 
REMARK    5  A    between atoms: C_11  and  C_12 
REMARK    6  A    between atoms: N_14  and  C_16 
REMARK    7  A    between atoms: C_16  and  C_17 
ROOT
HETATM    1  N   UNL     1      44.745 -16.957   6.716  1.00  0.00    -0.309 N 
HETATM    2  C   UNL     1      43.937 -15.862   6.667  1.00  0.00     0.320 C 
HETATM    3  N   UNL     1      42.729 -15.997   6.059  1.00  0.00    -0.343 N 
HETATM    4  O   UNL     1      44.318 -14.796   7.150  1.00  0.00    -0.247 OA
HETATM    5  H   UNL     1      45.697 -16.704   6.952  1.00  0.00     0.170 HD
HETATM    6  H   UNL     1      42.668 -16.770   5.407  1.00  0.00     0.164 HD
ENDROOT
BRANCH   3   7
HETATM    7  C   UNL     1      41.857 -14.879   5.771  1.00  0.00     0.125 C 
BRANCH   7   8
HETATM    8  C   UNL     1      40.767 -15.186   4.739  1.00  0.00     0.026 C 
BRANCH   8   9
HETATM    9  C   UNL     1      41.181 -15.624   3.328  1.00  0.00     0.014 C 
HETATM   10  C   UNL     1      40.461 -14.939   2.173  1.00  0.00     0.240 C 
HETATM   11  N   UNL     1      40.623 -15.888   1.000  1.00  0.00    -0.067 N 
HETATM   12  H   UNL     1      39.663 -16.111   0.698  1.00  0.00     0.280 HD
HETATM   13  C   UNL     1      41.237 -17.168   1.522  1.00  0.00     0.235 C 
HETATM   14  C   UNL     1      41.053 -17.108   3.023  1.00  0.00     0.034 C 
BRANCH  11  15
HETATM   15  C   UNL     1      41.357 -15.330  -0.184  1.00  0.00     0.273 C 
BRANCH  15  16
HETATM   16  C   UNL     1      40.480 -15.037  -1.370  1.00  0.00    -0.033 A 
HETATM   17  C   UNL     1      40.716 -15.659  -2.607  1.00  0.00     0.009 A 
HETATM   18  C   UNL     1      39.886 -15.403  -3.699  1.00  0.00     0.001 A 
HETATM   19  C   UNL     1      38.812 -14.528  -3.569  1.00  0.00     0.000 A 
HETATM   20  C   UNL     1      38.566 -13.903  -2.348  1.00  0.00     0.001 A 
HETATM   21  C   UNL     1      39.397 -14.152  -1.253  1.00  0.00     0.009 A 
ENDBRANCH  15  16
ENDBRANCH  11  15
ENDBRANCH   8   9
ENDBRANCH   7   8
ENDBRANCH   3   7
BRANCH   1  22
HETATM   22  C   UNL     1      44.507 -18.331   6.503  1.00  0.00     0.038 A 
HETATM   23  C   UNL     1      44.717 -18.990   5.284  1.00  0.00     0.059 A 
HETATM   24  C   UNL     1      44.476 -20.364   5.154  1.00  0.00     0.036 A 
HETATM   25  C   UNL     1      43.975 -21.072   6.253  1.00  0.00     0.029 A 
HETATM   26  C   UNL     1      43.720 -20.419   7.457  1.00  0.00     0.004 A 
HETATM   27  C   UNL     1      43.981 -19.054   7.579  1.00  0.00     0.029 A 
BRANCH  24  28
HETATM   28  N   UNL     1      44.703 -21.097   3.970  1.00  0.00    -0.327 N 
HETATM   29  C   UNL     1      44.149 -20.878   2.722  1.00  0.00     0.218 C 
HETATM   30  C   UNL     1      44.643 -21.854   1.680  1.00  0.00     0.117 C 
HETATM   31  O   UNL     1      43.358 -19.990   2.420  1.00  0.00    -0.274 OA
HETATM   32  H   UNL     1      45.386 -21.845   4.040  1.00  0.00     0.169 HD
ENDBRANCH  24  28
ENDBRANCH   1  22
TORSDOF 7
ENDMDL
MODEL 9
REMARK VINA RESULT:      -8.6      5.698      9.118
REMARK  7 active torsions:
REMARK  status: ('A' for Active; 'I' for Inactive)
REMARK       I    between atoms: C_2  and  N_3 
REMARK    1  A    between atoms: N_3  and  C_4 
REMARK    2  A    between atoms: C_6  and  N_7 
REMARK       I    between atoms: N_7  and  C_8 
REMARK       I    between atoms: C_8  and  N_9 
REMARK    3  A    between atoms: N_9  and  C_10 
REMARK    4  A    between atoms: C_10  and  C_11 
REMARK    5  A    between atoms: C_11  and  C_12 
REMARK    6  A    between atoms: N_14  and  C_16 
REMARK    7  A    between atoms: C_16  and  C_17 
ROOT
HETATM    1  N   UNL     1      42.720 -13.165   2.099  1.00  0.00    -0.309 N 
HETATM    2  C   UNL     1      42.726 -13.599   3.389  1.00  0.00     0.320 C 
HETATM    3  N   UNL     1      41.525 -13.768   4.003  1.00  0.00    -0.343 N 
HETATM    4  O   UNL     1      43.796 -13.808   3.961  1.00  0.00    -0.247 OA
HETATM    5  H   UNL     1      43.634 -12.832   1.815  1.00  0.00     0.170 HD
HETATM    6  H   UNL     1      40.762 -13.246   3.590  1.00  0.00     0.164 HD
ENDROOT
BRANCH   3   7
HETATM    7  C   UNL     1      41.390 -14.041   5.418  1.00  0.00     0.125 C 
BRANCH   7   8
HETATM    8  C   UNL     1      41.123 -15.513   5.748  1.00  0.00     0.026 C 
BRANCH   8   9
HETATM    9  C   UNL     1      42.315 -16.454   5.968  1.00  0.00     0.014 C 
HETATM   10  C   UNL     1      42.413 -17.647   5.026  1.00  0.00     0.240 C 
HETATM   11  N   UNL     1      43.277 -18.652   5.764  1.00  0.00    -0.067 N 
HETATM   12  H   UNL     1      42.699 -19.502   5.838  1.00  0.00     0.280 HD
HETATM   13  C   UNL     1      43.493 -18.134   7.168  1.00  0.00     0.235 C 
HETATM   14  C   UNL     1      42.441 -17.060   7.356  1.00  0.00     0.034 C 
BRANCH  11  15
HETATM   15  C   UNL     1      44.558 -19.030   5.079  1.00  0.00     0.273 C 
BRANCH  15  16
HETATM   16  C   UNL     1      44.390 -20.030   3.968  1.00  0.00    -0.033 A 
HETATM   17  C   UNL     1      44.765 -21.371   4.150  1.00  0.00     0.009 A 
HETATM   18  C   UNL     1      44.586 -22.303   3.127  1.00  0.00     0.001 A 
HETATM   19  C   UNL     1      44.031 -21.907   1.913  1.00  0.00     0.000 A 
HETATM   20  C   UNL     1      43.656 -20.580   1.719  1.00  0.00     0.001 A 
HETATM   21  C   UNL     1      43.837 -19.643   2.738  1.00  0.00     0.009 A 
ENDBRANCH  15  16
ENDBRANCH  11  15
ENDBRANCH   8   9
ENDBRANCH   7   8
ENDBRANCH   3   7
BRANCH   1  22
HETATM   22  C   UNL     1      41.707 -13.091   1.119  1.00  0.00     0.038 A 
HETATM   23  C   UNL     1      41.395 -14.124   0.226  1.00  0.00     0.059 A 
HETATM   24  C   UNL     1      40.359 -13.984  -0.707  1.00  0.00     0.036 A 
HETATM   25  C   UNL     1      39.662 -12.771  -0.771  1.00  0.00     0.029 A 
HETATM   26  C   UNL     1      39.994 -11.720   0.082  1.00  0.00     0.004 A 
HETATM   27  C   UNL     1      41.015 -11.880   1.019  1.00  0.00     0.029 A 
BRANCH  24  28
HETATM   28  N   UNL     1      39.965 -14.996  -1.609  1.00  0.00    -0.327 N 
HETATM   29  C   UNL     1      40.436 -15.214  -2.891  1.00  0.00     0.218 C 
HETATM   30  C   UNL     1      39.797 -16.411  -3.555  1.00  0.00     0.117 C 
HETATM   31  O   UNL     1      41.296 -14.562  -3.474  1.00  0.00    -0.274 OA
HETATM   32  H   UNL     1      39.289 -15.662  -1.252  1.00  0.00     0.169 HD
ENDBRANCH  24  28
ENDBRANCH   1  22
TORSDOF 7
ENDMDL
MODEL 10
REMARK VINA RESULT:      -8.5      5.459      8.590
REMARK  7 active torsions:
REMARK  status: ('A' for Active; 'I' for Inactive)
REMARK       I    between atoms: C_2  and  N_3 
REMARK    1  A    between atoms: N_3  and  C_4 
REMARK    2  A    between atoms: C_6  and  N_7 
REMARK       I    between atoms: N_7  and  C_8 
REMARK       I    between atoms: C_8  and  N_9 
REMARK    3  A    between atoms: N_9  and  C_10 
REMARK    4  A    between atoms: C_10  and  C_11 
REMARK    5  A    between atoms: C_11  and  C_12 
REMARK    6  A    between atoms: N_14  and  C_16 
REMARK    7  A    between atoms: C_16  and  C_17 
ROOT
HETATM    1  N   UNL     1      44.346 -20.185   6.325  1.00  0.00    -0.309 N 
HETATM    2  C   UNL     1      44.620 -20.766   5.125  1.00  0.00     0.320 C 
HETATM    3  N   UNL     1      44.359 -20.046   4.002  1.00  0.00    -0.343 N 
HETATM    4  O   UNL     1      45.073 -21.911   5.086  1.00  0.00    -0.247 OA
HETATM    5  H   UNL     1      44.332 -20.869   7.073  1.00  0.00     0.170 HD
HETATM    6  H   UNL     1      43.682 -19.303   4.125  1.00  0.00     0.164 HD
ENDROOT
BRANCH   3   7
HETATM    7  C   UNL     1      44.423 -20.606   2.669  1.00  0.00     0.125 C 
BRANCH   7   8
HETATM    8  C   UNL     1      43.481 -19.936   1.664  1.00  0.00     0.026 C 
BRANCH   8   9
HETATM    9  C   UNL     1      43.054 -18.481   1.900  1.00  0.00     0.014 C 
HETATM   10  C   UNL     1      41.714 -18.069   1.306  1.00  0.00     0.240 C 
HETATM   11  N   UNL     1      41.791 -16.558   1.190  1.00  0.00    -0.067 N 
HETATM   12  H   UNL     1      41.634 -16.355   0.192  1.00  0.00     0.280 HD
HETATM   13  C   UNL     1      43.208 -16.141   1.514  1.00  0.00     0.235 C 
HETATM   14  C   UNL     1      44.023 -17.413   1.419  1.00  0.00     0.034 C 
BRANCH  11  15
HETATM   15  C   UNL     1      40.764 -15.797   1.978  1.00  0.00     0.273 C 
BRANCH  15  16
HETATM   16  C   UNL     1      39.809 -14.998   1.134  1.00  0.00    -0.033 A 
HETATM   17  C   UNL     1      40.207 -14.491  -0.113  1.00  0.00     0.009 A 
HETATM   18  C   UNL     1      39.311 -13.772  -0.905  1.00  0.00     0.001 A 
HETATM   19  C   UNL     1      38.010 -13.552  -0.462  1.00  0.00     0.000 A 
HETATM   20  C   UNL     1      37.602 -14.048   0.774  1.00  0.00     0.001 A 
HETATM   21  C   UNL     1      38.496 -14.765   1.572  1.00  0.00     0.009 A 
ENDBRANCH  15  16
ENDBRANCH  11  15
ENDBRANCH   8   9
ENDBRANCH   7   8
ENDBRANCH   3   7
BRANCH   1  22
HETATM   22  C   UNL     1      44.084 -18.852   6.705  1.00  0.00     0.038 A 
HETATM   23  C   UNL     1      44.088 -17.763   5.823  1.00  0.00     0.059 A 
HETATM   24  C   UNL     1      43.797 -16.469   6.272  1.00  0.00     0.036 A 
HETATM   25  C   UNL     1      43.546 -16.262   7.634  1.00  0.00     0.029 A 
HETATM   26  C   UNL     1      43.584 -17.330   8.528  1.00  0.00     0.004 A 
HETATM   27  C   UNL     1      43.856 -18.618   8.065  1.00  0.00     0.029 A 
BRANCH  24  28
HETATM   28  N   UNL     1      43.744 -15.335   5.433  1.00  0.00    -0.327 N 
HETATM   29  C   UNL     1      42.619 -14.648   5.013  1.00  0.00     0.218 C 
HETATM   30  C   UNL     1      42.949 -13.463   4.134  1.00  0.00     0.117 C 
HETATM   31  O   UNL     1      41.455 -14.902   5.307  1.00  0.00    -0.274 OA
HETATM   32  H   UNL     1      44.641 -14.960   5.143  1.00  0.00     0.169 HD
ENDBRANCH  24  28
ENDBRANCH   1  22
TORSDOF 7
ENDMDL
