MODEL 1
REMARK VINA RESULT:     -10.3      0.000      0.000
REMARK  5 active torsions:
REMARK  status: ('A' for Active; 'I' for Inactive)
REMARK    1  A    between atoms: C_2  and  C_3 
REMARK       I    between atoms: C_3  and  N_4 
REMARK    2  A    between atoms: N_4  and  N_5 
REMARK    3  A    between atoms: N_5  and  C_6 
REMARK    4  A    between atoms: N_7  and  C_8 
REMARK    5  A    between atoms: C_8  and  C_9 
ROOT
HETATM    1  C   UNL     1      43.727 -15.515   6.286  1.00  0.00     0.200 A 
HETATM    2  N   UNL     1      43.486 -14.907   5.070  1.00  0.00    -0.283 N 
HETATM    3  C   UNL     1      43.472 -15.641   3.897  1.00  0.00     0.259 A 
HETATM    4  O   UNL     1      43.274 -15.117   2.802  1.00  0.00    -0.267 OA
HETATM    5  C   UNL     1      43.693 -17.109   4.006  1.00  0.00     0.049 A 
HETATM    6  C   UNL     1      43.847 -17.579   5.259  1.00  0.00     0.083 A 
HETATM    7  C   UNL     1      43.991 -19.044   5.470  1.00  0.00    -0.000 A 
HETATM    8  C   UNL     1      44.363 -19.874   4.401  1.00  0.00    -0.044 A 
HETATM    9  C   UNL     1      44.537 -21.250   4.599  1.00  0.00     0.008 A 
HETATM   10  C   UNL     1      44.314 -21.812   5.855  1.00  0.00     0.001 A 
HETATM   11  C   UNL     1      43.928 -21.003   6.918  1.00  0.00     0.001 A 
HETATM   12  C   UNL     1      43.771 -19.629   6.728  1.00  0.00     0.014 A 
HETATM   13  C   UNL     1      44.632 -19.247   3.061  1.00  0.00     0.054 C 
HETATM   14  C   UNL     1      43.705 -18.033   2.775  1.00  0.00    -0.002 C 
HETATM   15  C   UNL     1      42.271 -18.511   2.442  1.00  0.00     0.015 C 
HETATM   16  C   UNL     1      41.727 -17.474   1.474  1.00  0.00     0.001 C 
HETATM   17  C   UNL     1      42.921 -17.107   0.606  1.00  0.00     0.001 C 
HETATM   18  C   UNL     1      44.175 -17.406   1.434  1.00  0.00     0.015 C 
HETATM   19  N   UNL     1      43.884 -16.805   6.383  1.00  0.00    -0.218 NA
ENDROOT
BRANCH   1  20
HETATM   20  N   UNL     1      43.818 -14.760   7.447  1.00  0.00    -0.188 NA
HETATM   21  H   UNL     1      43.011 -14.171   7.657  1.00  0.00     0.150 HD
BRANCH  20  22
HETATM   22  N   UNL     1      45.018 -13.992   7.520  1.00  0.00    -0.189 NA
HETATM   23  C   UNL     1      45.078 -13.128   8.598  1.00  0.00     0.210 C 
HETATM   24  O   UNL     1      44.349 -13.244   9.583  1.00  0.00    -0.279 OA
HETATM   25  H   UNL     1      45.283 -13.629   6.602  1.00  0.00     0.150 HD
BRANCH  23  26
HETATM   26  C   UNL     1      46.099 -12.023   8.445  1.00  0.00     0.093 C 
HETATM   27  C   UNL     1      45.910 -10.972   9.524  1.00  0.00     0.014 C 
ENDBRANCH  23  26
ENDBRANCH  20  22
ENDBRANCH   1  20
BRANCH   2  28
HETATM   28  C   UNL     1      43.155 -13.483   4.964  1.00  0.00     0.173 C 
BRANCH  28  29
HETATM   29  C   UNL     1      41.743 -13.185   5.427  1.00  0.00    -0.040 A 
HETATM   30  C   UNL     1      40.674 -14.017   5.059  1.00  0.00     0.009 A 
HETATM   31  C   UNL     1      39.374 -13.730   5.481  1.00  0.00     0.001 A 
HETATM   32  C   UNL     1      39.126 -12.612   6.275  1.00  0.00     0.000 A 
HETATM   33  C   UNL     1      40.178 -11.780   6.650  1.00  0.00     0.001 A 
HETATM   34  C   UNL     1      41.479 -12.066   6.232  1.00  0.00     0.009 A 
ENDBRANCH  28  29
ENDBRANCH   2  28
TORSDOF 5
ENDMDL
MODEL 2
REMARK VINA RESULT:      -9.5      4.563      7.794
REMARK  5 active torsions:
REMARK  status: ('A' for Active; 'I' for Inactive)
REMARK    1  A    between atoms: C_2  and  C_3 
REMARK       I    between atoms: C_3  and  N_4 
REMARK    2  A    between atoms: N_4  and  N_5 
REMARK    3  A    between atoms: N_5  and  C_6 
REMARK    4  A    between atoms: N_7  and  C_8 
REMARK    5  A    between atoms: C_8  and  C_9 
ROOT
HETATM    1  C   UNL     1      41.397 -15.319  -0.356  1.00  0.00     0.200 A 
HETATM    2  N   UNL     1      40.757 -14.252   0.242  1.00  0.00    -0.283 N 
HETATM    3  C   UNL     1      40.648 -14.168   1.620  1.00  0.00     0.259 A 
HETATM    4  O   UNL     1      40.069 -13.235   2.173  1.00  0.00    -0.267 OA
HETATM    5  C   UNL     1      41.276 -15.253   2.423  1.00  0.00     0.049 A 
HETATM    6  C   UNL     1      41.927 -16.195   1.713  1.00  0.00     0.083 A 
HETATM    7  C   UNL     1      42.655 -17.272   2.436  1.00  0.00    -0.000 A 
HETATM    8  C   UNL     1      42.348 -17.547   3.777  1.00  0.00    -0.044 A 
HETATM    9  C   UNL     1      43.004 -18.585   4.455  1.00  0.00     0.008 A 
HETATM   10  C   UNL     1      43.985 -19.335   3.810  1.00  0.00     0.001 A 
HETATM   11  C   UNL     1      44.310 -19.060   2.486  1.00  0.00     0.001 A 
HETATM   12  C   UNL     1      43.647 -18.039   1.802  1.00  0.00     0.014 A 
HETATM   13  C   UNL     1      41.264 -16.752   4.448  1.00  0.00     0.054 C 
HETATM   14  C   UNL     1      41.221 -15.276   3.961  1.00  0.00    -0.002 C 
HETATM   15  C   UNL     1      42.401 -14.472   4.558  1.00  0.00     0.015 C 
HETATM   16  C   UNL     1      41.874 -13.055   4.708  1.00  0.00     0.001 C 
HETATM   17  C   UNL     1      40.426 -13.236   5.136  1.00  0.00     0.001 C 
HETATM   18  C   UNL     1      39.985 -14.613   4.626  1.00  0.00     0.015 C 
HETATM   19  N   UNL     1      41.977 -16.248   0.350  1.00  0.00    -0.218 NA
ENDROOT
BRANCH   1  20
HETATM   20  N   UNL     1      41.432 -15.435  -1.739  1.00  0.00    -0.188 NA
HETATM   21  H   UNL     1      41.597 -14.569  -2.252  1.00  0.00     0.150 HD
BRANCH  20  22
HETATM   22  N   UNL     1      40.295 -16.111  -2.270  1.00  0.00    -0.189 NA
HETATM   23  C   UNL     1      39.829 -15.594  -3.466  1.00  0.00     0.210 C 
HETATM   24  O   UNL     1      40.510 -14.859  -4.180  1.00  0.00    -0.279 OA
HETATM   25  H   UNL     1      39.609 -16.316  -1.539  1.00  0.00     0.150 HD
BRANCH  23  26
HETATM   26  C   UNL     1      38.409 -15.993  -3.797  1.00  0.00     0.093 C 
HETATM   27  C   UNL     1      37.445 -14.878  -3.432  1.00  0.00     0.014 C 
ENDBRANCH  23  26
ENDBRANCH  20  22
ENDBRANCH   1  20
BRANCH   2  28
HETATM   28  C   UNL     1      40.235 -13.123  -0.532  1.00  0.00     0.173 C 
BRANCH  28  29
HETATM   29  C   UNL     1      41.328 -12.161  -0.955  1.00  0.00    -0.040 A 
HETATM   30  C   UNL     1      42.024 -11.400  -0.004  1.00  0.00     0.009 A 
HETATM   31  C   UNL     1      43.023 -10.509  -0.401  1.00  0.00     0.001 A 
HETATM   32  C   UNL     1      43.339 -10.368  -1.751  1.00  0.00     0.000 A 
HETATM   33  C   UNL     1      42.658 -11.120  -2.705  1.00  0.00     0.001 A 
HETATM   34  C   UNL     1      41.661 -12.014  -2.310  1.00  0.00     0.009 A 
ENDBRANCH  28  29
ENDBRANCH   2  28
TORSDOF 5
ENDMDL
MODEL 3
REMARK VINA RESULT:      -9.3      4.114      7.162
REMARK  5 active torsions:
REMARK  status: ('A' for Active; 'I' for Inactive)
REMARK    1  A    between atoms: C_2  and  C_3 
REMARK       I    between atoms: C_3  and  N_4 
REMARK    2  A    between atoms: N_4  and  N_5 
REMARK    3  A    between atoms: N_5  and  C_6 
REMARK    4  A    between atoms: N_7  and  C_8 
REMARK    5  A    between atoms: C_8  and  C_9 
ROOT
HETATM    1  C   UNL     1      41.813 -15.180   0.107  1.00  0.00     0.200 A 
HETATM    2  N   UNL     1      41.363 -14.112   0.857  1.00  0.00    -0.283 N 
HETATM    3  C   UNL     1      41.364 -14.164   2.241  1.00  0.00     0.259 A 
HETATM    4  O   UNL     1      40.954 -13.230   2.928  1.00  0.00    -0.267 OA
HETATM    5  C   UNL     1      41.896 -15.399   2.879  1.00  0.00     0.049 A 
HETATM    6  C   UNL     1      42.364 -16.333   2.029  1.00  0.00     0.083 A 
HETATM    7  C   UNL     1      42.990 -17.565   2.580  1.00  0.00    -0.000 A 
HETATM    8  C   UNL     1      42.744 -17.942   3.909  1.00  0.00    -0.044 A 
HETATM    9  C   UNL     1      43.300 -19.121   4.426  1.00  0.00     0.008 A 
HETATM   10  C   UNL     1      44.126 -19.914   3.631  1.00  0.00     0.001 A 
HETATM   11  C   UNL     1      44.391 -19.541   2.318  1.00  0.00     0.001 A 
HETATM   12  C   UNL     1      43.824 -18.378   1.794  1.00  0.00     0.014 A 
HETATM   13  C   UNL     1      41.825 -17.094   4.742  1.00  0.00     0.054 C 
HETATM   14  C   UNL     1      41.945 -15.581   4.407  1.00  0.00    -0.002 C 
HETATM   15  C   UNL     1      43.261 -15.000   4.979  1.00  0.00     0.015 C 
HETATM   16  C   UNL     1      42.939 -13.552   5.310  1.00  0.00     0.001 C 
HETATM   17  C   UNL     1      41.513 -13.595   5.837  1.00  0.00     0.001 C 
HETATM   18  C   UNL     1      40.858 -14.843   5.234  1.00  0.00     0.015 C 
HETATM   19  N   UNL     1      42.311 -16.245   0.667  1.00  0.00    -0.218 NA
ENDROOT
BRANCH   1  20
HETATM   20  N   UNL     1      41.735 -15.151  -1.279  1.00  0.00    -0.188 NA
HETATM   21  H   UNL     1      41.768 -14.224  -1.705  1.00  0.00     0.150 HD
BRANCH  20  22
HETATM   22  N   UNL     1      40.626 -15.886  -1.791  1.00  0.00    -0.189 NA
HETATM   23  C   UNL     1      40.318 -15.610  -3.111  1.00  0.00     0.210 C 
HETATM   24  O   UNL     1      41.109 -15.059  -3.876  1.00  0.00    -0.279 OA
HETATM   25  H   UNL     1      39.857 -15.916  -1.118  1.00  0.00     0.150 HD
BRANCH  23  26
HETATM   26  C   UNL     1      38.921 -16.025  -3.517  1.00  0.00     0.093 C 
HETATM   27  C   UNL     1      37.960 -14.859  -3.376  1.00  0.00     0.014 C 
ENDBRANCH  23  26
ENDBRANCH  20  22
ENDBRANCH   1  20
BRANCH   2  28
HETATM   28  C   UNL     1      40.944 -12.850   0.242  1.00  0.00     0.173 C 
BRANCH  28  29
HETATM   29  C   UNL     1      39.449 -12.626   0.348  1.00  0.00    -0.040 A 
HETATM   30  C   UNL     1      38.930 -11.353   0.626  1.00  0.00     0.009 A 
HETATM   31  C   UNL     1      37.552 -11.155   0.731  1.00  0.00     0.001 A 
HETATM   32  C   UNL     1      36.676 -12.226   0.559  1.00  0.00     0.000 A 
HETATM   33  C   UNL     1      37.178 -13.494   0.277  1.00  0.00     0.001 A 
HETATM   34  C   UNL     1      38.555 -13.693   0.169  1.00  0.00     0.009 A 
ENDBRANCH  28  29
ENDBRANCH   2  28
TORSDOF 5
ENDMDL
MODEL 4
REMARK VINA RESULT:      -9.2      3.005      5.805
REMARK  5 active torsions:
REMARK  status: ('A' for Active; 'I' for Inactive)
REMARK    1  A    between atoms: C_2  and  C_3 
REMARK       I    between atoms: C_3  and  N_4 
REMARK    2  A    between atoms: N_4  and  N_5 
REMARK    3  A    between atoms: N_5  and  C_6 
REMARK    4  A    between atoms: N_7  and  C_8 
REMARK    5  A    between atoms: C_8  and  C_9 
ROOT
HETATM    1  C   UNL     1      40.571 -16.357   2.776  1.00  0.00     0.200 A 
HETATM    2  N   UNL     1      40.562 -15.636   3.954  1.00  0.00    -0.283 N 
HETATM    3  C   UNL     1      41.362 -16.007   5.021  1.00  0.00     0.259 A 
HETATM    4  O   UNL     1      41.359 -15.388   6.084  1.00  0.00    -0.267 OA
HETATM    5  C   UNL     1      42.250 -17.187   4.833  1.00  0.00     0.049 A 
HETATM    6  C   UNL     1      42.208 -17.753   3.611  1.00  0.00     0.083 A 
HETATM    7  C   UNL     1      43.122 -18.886   3.307  1.00  0.00    -0.000 A 
HETATM    8  C   UNL     1      43.713 -19.611   4.354  1.00  0.00    -0.044 A 
HETATM    9  C   UNL     1      44.547 -20.703   4.077  1.00  0.00     0.008 A 
HETATM   10  C   UNL     1      44.817 -21.063   2.758  1.00  0.00     0.001 A 
HETATM   11  C   UNL     1      44.251 -20.342   1.712  1.00  0.00     0.001 A 
HETATM   12  C   UNL     1      43.406 -19.264   1.985  1.00  0.00     0.014 A 
HETATM   13  C   UNL     1      43.384 -19.231   5.770  1.00  0.00     0.054 C 
HETATM   14  C   UNL     1      43.183 -17.700   5.945  1.00  0.00    -0.002 C 
HETATM   15  C   UNL     1      44.543 -16.963   5.894  1.00  0.00     0.015 C 
HETATM   16  C   UNL     1      44.370 -15.757   6.801  1.00  0.00     0.001 C 
HETATM   17  C   UNL     1      43.515 -16.270   7.949  1.00  0.00     0.001 C 
HETATM   18  C   UNL     1      42.722 -17.464   7.408  1.00  0.00     0.015 C 
HETATM   19  N   UNL     1      41.375 -17.367   2.601  1.00  0.00    -0.218 NA
ENDROOT
BRANCH   1  20
HETATM   20  N   UNL     1      39.707 -16.026   1.740  1.00  0.00    -0.188 NA
HETATM   21  H   UNL     1      39.061 -16.761   1.451  1.00  0.00     0.150 HD
BRANCH  20  22
HETATM   22  N   UNL     1      40.380 -15.489   0.603  1.00  0.00    -0.189 NA
HETATM   23  C   UNL     1      39.611 -14.633  -0.164  1.00  0.00     0.210 C 
HETATM   24  O   UNL     1      38.581 -14.109   0.258  1.00  0.00    -0.279 OA
HETATM   25  H   UNL     1      40.922 -16.208   0.118  1.00  0.00     0.150 HD
BRANCH  23  26
HETATM   26  C   UNL     1      40.139 -14.421  -1.565  1.00  0.00     0.093 C 
HETATM   27  C   UNL     1      41.452 -13.661  -1.529  1.00  0.00     0.014 C 
ENDBRANCH  23  26
ENDBRANCH  20  22
ENDBRANCH   1  20
BRANCH   2  28
HETATM   28  C   UNL     1      39.778 -14.408   4.109  1.00  0.00     0.173 C 
BRANCH  28  29
HETATM   29  C   UNL     1      40.275 -13.290   3.214  1.00  0.00    -0.040 A 
HETATM   30  C   UNL     1      41.607 -13.258   2.776  1.00  0.00     0.009 A 
HETATM   31  C   UNL     1      42.061 -12.220   1.959  1.00  0.00     0.001 A 
HETATM   32  C   UNL     1      41.189 -11.204   1.570  1.00  0.00     0.000 A 
HETATM   33  C   UNL     1      39.863 -11.226   1.994  1.00  0.00     0.001 A 
HETATM   34  C   UNL     1      39.407 -12.265   2.809  1.00  0.00     0.009 A 
ENDBRANCH  28  29
ENDBRANCH   2  28
TORSDOF 5
ENDMDL
MODEL 5
REMARK VINA RESULT:      -8.8      3.340      7.686
REMARK  5 active torsions:
REMARK  status: ('A' for Active; 'I' for Inactive)
REMARK    1  A    between atoms: C_2  and  C_3 
REMARK       I    between atoms: C_3  and  N_4 
REMARK    2  A    between atoms: N_4  and  N_5 
REMARK    3  A    between atoms: N_5  and  C_6 
REMARK    4  A    between atoms: N_7  and  C_8 
REMARK    5  A    between atoms: C_8  and  C_9 
ROOT
HETATM    1  C   UNL     1      41.618 -17.493   1.956  1.00  0.00     0.200 A 
HETATM    2  N   UNL     1      41.429 -16.798   3.133  1.00  0.00    -0.283 N 
HETATM    3  C   UNL     1      41.293 -15.420   3.132  1.00  0.00     0.259 A 
HETATM    4  O   UNL     1      41.139 -14.779   4.171  1.00  0.00    -0.267 OA
HETATM    5  C   UNL     1      41.328 -14.730   1.813  1.00  0.00     0.049 A 
HETATM    6  C   UNL     1      41.450 -15.537   0.742  1.00  0.00     0.083 A 
HETATM    7  C   UNL     1      41.411 -14.942  -0.621  1.00  0.00    -0.000 A 
HETATM    8  C   UNL     1      41.649 -13.570  -0.794  1.00  0.00    -0.044 A 
HETATM    9  C   UNL     1      41.650 -13.008  -2.078  1.00  0.00     0.008 A 
HETATM   10  C   UNL     1      41.387 -13.802  -3.192  1.00  0.00     0.001 A 
HETATM   11  C   UNL     1      41.133 -15.160  -3.032  1.00  0.00     0.001 A 
HETATM   12  C   UNL     1      41.148 -15.727  -1.756  1.00  0.00     0.014 A 
HETATM   13  C   UNL     1      41.964 -12.734   0.415  1.00  0.00     0.054 C 
HETATM   14  C   UNL     1      41.193 -13.202   1.680  1.00  0.00    -0.002 C 
HETATM   15  C   UNL     1      39.702 -12.796   1.589  1.00  0.00     0.015 C 
HETATM   16  C   UNL     1      39.272 -12.560   3.027  1.00  0.00     0.001 C 
HETATM   17  C   UNL     1      40.482 -11.909   3.679  1.00  0.00     0.001 C 
HETATM   18  C   UNL     1      41.708 -12.348   2.870  1.00  0.00     0.015 C 
HETATM   19  N   UNL     1      41.612 -16.892   0.801  1.00  0.00    -0.218 NA
ENDROOT
BRANCH   1  20
HETATM   20  N   UNL     1      41.833 -18.865   1.974  1.00  0.00    -0.188 NA
HETATM   21  H   UNL     1      41.309 -19.386   2.678  1.00  0.00     0.150 HD
BRANCH  20  22
HETATM   22  N   UNL     1      43.214 -19.213   2.033  1.00  0.00    -0.189 NA
HETATM   23  C   UNL     1      43.462 -20.574   2.020  1.00  0.00     0.210 C 
HETATM   24  O   UNL     1      42.625 -21.396   1.650  1.00  0.00    -0.279 OA
HETATM   25  H   UNL     1      43.711 -18.644   2.722  1.00  0.00     0.150 HD
BRANCH  23  26
HETATM   26  C   UNL     1      44.837 -20.954   2.522  1.00  0.00     0.093 C 
HETATM   27  C   UNL     1      44.744 -22.109   3.502  1.00  0.00     0.014 C 
ENDBRANCH  23  26
ENDBRANCH  20  22
ENDBRANCH   1  20
BRANCH   2  28
HETATM   28  C   UNL     1      41.279 -17.476   4.423  1.00  0.00     0.173 C 
BRANCH  28  29
HETATM   29  C   UNL     1      42.601 -17.631   5.149  1.00  0.00    -0.040 A 
HETATM   30  C   UNL     1      43.248 -18.874   5.208  1.00  0.00     0.009 A 
HETATM   31  C   UNL     1      44.461 -19.011   5.886  1.00  0.00     0.001 A 
HETATM   32  C   UNL     1      45.041 -17.910   6.513  1.00  0.00     0.000 A 
HETATM   33  C   UNL     1      44.411 -16.669   6.459  1.00  0.00     0.001 A 
HETATM   34  C   UNL     1      43.200 -16.529   5.779  1.00  0.00     0.009 A 
ENDBRANCH  28  29
ENDBRANCH   2  28
TORSDOF 5
ENDMDL
MODEL 6
REMARK VINA RESULT:      -8.5      1.577      5.784
REMARK  5 active torsions:
REMARK  status: ('A' for Active; 'I' for Inactive)
REMARK    1  A    between atoms: C_2  and  C_3 
REMARK       I    between atoms: C_3  and  N_4 
REMARK    2  A    between atoms: N_4  and  N_5 
REMARK    3  A    between atoms: N_5  and  C_6 
REMARK    4  A    between atoms: N_7  and  C_8 
REMARK    5  A    between atoms: C_8  and  C_9 
ROOT
HETATM    1  C   UNL     1      43.706 -14.969   6.435  1.00  0.00     0.200 A 
HETATM    2  N   UNL     1      43.983 -16.135   5.751  1.00  0.00    -0.283 N 
HETATM    3  C   UNL     1      43.273 -16.478   4.613  1.00  0.00     0.259 A 
HETATM    4  O   UNL     1      43.493 -17.520   3.997  1.00  0.00    -0.267 OA
HETATM    5  C   UNL     1      42.229 -15.526   4.145  1.00  0.00     0.049 A 
HETATM    6  C   UNL     1      42.111 -14.396   4.868  1.00  0.00     0.083 A 
HETATM    7  C   UNL     1      41.150 -13.350   4.426  1.00  0.00    -0.000 A 
HETATM    8  C   UNL     1      40.114 -13.680   3.539  1.00  0.00    -0.044 A 
HETATM    9  C   UNL     1      39.182 -12.709   3.145  1.00  0.00     0.008 A 
HETATM   10  C   UNL     1      39.294 -11.401   3.611  1.00  0.00     0.001 A 
HETATM   11  C   UNL     1      40.326 -11.058   4.477  1.00  0.00     0.001 A 
HETATM   12  C   UNL     1      41.246 -12.026   4.885  1.00  0.00     0.014 A 
HETATM   13  C   UNL     1      39.989 -15.103   3.073  1.00  0.00     0.054 C 
HETATM   14  C   UNL     1      41.369 -15.796   2.897  1.00  0.00    -0.002 C 
HETATM   15  C   UNL     1      42.082 -15.274   1.625  1.00  0.00     0.015 C 
HETATM   16  C   UNL     1      42.907 -16.449   1.128  1.00  0.00     0.001 C 
HETATM   17  C   UNL     1      42.033 -17.663   1.398  1.00  0.00     0.001 C 
HETATM   18  C   UNL     1      41.092 -17.283   2.546  1.00  0.00     0.015 C 
HETATM   19  N   UNL     1      42.817 -14.120   6.004  1.00  0.00    -0.218 NA
ENDROOT
BRANCH   1  20
HETATM   20  N   UNL     1      44.368 -14.671   7.619  1.00  0.00    -0.188 NA
HETATM   21  H   UNL     1      44.311 -15.383   8.349  1.00  0.00     0.150 HD
BRANCH  20  22
HETATM   22  N   UNL     1      44.016 -13.395   8.150  1.00  0.00    -0.189 NA
HETATM   23  C   UNL     1      45.095 -12.583   8.449  1.00  0.00     0.210 C 
HETATM   24  O   UNL     1      46.221 -12.782   7.993  1.00  0.00    -0.279 OA
HETATM   25  H   UNL     1      43.271 -13.475   8.846  1.00  0.00     0.150 HD
BRANCH  23  26
HETATM   26  C   UNL     1      44.769 -11.452   9.398  1.00  0.00     0.093 C 
HETATM   27  C   UNL     1      45.707 -11.474  10.591  1.00  0.00     0.014 C 
ENDBRANCH  23  26
ENDBRANCH  20  22
ENDBRANCH   1  20
BRANCH   2  28
HETATM   28  C   UNL     1      45.084 -17.022   6.137  1.00  0.00     0.173 C 
BRANCH  28  29
HETATM   29  C   UNL     1      44.624 -18.450   6.355  1.00  0.00    -0.040 A 
HETATM   30  C   UNL     1      43.896 -18.804   7.500  1.00  0.00     0.009 A 
HETATM   31  C   UNL     1      43.483 -20.124   7.699  1.00  0.00     0.001 A 
HETATM   32  C   UNL     1      43.792 -21.103   6.756  1.00  0.00     0.000 A 
HETATM   33  C   UNL     1      44.510 -20.763   5.612  1.00  0.00     0.001 A 
HETATM   34  C   UNL     1      44.921 -19.444   5.411  1.00  0.00     0.009 A 
ENDBRANCH  28  29
ENDBRANCH   2  28
TORSDOF 5
ENDMDL
MODEL 7
REMARK VINA RESULT:      -8.4      4.724      8.096
REMARK  5 active torsions:
REMARK  status: ('A' for Active; 'I' for Inactive)
REMARK    1  A    between atoms: C_2  and  C_3 
REMARK       I    between atoms: C_3  and  N_4 
REMARK    2  A    between atoms: N_4  and  N_5 
REMARK    3  A    between atoms: N_5  and  C_6 
REMARK    4  A    between atoms: N_7  and  C_8 
REMARK    5  A    between atoms: C_8  and  C_9 
ROOT
HETATM    1  C   UNL     1      42.128 -13.123   1.918  1.00  0.00     0.200 A 
HETATM    2  N   UNL     1      41.296 -14.158   1.539  1.00  0.00    -0.283 N 
HETATM    3  C   UNL     1      40.709 -14.177   0.286  1.00  0.00     0.259 A 
HETATM    4  O   UNL     1      39.953 -15.081  -0.066  1.00  0.00    -0.267 OA
HETATM    5  C   UNL     1      41.036 -13.059  -0.641  1.00  0.00     0.049 A 
HETATM    6  C   UNL     1      41.914 -12.154  -0.166  1.00  0.00     0.083 A 
HETATM    7  C   UNL     1      42.363 -11.047  -1.053  1.00  0.00    -0.000 A 
HETATM    8  C   UNL     1      41.610 -10.708  -2.188  1.00  0.00    -0.044 A 
HETATM    9  C   UNL     1      42.006  -9.643  -3.009  1.00  0.00     0.008 A 
HETATM   10  C   UNL     1      43.167  -8.929  -2.720  1.00  0.00     0.001 A 
HETATM   11  C   UNL     1      43.931  -9.266  -1.607  1.00  0.00     0.001 A 
HETATM   12  C   UNL     1      43.530 -10.315  -0.777  1.00  0.00     0.014 A 
HETATM   13  C   UNL     1      40.344 -11.467  -2.466  1.00  0.00     0.054 C 
HETATM   14  C   UNL     1      40.444 -12.964  -2.058  1.00  0.00    -0.002 C 
HETATM   15  C   UNL     1      41.323 -13.744  -3.065  1.00  0.00     0.015 C 
HETATM   16  C   UNL     1      40.747 -15.151  -3.080  1.00  0.00     0.001 C 
HETATM   17  C   UNL     1      39.245 -14.943  -2.962  1.00  0.00     0.001 C 
HETATM   18  C   UNL     1      39.040 -13.590  -2.272  1.00  0.00     0.015 C 
HETATM   19  N   UNL     1      42.442 -12.165   1.093  1.00  0.00    -0.218 NA
ENDROOT
BRANCH   1  20
HETATM   20  N   UNL     1      42.649 -13.071   3.204  1.00  0.00    -0.188 NA
HETATM   21  H   UNL     1      42.698 -13.963   3.698  1.00  0.00     0.150 HD
BRANCH  20  22
HETATM   22  N   UNL     1      42.015 -12.091   4.023  1.00  0.00    -0.189 NA
HETATM   23  C   UNL     1      41.552 -12.572   5.235  1.00  0.00     0.210 C 
HETATM   24  O   UNL     1      41.940 -13.635   5.718  1.00  0.00    -0.279 OA
HETATM   25  H   UNL     1      41.389 -11.497   3.475  1.00  0.00     0.150 HD
BRANCH  23  26
HETATM   26  C   UNL     1      40.517 -11.688   5.892  1.00  0.00     0.093 C 
HETATM   27  C   UNL     1      39.456 -12.531   6.576  1.00  0.00     0.014 C 
ENDBRANCH  23  26
ENDBRANCH  20  22
ENDBRANCH   1  20
BRANCH   2  28
HETATM   28  C   UNL     1      41.057 -15.319   2.400  1.00  0.00     0.173 C 
BRANCH  28  29
HETATM   29  C   UNL     1      42.159 -16.355   2.289  1.00  0.00    -0.040 A 
HETATM   30  C   UNL     1      42.630 -17.029   3.425  1.00  0.00     0.009 A 
HETATM   31  C   UNL     1      43.651 -17.976   3.317  1.00  0.00     0.001 A 
HETATM   32  C   UNL     1      44.212 -18.260   2.073  1.00  0.00     0.000 A 
HETATM   33  C   UNL     1      43.751 -17.601   0.936  1.00  0.00     0.001 A 
HETATM   34  C   UNL     1      42.728 -16.657   1.042  1.00  0.00     0.009 A 
ENDBRANCH  28  29
ENDBRANCH   2  28
TORSDOF 5
ENDMDL
MODEL 8
REMARK VINA RESULT:      -8.4      2.972      4.051
REMARK  5 active torsions:
REMARK  status: ('A' for Active; 'I' for Inactive)
REMARK    1  A    between atoms: C_2  and  C_3 
REMARK       I    between atoms: C_3  and  N_4 
REMARK    2  A    between atoms: N_4  and  N_5 
REMARK    3  A    between atoms: N_5  and  C_6 
REMARK    4  A    between atoms: N_7  and  C_8 
REMARK    5  A    between atoms: C_8  and  C_9 
ROOT
HETATM    1  C   UNL     1      40.232 -15.047   4.906  1.00  0.00     0.200 A 
HETATM    2  N   UNL     1      40.316 -15.173   3.534  1.00  0.00    -0.283 N 
HETATM    3  C   UNL     1      41.330 -15.912   2.949  1.00  0.00     0.259 A 
HETATM    4  O   UNL     1      41.433 -16.025   1.728  1.00  0.00    -0.267 OA
HETATM    5  C   UNL     1      42.299 -16.585   3.857  1.00  0.00     0.049 A 
HETATM    6  C   UNL     1      42.058 -16.433   5.173  1.00  0.00     0.083 A 
HETATM    7  C   UNL     1      42.926 -17.139   6.154  1.00  0.00    -0.000 A 
HETATM    8  C   UNL     1      44.187 -17.611   5.761  1.00  0.00    -0.044 A 
HETATM    9  C   UNL     1      45.027 -18.245   6.688  1.00  0.00     0.008 A 
HETATM   10  C   UNL     1      44.604 -18.436   8.002  1.00  0.00     0.001 A 
HETATM   11  C   UNL     1      43.349 -17.987   8.399  1.00  0.00     0.001 A 
HETATM   12  C   UNL     1      42.517 -17.340   7.483  1.00  0.00     0.014 A 
HETATM   13  C   UNL     1      44.642 -17.368   4.349  1.00  0.00     0.054 C 
HETATM   14  C   UNL     1      43.472 -17.430   3.328  1.00  0.00    -0.002 C 
HETATM   15  C   UNL     1      43.025 -18.895   3.102  1.00  0.00     0.015 C 
HETATM   16  C   UNL     1      42.539 -18.938   1.662  1.00  0.00     0.001 C 
HETATM   17  C   UNL     1      43.496 -18.022   0.915  1.00  0.00     0.001 C 
HETATM   18  C   UNL     1      44.052 -17.032   1.944  1.00  0.00     0.015 C 
HETATM   19  N   UNL     1      41.059 -15.666   5.700  1.00  0.00    -0.218 NA
ENDROOT
BRANCH   1  20
HETATM   20  N   UNL     1      39.260 -14.240   5.482  1.00  0.00    -0.188 NA
HETATM   21  H   UNL     1      38.754 -13.629   4.840  1.00  0.00     0.150 HD
BRANCH  20  22
HETATM   22  N   UNL     1      39.744 -13.489   6.594  1.00  0.00    -0.189 NA
HETATM   23  C   UNL     1      39.483 -12.132   6.525  1.00  0.00     0.210 C 
HETATM   24  O   UNL     1      38.631 -11.659   5.774  1.00  0.00    -0.279 OA
HETATM   25  H   UNL     1      40.689 -13.781   6.855  1.00  0.00     0.150 HD
BRANCH  23  26
HETATM   26  C   UNL     1      40.352 -11.292   7.433  1.00  0.00     0.093 C 
HETATM   27  C   UNL     1      39.601 -10.932   8.702  1.00  0.00     0.014 C 
ENDBRANCH  23  26
ENDBRANCH  20  22
ENDBRANCH   1  20
BRANCH   2  28
HETATM   28  C   UNL     1      39.304 -14.610   2.637  1.00  0.00     0.173 C 
BRANCH  28  29
HETATM   29  C   UNL     1      39.773 -13.331   1.971  1.00  0.00    -0.040 A 
HETATM   30  C   UNL     1      40.312 -12.281   2.728  1.00  0.00     0.009 A 
HETATM   31  C   UNL     1      40.734 -11.102   2.109  1.00  0.00     0.001 A 
HETATM   32  C   UNL     1      40.621 -10.960   0.727  1.00  0.00     0.000 A 
HETATM   33  C   UNL     1      40.091 -11.996  -0.037  1.00  0.00     0.001 A 
HETATM   34  C   UNL     1      39.673 -13.176   0.580  1.00  0.00     0.009 A 
ENDBRANCH  28  29
ENDBRANCH   2  28
TORSDOF 5
ENDMDL
MODEL 9
REMARK VINA RESULT:      -8.4      3.544      7.391
REMARK  5 active torsions:
REMARK  status: ('A' for Active; 'I' for Inactive)
REMARK    1  A    between atoms: C_2  and  C_3 
REMARK       I    between atoms: C_3  and  N_4 
REMARK    2  A    between atoms: N_4  and  N_5 
REMARK    3  A    between atoms: N_5  and  C_6 
REMARK    4  A    between atoms: N_7  and  C_8 
REMARK    5  A    between atoms: C_8  and  C_9 
ROOT
HETATM    1  C   UNL     1      40.958 -15.978   2.773  1.00  0.00     0.200 A 
HETATM    2  N   UNL     1      40.638 -14.924   3.605  1.00  0.00    -0.283 N 
HETATM    3  C   UNL     1      40.511 -13.638   3.108  1.00  0.00     0.259 A 
HETATM    4  O   UNL     1      40.241 -12.683   3.833  1.00  0.00    -0.267 OA
HETATM    5  C   UNL     1      40.702 -13.449   1.644  1.00  0.00     0.049 A 
HETATM    6  C   UNL     1      40.943 -14.574   0.942  1.00  0.00     0.083 A 
HETATM    7  C   UNL     1      41.065 -14.491  -0.538  1.00  0.00    -0.000 A 
HETATM    8  C   UNL     1      41.330 -13.257  -1.152  1.00  0.00    -0.044 A 
HETATM    9  C   UNL     1      41.483 -13.176  -2.543  1.00  0.00     0.008 A 
HETATM   10  C   UNL     1      41.346 -14.317  -3.332  1.00  0.00     0.001 A 
HETATM   11  C   UNL     1      41.067 -15.543  -2.736  1.00  0.00     0.001 A 
HETATM   12  C   UNL     1      40.932 -15.630  -1.349  1.00  0.00     0.014 A 
HETATM   13  C   UNL     1      41.508 -12.043  -0.285  1.00  0.00     0.054 C 
HETATM   14  C   UNL     1      40.593 -12.069   0.971  1.00  0.00    -0.002 C 
HETATM   15  C   UNL     1      39.125 -11.772   0.580  1.00  0.00     0.015 C 
HETATM   16  C   UNL     1      38.532 -11.065   1.788  1.00  0.00     0.001 C 
HETATM   17  C   UNL     1      39.663 -10.187   2.302  1.00  0.00     0.001 C 
HETATM   18  C   UNL     1      40.971 -10.837   1.837  1.00  0.00     0.015 C 
HETATM   19  N   UNL     1      41.090 -15.816   1.487  1.00  0.00    -0.218 NA
ENDROOT
BRANCH   1  20
HETATM   20  N   UNL     1      41.161 -17.250   3.293  1.00  0.00    -0.188 NA
HETATM   21  H   UNL     1      41.535 -17.287   4.242  1.00  0.00     0.150 HD
BRANCH  20  22
HETATM   22  N   UNL     1      41.929 -18.088   2.431  1.00  0.00    -0.189 NA
HETATM   23  C   UNL     1      42.963 -18.759   3.059  1.00  0.00     0.210 C 
HETATM   24  O   UNL     1      43.016 -18.901   4.280  1.00  0.00    -0.279 OA
HETATM   25  H   UNL     1      42.131 -17.623   1.543  1.00  0.00     0.150 HD
BRANCH  23  26
HETATM   26  C   UNL     1      44.025 -19.275   2.114  1.00  0.00     0.093 C 
HETATM   27  C   UNL     1      44.007 -20.792   2.074  1.00  0.00     0.014 C 
ENDBRANCH  23  26
ENDBRANCH  20  22
ENDBRANCH   1  20
BRANCH   2  28
HETATM   28  C   UNL     1      40.336 -15.117   5.026  1.00  0.00     0.173 C 
BRANCH  28  29
HETATM   29  C   UNL     1      41.563 -15.500   5.828  1.00  0.00    -0.040 A 
HETATM   30  C   UNL     1      42.718 -14.703   5.802  1.00  0.00     0.009 A 
HETATM   31  C   UNL     1      43.848 -15.067   6.537  1.00  0.00     0.001 A 
HETATM   32  C   UNL     1      43.839 -16.228   7.307  1.00  0.00     0.000 A 
HETATM   33  C   UNL     1      42.698 -17.026   7.346  1.00  0.00     0.001 A 
HETATM   34  C   UNL     1      41.566 -16.663   6.614  1.00  0.00     0.009 A 
ENDBRANCH  28  29
ENDBRANCH   2  28
TORSDOF 5
ENDMDL
MODEL 10
REMARK VINA RESULT:      -8.2      2.840      5.966
REMARK  5 active torsions:
REMARK  status: ('A' for Active; 'I' for Inactive)
REMARK    1  A    between atoms: C_2  and  C_3 
REMARK       I    between atoms: C_3  and  N_4 
REMARK    2  A    between atoms: N_4  and  N_5 
REMARK    3  A    between atoms: N_5  and  C_6 
REMARK    4  A    between atoms: N_7  and  C_8 
REMARK    5  A    between atoms: C_8  and  C_9 
ROOT
HETATM    1  C   UNL     1      40.901 -14.534   5.067  1.00  0.00     0.200 A 
HETATM    2  N   UNL     1      41.135 -15.893   5.141  1.00  0.00    -0.283 N 
HETATM    3  C   UNL     1      41.467 -16.621   4.011  1.00  0.00     0.259 A 
HETATM    4  O   UNL     1      41.665 -17.834   4.053  1.00  0.00    -0.267 OA
HETATM    5  C   UNL     1      41.591 -15.875   2.729  1.00  0.00     0.049 A 
HETATM    6  C   UNL     1      41.402 -14.544   2.814  1.00  0.00     0.083 A 
HETATM    7  C   UNL     1      41.588 -13.708   1.598  1.00  0.00    -0.000 A 
HETATM    8  C   UNL     1      41.557 -14.302   0.327  1.00  0.00    -0.044 A 
HETATM    9  C   UNL     1      41.694 -13.517  -0.827  1.00  0.00     0.008 A 
HETATM   10  C   UNL     1      41.890 -12.141  -0.719  1.00  0.00     0.001 A 
HETATM   11  C   UNL     1      41.940 -11.543   0.536  1.00  0.00     0.001 A 
HETATM   12  C   UNL     1      41.786 -12.320   1.685  1.00  0.00     0.014 A 
HETATM   13  C   UNL     1      41.311 -15.781   0.227  1.00  0.00     0.054 C 
HETATM   14  C   UNL     1      41.949 -16.572   1.403  1.00  0.00    -0.002 C 
HETATM   15  C   UNL     1      43.486 -16.653   1.233  1.00  0.00     0.015 C 
HETATM   16  C   UNL     1      43.880 -17.978   1.864  1.00  0.00     0.001 C 
HETATM   17  C   UNL     1      42.748 -18.923   1.493  1.00  0.00     0.001 C 
HETATM   18  C   UNL     1      41.510 -18.053   1.250  1.00  0.00     0.015 C 
HETATM   19  N   UNL     1      41.045 -13.878   3.950  1.00  0.00    -0.218 NA
ENDROOT
BRANCH   1  20
HETATM   20  N   UNL     1      40.492 -13.826   6.189  1.00  0.00    -0.188 NA
HETATM   21  H   UNL     1      39.485 -13.683   6.279  1.00  0.00     0.150 HD
BRANCH  20  22
HETATM   22  N   UNL     1      41.180 -12.587   6.348  1.00  0.00    -0.189 NA
HETATM   23  C   UNL     1      40.353 -11.494   6.536  1.00  0.00     0.210 C 
HETATM   24  O   UNL     1      39.176 -11.605   6.878  1.00  0.00    -0.279 OA
HETATM   25  H   UNL     1      41.944 -12.497   5.674  1.00  0.00     0.150 HD
BRANCH  23  26
HETATM   26  C   UNL     1      41.018 -10.165   6.262  1.00  0.00     0.093 C 
HETATM   27  C   UNL     1      41.257  -9.988   4.773  1.00  0.00     0.014 C 
ENDBRANCH  23  26
ENDBRANCH  20  22
ENDBRANCH   1  20
BRANCH   2  28
HETATM   28  C   UNL     1      41.128 -16.615   6.416  1.00  0.00     0.173 C 
BRANCH  28  29
HETATM   29  C   UNL     1      42.491 -17.178   6.767  1.00  0.00    -0.040 A 
HETATM   30  C   UNL     1      42.632 -18.509   7.188  1.00  0.00     0.009 A 
HETATM   31  C   UNL     1      43.890 -19.019   7.519  1.00  0.00     0.001 A 
HETATM   32  C   UNL     1      45.019 -18.207   7.432  1.00  0.00     0.000 A 
HETATM   33  C   UNL     1      44.893 -16.886   7.010  1.00  0.00     0.001 A 
HETATM   34  C   UNL     1      43.637 -16.375   6.677  1.00  0.00     0.009 A 
ENDBRANCH  28  29
ENDBRANCH   2  28
TORSDOF 5
ENDMDL
