MODEL 1
REMARK VINA RESULT:      -7.3      0.000      0.000
REMARK  9 active torsions:
REMARK  status: ('A' for Active; 'I' for Inactive)
REMARK    1  A    between atoms: C_6  and  C_7 
REMARK    2  A    between atoms: C_7  and  C_8 
REMARK       I    between atoms: C_8  and  N_9 
REMARK    3  A    between atoms: N_9  and  C_10 
REMARK    4  A    between atoms: C_10  and  C_11 
REMARK    5  A    between atoms: C_11  and  N_12 
REMARK    6  A    between atoms: C_19  and  C_20 
REMARK    7  A    between atoms: C_29  and  C_30 
REMARK    8  A    between atoms: C_30  and  O_31 
REMARK    9  A    between atoms: O_31  and  C_32 
ROOT
HETATM    1  C   UNL     1      40.266 -14.098   6.181  1.00  0.00     0.071 C 
HETATM    2  C   UNL     1      40.718 -14.556   4.816  1.00  0.00     0.048 C 
HETATM    3  N   UNL     1      39.692 -15.057   4.017  1.00  0.00    -0.229 NA
HETATM    4  C   UNL     1      39.874 -14.945   2.744  1.00  0.00     0.170 C 
HETATM    5  N   UNL     1      41.212 -14.451   2.146  1.00  0.00    -0.318 N 
HETATM    6  C   UNL     1      40.982 -13.621   1.185  1.00  0.00     0.011 C 
HETATM    7  C   UNL     1      42.357 -14.888   2.982  1.00  0.00     0.168 C 
HETATM    8  S   UNL     1      38.642 -14.973   1.538  1.00  0.00    -0.086 SA
HETATM    9  C   UNL     1      39.587 -13.720   0.581  1.00  0.00     0.135 C 
HETATM   10  C   UNL     1      41.981 -14.409   4.350  1.00  0.00     0.069 C 
ENDROOT
BRANCH   6  11
HETATM   11  C   UNL     1      42.017 -12.609   0.785  1.00  0.00     0.156 C 
BRANCH  11  12
HETATM   12  C   UNL     1      41.930 -12.259  -0.687  1.00  0.00     0.223 C 
HETATM   13  N   UNL     1      42.374 -13.209  -1.587  1.00  0.00    -0.359 N 
HETATM   14  H   UNL     1      42.873 -14.030  -1.254  1.00  0.00     0.162 HD
HETATM   15  O   UNL     1      41.555 -11.146  -1.035  1.00  0.00    -0.273 OA
BRANCH  13  16
HETATM   16  C   UNL     1      42.457 -12.859  -3.005  1.00  0.00     0.150 C 
BRANCH  16  17
HETATM   17  C   UNL     1      41.287 -13.379  -3.865  1.00  0.00     0.254 C 
BRANCH  17  18
HETATM   18  N   UNL     1      40.295 -14.173  -3.039  1.00  0.00    -0.070 N 
HETATM   19  H   UNL     1      40.461 -13.982  -2.039  1.00  0.00     0.279 HD
HETATM   20  C   UNL     1      40.383 -15.683  -3.234  1.00  0.00     0.235 C 
HETATM   21  C   UNL     1      39.146 -16.030  -4.033  1.00  0.00     0.029 C 
HETATM   22  C   UNL     1      38.103 -15.100  -3.453  1.00  0.00     0.029 C 
HETATM   23  C   UNL     1      38.843 -13.784  -3.320  1.00  0.00     0.235 C 
ENDBRANCH  17  18
ENDBRANCH  16  17
ENDBRANCH  13  16
ENDBRANCH  11  12
ENDBRANCH   6  11
BRANCH   7  24
HETATM   24  C   UNL     1      42.615 -16.399   2.783  1.00  0.00    -0.009 A 
HETATM   25  C   UNL     1      42.543 -17.103   1.557  1.00  0.00     0.042 A 
HETATM   26 CL   UNL     1      42.050 -16.410   0.053  1.00  0.00    -0.084 Cl
HETATM   27  C   UNL     1      42.860 -18.468   1.486  1.00  0.00     0.024 A 
HETATM   28  C   UNL     1      43.226 -19.178   2.623  1.00  0.00     0.002 A 
HETATM   29  C   UNL     1      43.245 -18.532   3.850  1.00  0.00     0.001 A 
HETATM   30  C   UNL     1      42.929 -17.173   3.932  1.00  0.00     0.011 A 
ENDBRANCH   7  24
BRANCH  10  31
HETATM   31  C   UNL     1      42.956 -13.485   4.967  1.00  0.00     0.294 C 
HETATM   32  O   UNL     1      42.856 -12.275   4.846  1.00  0.00    -0.259 OA
BRANCH  31  33
HETATM   33  O   UNL     1      44.034 -14.180   5.380  1.00  0.00    -0.313 OA
BRANCH  33  34
HETATM   34  C   UNL     1      44.087 -14.536   6.778  1.00  0.00     0.124 C 
HETATM   35  C   UNL     1      44.397 -16.019   6.918  1.00  0.00     0.040 C 
HETATM   36  C   UNL     1      45.176 -13.680   7.412  1.00  0.00     0.040 C 
ENDBRANCH  33  34
ENDBRANCH  31  33
ENDBRANCH  10  31
TORSDOF 9
ENDMDL
MODEL 2
REMARK VINA RESULT:      -7.1      3.476      8.139
REMARK  9 active torsions:
REMARK  status: ('A' for Active; 'I' for Inactive)
REMARK    1  A    between atoms: C_6  and  C_7 
REMARK    2  A    between atoms: C_7  and  C_8 
REMARK       I    between atoms: C_8  and  N_9 
REMARK    3  A    between atoms: N_9  and  C_10 
REMARK    4  A    between atoms: C_10  and  C_11 
REMARK    5  A    between atoms: C_11  and  N_12 
REMARK    6  A    between atoms: C_19  and  C_20 
REMARK    7  A    between atoms: C_29  and  C_30 
REMARK    8  A    between atoms: C_30  and  O_31 
REMARK    9  A    between atoms: O_31  and  C_32 
ROOT
HETATM    1  C   UNL     1      42.155 -12.190   0.694  1.00  0.00     0.071 C 
HETATM    2  C   UNL     1      42.136 -13.314   1.700  1.00  0.00     0.048 C 
HETATM    3  N   UNL     1      43.251 -13.347   2.535  1.00  0.00    -0.229 NA
HETATM    4  C   UNL     1      43.060 -13.877   3.696  1.00  0.00     0.170 C 
HETATM    5  N   UNL     1      41.736 -14.585   4.068  1.00  0.00    -0.318 N 
HETATM    6  C   UNL     1      41.380 -14.247   5.261  1.00  0.00     0.011 C 
HETATM    7  C   UNL     1      41.147 -15.258   2.885  1.00  0.00     0.168 C 
HETATM    8  S   UNL     1      44.026 -13.617   5.100  1.00  0.00    -0.086 SA
HETATM    9  C   UNL     1      42.506 -13.702   6.130  1.00  0.00     0.135 C 
HETATM   10  C   UNL     1      41.095 -14.164   1.863  1.00  0.00     0.069 C 
ENDROOT
BRANCH   6  11
HETATM   11  C   UNL     1      39.940 -14.336   5.683  1.00  0.00     0.156 C 
BRANCH  11  12
HETATM   12  C   UNL     1      39.415 -13.009   6.193  1.00  0.00     0.223 C 
HETATM   13  N   UNL     1      39.696 -12.685   7.506  1.00  0.00    -0.359 N 
HETATM   14  H   UNL     1      40.099 -13.382   8.126  1.00  0.00     0.162 HD
HETATM   15  O   UNL     1      38.708 -12.309   5.478  1.00  0.00    -0.273 OA
BRANCH  13  16
HETATM   16  C   UNL     1      39.080 -11.492   8.090  1.00  0.00     0.150 C 
BRANCH  16  17
HETATM   17  C   UNL     1      39.928 -10.210   7.976  1.00  0.00     0.254 C 
BRANCH  17  18
HETATM   18  N   UNL     1      40.263  -9.637   9.339  1.00  0.00    -0.070 N 
HETATM   19  H   UNL     1      40.395  -8.618   9.253  1.00  0.00     0.279 HD
HETATM   20  C   UNL     1      41.532 -10.208   9.964  1.00  0.00     0.235 C 
HETATM   21  C   UNL     1      41.031 -11.099  11.080  1.00  0.00     0.029 C 
HETATM   22  C   UNL     1      39.846 -10.327  11.617  1.00  0.00     0.029 C 
HETATM   23  C   UNL     1      39.145  -9.846  10.362  1.00  0.00     0.235 C 
ENDBRANCH  17  18
ENDBRANCH  16  17
ENDBRANCH  13  16
ENDBRANCH  11  12
ENDBRANCH   6  11
BRANCH   7  24
HETATM   24  C   UNL     1      41.948 -16.535   2.546  1.00  0.00    -0.009 A 
HETATM   25  C   UNL     1      42.084 -17.678   3.370  1.00  0.00     0.042 A 
HETATM   26 CL   UNL     1      41.451 -17.815   4.971  1.00  0.00    -0.084 Cl
HETATM   27  C   UNL     1      42.787 -18.810   2.929  1.00  0.00     0.024 A 
HETATM   28  C   UNL     1      43.397 -18.832   1.681  1.00  0.00     0.002 A 
HETATM   29  C   UNL     1      43.336 -17.706   0.875  1.00  0.00     0.001 A 
HETATM   30  C   UNL     1      42.640 -16.573   1.305  1.00  0.00     0.011 A 
ENDBRANCH   7  24
BRANCH  10  31
HETATM   31  C   UNL     1      39.743 -13.879   1.336  1.00  0.00     0.294 C 
HETATM   32  O   UNL     1      38.919 -13.259   1.988  1.00  0.00    -0.259 OA
BRANCH  31  33
HETATM   33  O   UNL     1      39.522 -14.630   0.240  1.00  0.00    -0.313 OA
BRANCH  33  34
HETATM   34  C   UNL     1      39.646 -13.973  -1.040  1.00  0.00     0.124 C 
HETATM   35  C   UNL     1      40.592 -14.762  -1.932  1.00  0.00     0.040 C 
HETATM   36  C   UNL     1      38.248 -13.903  -1.640  1.00  0.00     0.040 C 
ENDBRANCH  33  34
ENDBRANCH  31  33
ENDBRANCH  10  31
TORSDOF 9
ENDMDL
MODEL 3
REMARK VINA RESULT:      -7.0      2.607      7.420
REMARK  9 active torsions:
REMARK  status: ('A' for Active; 'I' for Inactive)
REMARK    1  A    between atoms: C_6  and  C_7 
REMARK    2  A    between atoms: C_7  and  C_8 
REMARK       I    between atoms: C_8  and  N_9 
REMARK    3  A    between atoms: N_9  and  C_10 
REMARK    4  A    between atoms: C_10  and  C_11 
REMARK    5  A    between atoms: C_11  and  N_12 
REMARK    6  A    between atoms: C_19  and  C_20 
REMARK    7  A    between atoms: C_29  and  C_30 
REMARK    8  A    between atoms: C_30  and  O_31 
REMARK    9  A    between atoms: O_31  and  C_32 
ROOT
HETATM    1  C   UNL     1      38.095 -13.712   0.419  1.00  0.00     0.071 C 
HETATM    2  C   UNL     1      39.423 -13.051   0.695  1.00  0.00     0.048 C 
HETATM    3  N   UNL     1      39.347 -11.966   1.566  1.00  0.00    -0.229 NA
HETATM    4  C   UNL     1      40.416 -11.724   2.247  1.00  0.00     0.170 C 
HETATM    5  N   UNL     1      41.743 -12.475   1.988  1.00  0.00    -0.318 N 
HETATM    6  C   UNL     1      42.291 -12.794   3.111  1.00  0.00     0.011 C 
HETATM    7  C   UNL     1      41.888 -12.807   0.549  1.00  0.00     0.168 C 
HETATM    8  S   UNL     1      40.497 -10.837   3.723  1.00  0.00    -0.086 SA
HETATM    9  C   UNL     1      41.816 -11.977   4.305  1.00  0.00     0.135 C 
HETATM   10  C   UNL     1      40.608 -13.516   0.233  1.00  0.00     0.069 C 
ENDROOT
BRANCH   6  11
HETATM   11  C   UNL     1      43.259 -13.941   3.189  1.00  0.00     0.156 C 
BRANCH  11  12
HETATM   12  C   UNL     1      42.623 -15.182   3.784  1.00  0.00     0.223 C 
HETATM   13  N   UNL     1      42.538 -16.295   2.971  1.00  0.00    -0.359 N 
HETATM   14  H   UNL     1      42.754 -16.219   1.981  1.00  0.00     0.162 HD
HETATM   15  O   UNL     1      42.141 -15.148   4.910  1.00  0.00    -0.273 OA
BRANCH  13  16
HETATM   16  C   UNL     1      41.794 -17.464   3.444  1.00  0.00     0.150 C 
BRANCH  16  17
HETATM   17  C   UNL     1      42.656 -18.536   4.140  1.00  0.00     0.254 C 
BRANCH  17  18
HETATM   18  N   UNL     1      43.795 -19.000   3.255  1.00  0.00    -0.070 N 
HETATM   19  H   UNL     1      44.468 -18.227   3.139  1.00  0.00     0.279 HD
HETATM   20  C   UNL     1      43.366 -19.441   1.859  1.00  0.00     0.235 C 
HETATM   21  C   UNL     1      43.509 -20.947   1.882  1.00  0.00     0.029 C 
HETATM   22  C   UNL     1      44.755 -21.151   2.716  1.00  0.00     0.029 C 
HETATM   23  C   UNL     1      44.576 -20.169   3.857  1.00  0.00     0.235 C 
ENDBRANCH  17  18
ENDBRANCH  16  17
ENDBRANCH  13  16
ENDBRANCH  11  12
ENDBRANCH   6  11
BRANCH   7  24
HETATM   24  C   UNL     1      42.238 -11.536  -0.258  1.00  0.00    -0.009 A 
HETATM   25  C   UNL     1      42.718 -11.498  -1.589  1.00  0.00     0.042 A 
HETATM   26 CL   UNL     1      43.099 -12.892  -2.535  1.00  0.00    -0.084 Cl
HETATM   27  C   UNL     1      42.943 -10.278  -2.244  1.00  0.00     0.024 A 
HETATM   28  C   UNL     1      42.730  -9.068  -1.595  1.00  0.00     0.002 A 
HETATM   29  C   UNL     1      42.320  -9.070  -0.271  1.00  0.00     0.001 A 
HETATM   30  C   UNL     1      42.094 -10.280   0.392  1.00  0.00     0.011 A 
ENDBRANCH   7  24
BRANCH  10  31
HETATM   31  C   UNL     1      40.778 -14.889  -0.286  1.00  0.00     0.294 C 
HETATM   32  O   UNL     1      40.948 -15.840   0.460  1.00  0.00    -0.259 OA
BRANCH  31  33
HETATM   33  O   UNL     1      40.998 -14.843  -1.615  1.00  0.00    -0.313 OA
BRANCH  33  34
HETATM   34  C   UNL     1      39.840 -14.922  -2.473  1.00  0.00     0.124 C 
HETATM   35  C   UNL     1      39.714 -13.640  -3.283  1.00  0.00     0.040 C 
HETATM   36  C   UNL     1      40.040 -16.131  -3.378  1.00  0.00     0.040 C 
ENDBRANCH  33  34
ENDBRANCH  31  33
ENDBRANCH  10  31
TORSDOF 9
ENDMDL
MODEL 4
REMARK VINA RESULT:      -7.0      2.746      7.388
REMARK  9 active torsions:
REMARK  status: ('A' for Active; 'I' for Inactive)
REMARK    1  A    between atoms: C_6  and  C_7 
REMARK    2  A    between atoms: C_7  and  C_8 
REMARK       I    between atoms: C_8  and  N_9 
REMARK    3  A    between atoms: N_9  and  C_10 
REMARK    4  A    between atoms: C_10  and  C_11 
REMARK    5  A    between atoms: C_11  and  N_12 
REMARK    6  A    between atoms: C_19  and  C_20 
REMARK    7  A    between atoms: C_29  and  C_30 
REMARK    8  A    between atoms: C_30  and  O_31 
REMARK    9  A    between atoms: O_31  and  C_32 
ROOT
HETATM    1  C   UNL     1      38.435 -13.969  -0.329  1.00  0.00     0.071 C 
HETATM    2  C   UNL     1      39.632 -13.168   0.121  1.00  0.00     0.048 C 
HETATM    3  N   UNL     1      39.309 -12.044   0.879  1.00  0.00    -0.229 NA
HETATM    4  C   UNL     1      40.214 -11.659   1.715  1.00  0.00     0.170 C 
HETATM    5  N   UNL     1      41.624 -12.293   1.748  1.00  0.00    -0.318 N 
HETATM    6  C   UNL     1      41.987 -12.489   2.970  1.00  0.00     0.011 C 
HETATM    7  C   UNL     1      42.053 -12.696   0.387  1.00  0.00     0.168 C 
HETATM    8  S   UNL     1      39.954 -10.680   3.110  1.00  0.00    -0.086 SA
HETATM    9  C   UNL     1      41.238 -11.650   3.998  1.00  0.00     0.135 C 
HETATM   10  C   UNL     1      40.915 -13.543  -0.091  1.00  0.00     0.069 C 
ENDROOT
BRANCH   6  11
HETATM   11  C   UNL     1      43.018 -13.530   3.304  1.00  0.00     0.156 C 
BRANCH  11  12
HETATM   12  C   UNL     1      42.485 -14.569   4.270  1.00  0.00     0.223 C 
HETATM   13  N   UNL     1      43.186 -14.753   5.446  1.00  0.00    -0.359 N 
HETATM   14  H   UNL     1      44.095 -14.316   5.568  1.00  0.00     0.162 HD
HETATM   15  O   UNL     1      41.520 -15.259   3.963  1.00  0.00    -0.273 OA
BRANCH  13  16
HETATM   16  C   UNL     1      42.803 -15.849   6.336  1.00  0.00     0.150 C 
BRANCH  16  17
HETATM   17  C   UNL     1      43.844 -16.981   6.446  1.00  0.00     0.254 C 
BRANCH  17  18
HETATM   18  N   UNL     1      43.350 -18.260   5.798  1.00  0.00    -0.070 N 
HETATM   19  H   UNL     1      42.358 -18.399   6.041  1.00  0.00     0.279 HD
HETATM   20  C   UNL     1      44.104 -19.513   6.231  1.00  0.00     0.235 C 
HETATM   21  C   UNL     1      44.939 -19.883   5.024  1.00  0.00     0.029 C 
HETATM   22  C   UNL     1      44.021 -19.550   3.868  1.00  0.00     0.029 C 
HETATM   23  C   UNL     1      43.422 -18.217   4.271  1.00  0.00     0.235 C 
ENDBRANCH  17  18
ENDBRANCH  16  17
ENDBRANCH  13  16
ENDBRANCH  11  12
ENDBRANCH   6  11
BRANCH   7  24
HETATM   24  C   UNL     1      42.434 -11.449  -0.443  1.00  0.00    -0.009 A 
HETATM   25  C   UNL     1      42.766 -11.431  -1.819  1.00  0.00     0.042 A 
HETATM   26 CL   UNL     1      42.903 -12.836  -2.814  1.00  0.00    -0.084 Cl
HETATM   27  C   UNL     1      43.035 -10.225  -2.483  1.00  0.00     0.024 A 
HETATM   28  C   UNL     1      43.014  -9.013  -1.804  1.00  0.00     0.002 A 
HETATM   29  C   UNL     1      42.754  -9.002  -0.442  1.00  0.00     0.001 A 
HETATM   30  C   UNL     1      42.486 -10.198   0.230  1.00  0.00     0.011 A 
ENDBRANCH   7  24
BRANCH  10  31
HETATM   31  C   UNL     1      41.291 -14.923  -0.466  1.00  0.00     0.294 C 
HETATM   32  O   UNL     1      40.905 -15.431  -1.507  1.00  0.00    -0.259 OA
BRANCH  31  33
HETATM   33  O   UNL     1      41.825 -15.548   0.601  1.00  0.00    -0.313 OA
BRANCH  33  34
HETATM   34  C   UNL     1      42.039 -16.971   0.486  1.00  0.00     0.124 C 
HETATM   35  C   UNL     1      43.462 -17.311   0.906  1.00  0.00     0.040 C 
HETATM   36  C   UNL     1      41.019 -17.647   1.392  1.00  0.00     0.040 C 
ENDBRANCH  33  34
ENDBRANCH  31  33
ENDBRANCH  10  31
TORSDOF 9
ENDMDL
MODEL 5
REMARK VINA RESULT:      -6.8      3.038      5.049
REMARK  9 active torsions:
REMARK  status: ('A' for Active; 'I' for Inactive)
REMARK    1  A    between atoms: C_6  and  C_7 
REMARK    2  A    between atoms: C_7  and  C_8 
REMARK       I    between atoms: C_8  and  N_9 
REMARK    3  A    between atoms: N_9  and  C_10 
REMARK    4  A    between atoms: C_10  and  C_11 
REMARK    5  A    between atoms: C_11  and  N_12 
REMARK    6  A    between atoms: C_19  and  C_20 
REMARK    7  A    between atoms: C_29  and  C_30 
REMARK    8  A    between atoms: C_30  and  O_31 
REMARK    9  A    between atoms: O_31  and  C_32 
ROOT
HETATM    1  C   UNL     1      44.728 -17.108   1.086  1.00  0.00     0.071 C 
HETATM    2  C   UNL     1      43.851 -16.750   2.261  1.00  0.00     0.048 C 
HETATM    3  N   UNL     1      44.138 -15.509   2.825  1.00  0.00    -0.229 NA
HETATM    4  C   UNL     1      43.149 -14.925   3.414  1.00  0.00     0.170 C 
HETATM    5  N   UNL     1      41.789 -15.629   3.630  1.00  0.00    -0.318 N 
HETATM    6  C   UNL     1      40.827 -14.812   3.366  1.00  0.00     0.011 C 
HETATM    7  C   UNL     1      41.979 -17.083   3.855  1.00  0.00     0.168 C 
HETATM    8  S   UNL     1      43.018 -13.236   3.739  1.00  0.00    -0.086 SA
HETATM    9  C   UNL     1      41.213 -13.340   3.409  1.00  0.00     0.135 C 
HETATM   10  C   UNL     1      42.807 -17.503   2.681  1.00  0.00     0.069 C 
ENDROOT
BRANCH   6  11
HETATM   11  C   UNL     1      39.470 -15.330   2.979  1.00  0.00     0.156 C 
BRANCH  11  12
HETATM   12  C   UNL     1      39.132 -15.014   1.536  1.00  0.00     0.223 C 
HETATM   13  N   UNL     1      40.114 -15.249   0.594  1.00  0.00    -0.359 N 
HETATM   14  H   UNL     1      41.059 -15.475   0.891  1.00  0.00     0.162 HD
HETATM   15  O   UNL     1      38.057 -14.498   1.253  1.00  0.00    -0.273 OA
BRANCH  13  16
HETATM   16  C   UNL     1      39.893 -14.815  -0.786  1.00  0.00     0.150 C 
BRANCH  16  17
HETATM   17  C   UNL     1      41.159 -14.328  -1.518  1.00  0.00     0.254 C 
BRANCH  17  18
HETATM   18  N   UNL     1      41.101 -12.842  -1.810  1.00  0.00    -0.070 N 
HETATM   19  H   UNL     1      40.272 -12.440  -1.346  1.00  0.00     0.279 HD
HETATM   20  C   UNL     1      41.002 -12.498  -3.293  1.00  0.00     0.235 C 
HETATM   21  C   UNL     1      42.368 -11.945  -3.640  1.00  0.00     0.029 C 
HETATM   22  C   UNL     1      42.737 -11.164  -2.398  1.00  0.00     0.029 C 
HETATM   23  C   UNL     1      42.313 -12.082  -1.268  1.00  0.00     0.235 C 
ENDBRANCH  17  18
ENDBRANCH  16  17
ENDBRANCH  13  16
ENDBRANCH  11  12
ENDBRANCH   6  11
BRANCH   7  24
HETATM   24  C   UNL     1      42.542 -17.333   5.272  1.00  0.00    -0.009 A 
HETATM   25  C   UNL     1      41.928 -16.960   6.492  1.00  0.00     0.042 A 
HETATM   26 CL   UNL     1      40.461 -16.056   6.617  1.00  0.00    -0.084 Cl
HETATM   27  C   UNL     1      42.505 -17.297   7.727  1.00  0.00     0.024 A 
HETATM   28  C   UNL     1      43.712 -17.981   7.789  1.00  0.00     0.002 A 
HETATM   29  C   UNL     1      44.371 -18.305   6.613  1.00  0.00     0.001 A 
HETATM   30  C   UNL     1      43.806 -17.974   5.379  1.00  0.00     0.011 A 
ENDBRANCH   7  24
BRANCH  10  31
HETATM   31  C   UNL     1      42.196 -18.557   1.843  1.00  0.00     0.294 C 
HETATM   32  O   UNL     1      41.349 -18.298   1.004  1.00  0.00    -0.259 OA
BRANCH  31  33
HETATM   33  O   UNL     1      42.500 -19.767   2.352  1.00  0.00    -0.313 OA
BRANCH  33  34
HETATM   34  C   UNL     1      43.706 -20.396   1.868  1.00  0.00     0.124 C 
HETATM   35  C   UNL     1      44.772 -20.366   2.954  1.00  0.00     0.040 C 
HETATM   36  C   UNL     1      43.340 -21.826   1.492  1.00  0.00     0.040 C 
ENDBRANCH  33  34
ENDBRANCH  31  33
ENDBRANCH  10  31
TORSDOF 9
ENDMDL
MODEL 6
REMARK VINA RESULT:      -6.8      3.016      5.281
REMARK  9 active torsions:
REMARK  status: ('A' for Active; 'I' for Inactive)
REMARK    1  A    between atoms: C_6  and  C_7 
REMARK    2  A    between atoms: C_7  and  C_8 
REMARK       I    between atoms: C_8  and  N_9 
REMARK    3  A    between atoms: N_9  and  C_10 
REMARK    4  A    between atoms: C_10  and  C_11 
REMARK    5  A    between atoms: C_11  and  N_12 
REMARK    6  A    between atoms: C_19  and  C_20 
REMARK    7  A    between atoms: C_29  and  C_30 
REMARK    8  A    between atoms: C_30  and  O_31 
REMARK    9  A    between atoms: O_31  and  C_32 
ROOT
HETATM    1  C   UNL     1      43.323 -13.749   3.580  1.00  0.00     0.071 C 
HETATM    2  C   UNL     1      42.289 -13.467   2.518  1.00  0.00     0.048 C 
HETATM    3  N   UNL     1      42.607 -12.393   1.688  1.00  0.00    -0.229 NA
HETATM    4  C   UNL     1      42.104 -12.441   0.501  1.00  0.00     0.170 C 
HETATM    5  N   UNL     1      41.079 -13.521   0.085  1.00  0.00    -0.318 N 
HETATM    6  C   UNL     1      41.365 -13.967  -1.091  1.00  0.00     0.011 C 
HETATM    7  C   UNL     1      40.211 -13.893   1.230  1.00  0.00     0.168 C 
HETATM    8  S   UNL     1      42.690 -11.595  -0.883  1.00  0.00    -0.086 SA
HETATM    9  C   UNL     1      42.243 -13.042  -1.924  1.00  0.00     0.135 C 
HETATM   10  C   UNL     1      41.194 -14.235   2.305  1.00  0.00     0.069 C 
ENDROOT
BRANCH   6  11
HETATM   11  C   UNL     1      40.905 -15.330  -1.524  1.00  0.00     0.156 C 
BRANCH  11  12
HETATM   12  C   UNL     1      40.184 -15.289  -2.857  1.00  0.00     0.223 C 
HETATM   13  N   UNL     1      38.804 -15.308  -2.826  1.00  0.00    -0.359 N 
HETATM   14  H   UNL     1      38.318 -15.497  -1.953  1.00  0.00     0.162 HD
HETATM   15  O   UNL     1      40.821 -15.319  -3.904  1.00  0.00    -0.273 OA
BRANCH  13  16
HETATM   16  C   UNL     1      38.067 -15.428  -4.085  1.00  0.00     0.150 C 
BRANCH  16  17
HETATM   17  C   UNL     1      36.662 -14.795  -4.070  1.00  0.00     0.254 C 
BRANCH  17  18
HETATM   18  N   UNL     1      36.581 -13.589  -4.986  1.00  0.00    -0.070 N 
HETATM   19  H   UNL     1      37.433 -13.551  -5.567  1.00  0.00     0.279 HD
HETATM   20  C   UNL     1      36.468 -12.254  -4.257  1.00  0.00     0.235 C 
HETATM   21  C   UNL     1      35.036 -11.824  -4.485  1.00  0.00     0.029 C 
HETATM   22  C   UNL     1      34.774 -12.276  -5.905  1.00  0.00     0.029 C 
HETATM   23  C   UNL     1      35.398 -13.656  -5.953  1.00  0.00     0.235 C 
ENDBRANCH  17  18
ENDBRANCH  16  17
ENDBRANCH  13  16
ENDBRANCH  11  12
ENDBRANCH   6  11
BRANCH   7  24
HETATM   24  C   UNL     1      39.187 -12.769   1.508  1.00  0.00    -0.009 A 
HETATM   25  C   UNL     1      38.173 -12.326   0.624  1.00  0.00     0.042 A 
HETATM   26 CL   UNL     1      37.955 -12.904  -0.988  1.00  0.00    -0.084 Cl
HETATM   27  C   UNL     1      37.258 -11.335   1.011  1.00  0.00     0.024 A 
HETATM   28  C   UNL     1      37.337 -10.737   2.263  1.00  0.00     0.002 A 
HETATM   29  C   UNL     1      38.356 -11.103   3.127  1.00  0.00     0.001 A 
HETATM   30  C   UNL     1      39.275 -12.087   2.752  1.00  0.00     0.011 A 
ENDBRANCH   7  24
BRANCH  10  31
HETATM   31  C   UNL     1      41.069 -15.609   2.838  1.00  0.00     0.294 C 
HETATM   32  O   UNL     1      40.696 -15.821   3.981  1.00  0.00    -0.259 OA
BRANCH  31  33
HETATM   33  O   UNL     1      41.683 -16.471   2.005  1.00  0.00    -0.313 OA
BRANCH  33  34
HETATM   34  C   UNL     1      42.909 -17.074   2.473  1.00  0.00     0.124 C 
HETATM   35  C   UNL     1      42.606 -18.421   3.112  1.00  0.00     0.040 C 
HETATM   36  C   UNL     1      43.817 -17.229   1.260  1.00  0.00     0.040 C 
ENDBRANCH  33  34
ENDBRANCH  31  33
ENDBRANCH  10  31
TORSDOF 9
ENDMDL
MODEL 7
REMARK VINA RESULT:      -6.6      4.357      7.369
REMARK  9 active torsions:
REMARK  status: ('A' for Active; 'I' for Inactive)
REMARK    1  A    between atoms: C_6  and  C_7 
REMARK    2  A    between atoms: C_7  and  C_8 
REMARK       I    between atoms: C_8  and  N_9 
REMARK    3  A    between atoms: N_9  and  C_10 
REMARK    4  A    between atoms: C_10  and  C_11 
REMARK    5  A    between atoms: C_11  and  N_12 
REMARK    6  A    between atoms: C_19  and  C_20 
REMARK    7  A    between atoms: C_29  and  C_30 
REMARK    8  A    between atoms: C_30  and  O_31 
REMARK    9  A    between atoms: O_31  and  C_32 
ROOT
HETATM    1  C   UNL     1      42.541 -12.911  -2.308  1.00  0.00     0.071 C 
HETATM    2  C   UNL     1      41.891 -13.385  -1.031  1.00  0.00     0.048 C 
HETATM    3  N   UNL     1      42.236 -12.636   0.093  1.00  0.00    -0.229 NA
HETATM    4  C   UNL     1      41.357 -12.616   1.038  1.00  0.00     0.170 C 
HETATM    5  N   UNL     1      40.090 -13.501   1.000  1.00  0.00    -0.318 N 
HETATM    6  C   UNL     1      39.066 -12.815   1.381  1.00  0.00     0.011 C 
HETATM    7  C   UNL     1      40.370 -14.795   0.331  1.00  0.00     0.168 C 
HETATM    8  S   UNL     1      41.231 -11.425   2.278  1.00  0.00    -0.086 SA
HETATM    9  C   UNL     1      39.401 -11.575   2.199  1.00  0.00     0.135 C 
HETATM   10  C   UNL     1      40.974 -14.379  -0.974  1.00  0.00     0.069 C 
ENDROOT
BRANCH   6  11
HETATM   11  C   UNL     1      37.680 -13.213   0.959  1.00  0.00     0.156 C 
BRANCH  11  12
HETATM   12  C   UNL     1      36.891 -12.037   0.418  1.00  0.00     0.223 C 
HETATM   13  N   UNL     1      35.942 -11.479   1.253  1.00  0.00    -0.359 N 
HETATM   14  H   UNL     1      35.692 -11.945   2.121  1.00  0.00     0.162 HD
HETATM   15  O   UNL     1      37.050 -11.668  -0.739  1.00  0.00    -0.273 OA
BRANCH  13  16
HETATM   16  C   UNL     1      35.050 -10.447   0.723  1.00  0.00     0.150 C 
BRANCH  16  17
HETATM   17  C   UNL     1      33.552 -10.695   0.988  1.00  0.00     0.254 C 
BRANCH  17  18
HETATM   18  N   UNL     1      33.249 -10.760   2.472  1.00  0.00    -0.070 N 
HETATM   19  H   UNL     1      33.966 -11.339   2.937  1.00  0.00     0.279 HD
HETATM   20  C   UNL     1      31.890 -11.363   2.809  1.00  0.00     0.235 C 
HETATM   21  C   UNL     1      31.058 -10.182   3.259  1.00  0.00     0.029 C 
HETATM   22  C   UNL     1      32.058  -9.341   4.023  1.00  0.00     0.029 C 
HETATM   23  C   UNL     1      33.294  -9.389   3.148  1.00  0.00     0.235 C 
ENDBRANCH  17  18
ENDBRANCH  16  17
ENDBRANCH  13  16
ENDBRANCH  11  12
ENDBRANCH   6  11
BRANCH   7  24
HETATM   24  C   UNL     1      41.201 -15.707   1.262  1.00  0.00    -0.009 A 
HETATM   25  C   UNL     1      41.029 -15.850   2.660  1.00  0.00     0.042 A 
HETATM   26 CL   UNL     1      39.905 -14.946   3.610  1.00  0.00    -0.084 Cl
HETATM   27  C   UNL     1      41.805 -16.759   3.396  1.00  0.00     0.024 A 
HETATM   28  C   UNL     1      42.788 -17.524   2.780  1.00  0.00     0.002 A 
HETATM   29  C   UNL     1      43.025 -17.361   1.424  1.00  0.00     0.001 A 
HETATM   30  C   UNL     1      42.258 -16.458   0.682  1.00  0.00     0.011 A 
ENDBRANCH   7  24
BRANCH  10  31
HETATM   31  C   UNL     1      40.253 -14.867  -2.169  1.00  0.00     0.294 C 
HETATM   32  O   UNL     1      40.814 -15.517  -3.035  1.00  0.00    -0.259 OA
BRANCH  31  33
HETATM   33  O   UNL     1      39.058 -14.251  -2.254  1.00  0.00    -0.313 OA
BRANCH  33  34
HETATM   34  C   UNL     1      38.699 -13.691  -3.536  1.00  0.00     0.124 C 
HETATM   35  C   UNL     1      37.206 -13.864  -3.772  1.00  0.00     0.040 C 
HETATM   36  C   UNL     1      39.087 -12.219  -3.501  1.00  0.00     0.040 C 
ENDBRANCH  33  34
ENDBRANCH  31  33
ENDBRANCH  10  31
TORSDOF 9
ENDMDL
MODEL 8
REMARK VINA RESULT:      -6.6      3.138      7.549
REMARK  9 active torsions:
REMARK  status: ('A' for Active; 'I' for Inactive)
REMARK    1  A    between atoms: C_6  and  C_7 
REMARK    2  A    between atoms: C_7  and  C_8 
REMARK       I    between atoms: C_8  and  N_9 
REMARK    3  A    between atoms: N_9  and  C_10 
REMARK    4  A    between atoms: C_10  and  C_11 
REMARK    5  A    between atoms: C_11  and  N_12 
REMARK    6  A    between atoms: C_19  and  C_20 
REMARK    7  A    between atoms: C_29  and  C_30 
REMARK    8  A    between atoms: C_30  and  O_31 
REMARK    9  A    between atoms: O_31  and  C_32 
ROOT
HETATM    1  C   UNL     1      39.663  -9.961   0.163  1.00  0.00     0.071 C 
HETATM    2  C   UNL     1      39.466 -11.095  -0.814  1.00  0.00     0.048 C 
HETATM    3  N   UNL     1      40.175 -10.946  -2.005  1.00  0.00    -0.229 NA
HETATM    4  C   UNL     1      40.490 -12.045  -2.604  1.00  0.00     0.170 C 
HETATM    5  N   UNL     1      39.968 -13.420  -2.127  1.00  0.00    -0.318 N 
HETATM    6  C   UNL     1      40.923 -14.286  -2.161  1.00  0.00     0.011 C 
HETATM    7  C   UNL     1      38.602 -13.298  -1.561  1.00  0.00     0.168 C 
HETATM    8  S   UNL     1      41.756 -12.242  -3.758  1.00  0.00    -0.086 SA
HETATM    9  C   UNL     1      42.086 -13.915  -3.071  1.00  0.00     0.135 C 
HETATM   10  C   UNL     1      38.753 -12.213  -0.540  1.00  0.00     0.069 C 
ENDROOT
BRANCH   6  11
HETATM   11  C   UNL     1      40.874 -15.512  -1.293  1.00  0.00     0.156 C 
BRANCH  11  12
HETATM   12  C   UNL     1      41.846 -15.426  -0.133  1.00  0.00     0.223 C 
HETATM   13  N   UNL     1      42.406 -16.609   0.308  1.00  0.00    -0.359 N 
HETATM   14  H   UNL     1      42.053 -17.498  -0.037  1.00  0.00     0.162 HD
HETATM   15  O   UNL     1      42.048 -14.353   0.424  1.00  0.00    -0.273 OA
BRANCH  13  16
HETATM   16  C   UNL     1      43.225 -16.598   1.521  1.00  0.00     0.150 C 
BRANCH  16  17
HETATM   17  C   UNL     1      44.171 -17.806   1.668  1.00  0.00     0.254 C 
BRANCH  17  18
HETATM   18  N   UNL     1      43.603 -18.850   2.609  1.00  0.00    -0.070 N 
HETATM   19  H   UNL     1      42.640 -19.078   2.317  1.00  0.00     0.279 HD
HETATM   20  C   UNL     1      43.543 -18.412   4.069  1.00  0.00     0.235 C 
HETATM   21  C   UNL     1      44.639 -19.208   4.743  1.00  0.00     0.029 C 
HETATM   22  C   UNL     1      44.563 -20.544   4.039  1.00  0.00     0.029 C 
HETATM   23  C   UNL     1      44.388 -20.163   2.583  1.00  0.00     0.235 C 
ENDBRANCH  17  18
ENDBRANCH  16  17
ENDBRANCH  13  16
ENDBRANCH  11  12
ENDBRANCH   6  11
BRANCH   7  24
HETATM   24  C   UNL     1      37.572 -13.095  -2.694  1.00  0.00    -0.009 A 
HETATM   25  C   UNL     1      37.271 -14.020  -3.723  1.00  0.00     0.042 A 
HETATM   26 CL   UNL     1      38.082 -15.527  -3.958  1.00  0.00    -0.084 Cl
HETATM   27  C   UNL     1      36.267 -13.752  -4.667  1.00  0.00     0.024 A 
HETATM   28  C   UNL     1      35.559 -12.557  -4.639  1.00  0.00     0.002 A 
HETATM   29  C   UNL     1      35.873 -11.604  -3.683  1.00  0.00     0.001 A 
HETATM   30  C   UNL     1      36.872 -11.859  -2.739  1.00  0.00     0.011 A 
ENDBRANCH   7  24
BRANCH  10  31
HETATM   31  C   UNL     1      38.390 -12.609   0.837  1.00  0.00     0.294 C 
HETATM   32  O   UNL     1      37.337 -12.260   1.347  1.00  0.00    -0.259 OA
BRANCH  31  33
HETATM   33  O   UNL     1      39.473 -13.113   1.460  1.00  0.00    -0.313 OA
BRANCH  33  34
HETATM   34  C   UNL     1      39.234 -14.014   2.562  1.00  0.00     0.124 C 
HETATM   35  C   UNL     1      39.101 -15.438   2.041  1.00  0.00     0.040 C 
HETATM   36  C   UNL     1      40.419 -13.880   3.509  1.00  0.00     0.040 C 
ENDBRANCH  33  34
ENDBRANCH  31  33
ENDBRANCH  10  31
TORSDOF 9
ENDMDL
MODEL 9
REMARK VINA RESULT:      -6.4      4.861      9.713
REMARK  9 active torsions:
REMARK  status: ('A' for Active; 'I' for Inactive)
REMARK    1  A    between atoms: C_6  and  C_7 
REMARK    2  A    between atoms: C_7  and  C_8 
REMARK       I    between atoms: C_8  and  N_9 
REMARK    3  A    between atoms: N_9  and  C_10 
REMARK    4  A    between atoms: C_10  and  C_11 
REMARK    5  A    between atoms: C_11  and  N_12 
REMARK    6  A    between atoms: C_19  and  C_20 
REMARK    7  A    between atoms: C_29  and  C_30 
REMARK    8  A    between atoms: C_30  and  O_31 
REMARK    9  A    between atoms: O_31  and  C_32 
ROOT
HETATM    1  C   UNL     1      41.933 -14.741   3.138  1.00  0.00     0.071 C 
HETATM    2  C   UNL     1      42.107 -13.872   4.360  1.00  0.00     0.048 C 
HETATM    3  N   UNL     1      42.293 -12.521   4.073  1.00  0.00    -0.229 NA
HETATM    4  C   UNL     1      41.909 -11.701   4.992  1.00  0.00     0.170 C 
HETATM    5  N   UNL     1      41.438 -12.186   6.383  1.00  0.00    -0.318 N 
HETATM    6  C   UNL     1      40.388 -11.530   6.743  1.00  0.00     0.011 C 
HETATM    7  C   UNL     1      42.180 -13.403   6.795  1.00  0.00     0.168 C 
HETATM    8  S   UNL     1      41.521 -10.036   4.766  1.00  0.00    -0.086 SA
HETATM    9  C   UNL     1      40.190 -10.202   6.023  1.00  0.00     0.135 C 
HETATM   10  C   UNL     1      41.995 -14.325   5.631  1.00  0.00     0.069 C 
ENDROOT
BRANCH   6  11
HETATM   11  C   UNL     1      39.429 -12.111   7.744  1.00  0.00     0.156 C 
BRANCH  11  12
HETATM   12  C   UNL     1      39.210 -11.186   8.925  1.00  0.00     0.223 C 
HETATM   13  N   UNL     1      39.910 -11.467  10.082  1.00  0.00    -0.359 N 
HETATM   14  H   UNL     1      40.419 -12.343  10.168  1.00  0.00     0.162 HD
HETATM   15  O   UNL     1      38.384 -10.283   8.856  1.00  0.00    -0.273 OA
BRANCH  13  16
HETATM   16  C   UNL     1      39.615 -10.701  11.293  1.00  0.00     0.150 C 
BRANCH  16  17
HETATM   17  C   UNL     1      40.303 -11.225  12.569  1.00  0.00     0.254 C 
BRANCH  17  18
HETATM   18  N   UNL     1      41.092 -10.135  13.268  1.00  0.00    -0.070 N 
HETATM   19  H   UNL     1      40.571  -9.826  14.103  1.00  0.00     0.279 HD
HETATM   20  C   UNL     1      41.349  -8.900  12.412  1.00  0.00     0.235 C 
HETATM   21  C   UNL     1      42.823  -8.978  12.077  1.00  0.00     0.029 C 
HETATM   22  C   UNL     1      43.427  -9.521  13.353  1.00  0.00     0.029 C 
HETATM   23  C   UNL     1      42.458 -10.614  13.760  1.00  0.00     0.235 C 
ENDBRANCH  17  18
ENDBRANCH  16  17
ENDBRANCH  13  16
ENDBRANCH  11  12
ENDBRANCH   6  11
BRANCH   7  24
HETATM   24  C   UNL     1      43.621 -13.031   7.211  1.00  0.00    -0.009 A 
HETATM   25  C   UNL     1      43.989 -12.071   8.184  1.00  0.00     0.042 A 
HETATM   26 CL   UNL     1      42.877 -11.053   9.027  1.00  0.00    -0.084 Cl
HETATM   27  C   UNL     1      45.334 -11.862   8.523  1.00  0.00     0.024 A 
HETATM   28  C   UNL     1      46.350 -12.570   7.893  1.00  0.00     0.002 A 
HETATM   29  C   UNL     1      46.028 -13.472   6.891  1.00  0.00     0.001 A 
HETATM   30  C   UNL     1      44.691 -13.687   6.544  1.00  0.00     0.011 A 
ENDBRANCH   7  24
BRANCH  10  31
HETATM   31  C   UNL     1      41.352 -15.614   5.964  1.00  0.00     0.294 C 
HETATM   32  O   UNL     1      40.142 -15.761   5.903  1.00  0.00    -0.259 OA
BRANCH  31  33
HETATM   33  O   UNL     1      42.243 -16.414   6.581  1.00  0.00    -0.313 OA
BRANCH  33  34
HETATM   34  C   UNL     1      43.239 -17.048   5.751  1.00  0.00     0.124 C 
HETATM   35  C   UNL     1      44.460 -17.394   6.589  1.00  0.00     0.040 C 
HETATM   36  C   UNL     1      42.597 -18.299   5.166  1.00  0.00     0.040 C 
ENDBRANCH  33  34
ENDBRANCH  31  33
ENDBRANCH  10  31
TORSDOF 9
ENDMDL
MODEL 10
REMARK VINA RESULT:      -6.4      2.435      4.519
REMARK  9 active torsions:
REMARK  status: ('A' for Active; 'I' for Inactive)
REMARK    1  A    between atoms: C_6  and  C_7 
REMARK    2  A    between atoms: C_7  and  C_8 
REMARK       I    between atoms: C_8  and  N_9 
REMARK    3  A    between atoms: N_9  and  C_10 
REMARK    4  A    between atoms: C_10  and  C_11 
REMARK    5  A    between atoms: C_11  and  N_12 
REMARK    6  A    between atoms: C_19  and  C_20 
REMARK    7  A    between atoms: C_29  and  C_30 
REMARK    8  A    between atoms: C_30  and  O_31 
REMARK    9  A    between atoms: O_31  and  C_32 
ROOT
HETATM    1  C   UNL     1      40.185 -13.989   6.052  1.00  0.00     0.071 C 
HETATM    2  C   UNL     1      40.656 -14.446   4.693  1.00  0.00     0.048 C 
HETATM    3  N   UNL     1      39.635 -14.912   3.866  1.00  0.00    -0.229 NA
HETATM    4  C   UNL     1      39.848 -14.792   2.599  1.00  0.00     0.170 C 
HETATM    5  N   UNL     1      41.211 -14.328   2.035  1.00  0.00    -0.318 N 
HETATM    6  C   UNL     1      41.025 -13.483   1.078  1.00  0.00     0.011 C 
HETATM    7  C   UNL     1      42.326 -14.803   2.892  1.00  0.00     0.168 C 
HETATM    8  S   UNL     1      38.643 -14.776   1.366  1.00  0.00    -0.086 SA
HETATM    9  C   UNL     1      39.642 -13.540   0.443  1.00  0.00     0.135 C 
HETATM   10  C   UNL     1      41.932 -14.327   4.256  1.00  0.00     0.069 C 
ENDROOT
BRANCH   6  11
HETATM   11  C   UNL     1      42.095 -12.495   0.712  1.00  0.00     0.156 C 
BRANCH  11  12
HETATM   12  C   UNL     1      41.605 -11.064   0.811  1.00  0.00     0.223 C 
HETATM   13  N   UNL     1      41.233 -10.612   2.062  1.00  0.00    -0.359 N 
HETATM   14  H   UNL     1      41.151 -11.267   2.835  1.00  0.00     0.162 HD
HETATM   15  O   UNL     1      41.477 -10.384  -0.200  1.00  0.00    -0.273 OA
BRANCH  13  16
HETATM   16  C   UNL     1      40.607  -9.294   2.184  1.00  0.00     0.150 C 
BRANCH  16  17
HETATM   17  C   UNL     1      41.370  -8.302   3.084  1.00  0.00     0.254 C 
BRANCH  17  18
HETATM   18  N   UNL     1      40.719  -8.168   4.447  1.00  0.00    -0.070 N 
HETATM   19  H   UNL     1      40.800  -7.190   4.764  1.00  0.00     0.279 HD
HETATM   20  C   UNL     1      41.341  -9.047   5.527  1.00  0.00     0.235 C 
HETATM   21  C   UNL     1      40.314 -10.134   5.762  1.00  0.00     0.029 C 
HETATM   22  C   UNL     1      39.004  -9.387   5.633  1.00  0.00     0.029 C 
HETATM   23  C   UNL     1      39.226  -8.497   4.427  1.00  0.00     0.235 C 
ENDBRANCH  17  18
ENDBRANCH  16  17
ENDBRANCH  13  16
ENDBRANCH  11  12
ENDBRANCH   6  11
BRANCH   7  24
HETATM   24  C   UNL     1      42.549 -16.317   2.683  1.00  0.00    -0.009 A 
HETATM   25  C   UNL     1      42.503 -17.005   1.446  1.00  0.00     0.042 A 
HETATM   26 CL   UNL     1      42.087 -16.281  -0.065  1.00  0.00    -0.084 Cl
HETATM   27  C   UNL     1      42.785 -18.378   1.370  1.00  0.00     0.024 A 
HETATM   28  C   UNL     1      43.088 -19.110   2.511  1.00  0.00     0.002 A 
HETATM   29  C   UNL     1      43.079 -18.480   3.745  1.00  0.00     0.001 A 
HETATM   30  C   UNL     1      42.799 -17.114   3.833  1.00  0.00     0.011 A 
ENDBRANCH   7  24
BRANCH  10  31
HETATM   31  C   UNL     1      42.916 -13.435   4.904  1.00  0.00     0.294 C 
HETATM   32  O   UNL     1      42.843 -12.221   4.805  1.00  0.00    -0.259 OA
BRANCH  31  33
HETATM   33  O   UNL     1      43.974 -14.160   5.319  1.00  0.00    -0.313 OA
BRANCH  33  34
HETATM   34  C   UNL     1      44.019 -14.510   6.719  1.00  0.00     0.124 C 
HETATM   35  C   UNL     1      44.341 -15.989   6.867  1.00  0.00     0.040 C 
HETATM   36  C   UNL     1      45.095 -13.642   7.358  1.00  0.00     0.040 C 
ENDBRANCH  33  34
ENDBRANCH  31  33
ENDBRANCH  10  31
TORSDOF 9
ENDMDL
