MODEL 1
REMARK VINA RESULT:      -7.9      0.000      0.000
REMARK  2 active torsions:
REMARK  status: ('A' for Active; 'I' for Inactive)
REMARK    1  A    between atoms: C_11  and  N_12 
REMARK       I    between atoms: N_12  and  C_13 
REMARK    2  A    between atoms: C_13  and  C_14 
ROOT
HETATM    1  N   UNL     1      41.811 -14.411   2.359  1.00  0.00    -0.351 N 
HETATM    2  C   UNL     1      42.978 -14.384   3.108  1.00  0.00     0.273 C 
HETATM    3  O   UNL     1      43.699 -13.396   3.190  1.00  0.00    -0.266 OA
HETATM    4  H   UNL     1      41.490 -15.373   2.230  1.00  0.00     0.163 HD
ENDROOT
BRANCH   1   5
HETATM    5  C   UNL     1      41.456 -13.371   1.414  1.00  0.00     0.089 C 
HETATM    6  C   UNL     1      39.983 -12.945   1.455  1.00  0.00     0.063 C 
HETATM    7  C   UNL     1      38.994 -13.969   0.888  1.00  0.00     0.121 C 
HETATM    8  N   UNL     1      39.469 -14.429  -0.475  1.00  0.00    -0.059 N 
HETATM    9  C   UNL     1      38.741 -15.174   1.799  1.00  0.00     0.046 C 
HETATM   10  C   UNL     1      37.633 -13.278   0.652  1.00  0.00     0.046 C 
HETATM   11  C   UNL     1      40.924 -14.781  -0.701  1.00  0.00     0.121 C 
HETATM   12  H   UNL     1      39.233 -13.678  -1.140  1.00  0.00     0.279 HD
HETATM   13  H   UNL     1      38.885 -15.223  -0.775  1.00  0.00     0.279 HD
HETATM   14  C   UNL     1      41.191 -16.227  -0.265  1.00  0.00     0.046 C 
HETATM   15  C   UNL     1      41.144 -14.715  -2.227  1.00  0.00     0.046 C 
HETATM   16  C   UNL     1      41.840 -13.748  -0.021  1.00  0.00     0.063 C 
ENDBRANCH   1   5
BRANCH   2  17
HETATM   17  C   UNL     1      43.240 -15.656   3.794  1.00  0.00     0.157 A 
HETATM   18  N   UNL     1      43.217 -15.727   5.145  1.00  0.00    -0.168 NA
HETATM   19  N   UNL     1      43.509 -17.021   5.398  1.00  0.00    -0.277 N 
HETATM   20  H   UNL     1      43.553 -17.330   6.362  1.00  0.00     0.189 HD
HETATM   21  C   UNL     1      43.716 -17.781   4.281  1.00  0.00     0.063 A 
HETATM   22  C   UNL     1      43.539 -16.918   3.206  1.00  0.00     0.028 A 
HETATM   23  C   UNL     1      44.036 -19.134   4.130  1.00  0.00     0.032 A 
HETATM   24  C   UNL     1      43.681 -17.422   1.899  1.00  0.00     0.016 A 
HETATM   25  C   UNL     1      43.997 -18.774   1.724  1.00  0.00     0.001 A 
HETATM   26  C   UNL     1      44.174 -19.613   2.822  1.00  0.00     0.002 A 
ENDBRANCH   2  17
TORSDOF 2
ENDMDL
MODEL 2
REMARK VINA RESULT:      -7.8      2.248      3.457
REMARK  2 active torsions:
REMARK  status: ('A' for Active; 'I' for Inactive)
REMARK    1  A    between atoms: C_11  and  N_12 
REMARK       I    between atoms: N_12  and  C_13 
REMARK    2  A    between atoms: C_13  and  C_14 
ROOT
HETATM    1  N   UNL     1      43.310 -15.976   3.984  1.00  0.00    -0.351 N 
HETATM    2  C   UNL     1      43.818 -16.918   3.100  1.00  0.00     0.273 C 
HETATM    3  O   UNL     1      43.987 -16.695   1.908  1.00  0.00    -0.266 OA
HETATM    4  H   UNL     1      43.028 -16.421   4.859  1.00  0.00     0.163 HD
ENDROOT
BRANCH   1   5
HETATM    5  C   UNL     1      42.708 -14.732   3.549  1.00  0.00     0.089 C 
HETATM    6  C   UNL     1      42.001 -13.942   4.657  1.00  0.00     0.063 C 
HETATM    7  C   UNL     1      40.683 -14.551   5.150  1.00  0.00     0.121 C 
HETATM    8  N   UNL     1      39.802 -14.877   3.961  1.00  0.00    -0.059 N 
HETATM    9  C   UNL     1      40.852 -15.784   6.043  1.00  0.00     0.046 C 
HETATM   10  C   UNL     1      39.914 -13.493   5.970  1.00  0.00     0.046 C 
HETATM   11  C   UNL     1      40.383 -15.561   2.741  1.00  0.00     0.121 C 
HETATM   12  H   UNL     1      39.391 -13.988   3.643  1.00  0.00     0.279 HD
HETATM   13  H   UNL     1      38.993 -15.423   4.293  1.00  0.00     0.279 HD
HETATM   14  C   UNL     1      40.430 -17.078   2.957  1.00  0.00     0.046 C 
HETATM   15  C   UNL     1      39.389 -15.292   1.592  1.00  0.00     0.046 C 
HETATM   16  C   UNL     1      41.745 -14.943   2.377  1.00  0.00     0.063 C 
ENDBRANCH   1   5
BRANCH   2  17
HETATM   17  C   UNL     1      44.137 -18.194   3.756  1.00  0.00     0.157 A 
HETATM   18  N   UNL     1      44.512 -18.225   5.055  1.00  0.00    -0.168 NA
HETATM   19  N   UNL     1      44.728 -19.536   5.289  1.00  0.00    -0.277 N 
HETATM   20  H   UNL     1      45.026 -19.823   6.216  1.00  0.00     0.189 HD
HETATM   21  C   UNL     1      44.511 -20.346   4.210  1.00  0.00     0.063 A 
HETATM   22  C   UNL     1      44.112 -19.497   3.184  1.00  0.00     0.028 A 
HETATM   23  C   UNL     1      44.626 -21.731   4.054  1.00  0.00     0.032 A 
HETATM   24  C   UNL     1      43.802 -20.050   1.926  1.00  0.00     0.016 A 
HETATM   25  C   UNL     1      43.908 -21.434   1.749  1.00  0.00     0.001 A 
HETATM   26  C   UNL     1      44.316 -22.258   2.796  1.00  0.00     0.002 A 
ENDBRANCH   2  17
TORSDOF 2
ENDMDL
MODEL 3
REMARK VINA RESULT:      -7.7      2.605      3.706
REMARK  2 active torsions:
REMARK  status: ('A' for Active; 'I' for Inactive)
REMARK    1  A    between atoms: C_11  and  N_12 
REMARK       I    between atoms: N_12  and  C_13 
REMARK    2  A    between atoms: C_13  and  C_14 
ROOT
HETATM    1  N   UNL     1      43.055 -14.821   5.767  1.00  0.00    -0.351 N 
HETATM    2  C   UNL     1      44.080 -15.182   6.630  1.00  0.00     0.273 C 
HETATM    3  O   UNL     1      45.015 -14.439   6.907  1.00  0.00    -0.266 OA
HETATM    4  H   UNL     1      42.516 -15.643   5.488  1.00  0.00     0.163 HD
ENDROOT
BRANCH   1   5
HETATM    5  C   UNL     1      43.111 -13.643   4.927  1.00  0.00     0.089 C 
HETATM    6  C   UNL     1      41.970 -12.642   5.152  1.00  0.00     0.063 C 
HETATM    7  C   UNL     1      40.598 -13.095   4.640  1.00  0.00     0.121 C 
HETATM    8  N   UNL     1      40.727 -13.577   3.209  1.00  0.00    -0.059 N 
HETATM    9  C   UNL     1      39.922 -14.164   5.503  1.00  0.00     0.046 C 
HETATM   10  C   UNL     1      39.651 -11.876   4.592  1.00  0.00     0.046 C 
HETATM   11  C   UNL     1      41.870 -14.485   2.806  1.00  0.00     0.121 C 
HETATM   12  H   UNL     1      40.786 -12.736   2.616  1.00  0.00     0.279 HD
HETATM   13  H   UNL     1      39.839 -14.018   2.931  1.00  0.00     0.279 HD
HETATM   14  C   UNL     1      41.524 -15.943   3.129  1.00  0.00     0.046 C 
HETATM   15  C   UNL     1      41.982 -14.370   1.271  1.00  0.00     0.046 C 
HETATM   16  C   UNL     1      43.187 -14.004   3.440  1.00  0.00     0.063 C 
ENDBRANCH   1   5
BRANCH   2  17
HETATM   17  C   UNL     1      43.910 -16.534   7.177  1.00  0.00     0.157 A 
HETATM   18  N   UNL     1      43.586 -16.715   8.478  1.00  0.00    -0.168 NA
HETATM   19  N   UNL     1      43.532 -18.057   8.606  1.00  0.00    -0.277 N 
HETATM   20  H   UNL     1      43.302 -18.451   9.512  1.00  0.00     0.189 HD
HETATM   21  C   UNL     1      43.803 -18.746   7.457  1.00  0.00     0.063 A 
HETATM   22  C   UNL     1      44.049 -17.775   6.493  1.00  0.00     0.028 A 
HETATM   23  C   UNL     1      43.849 -20.117   7.189  1.00  0.00     0.032 A 
HETATM   24  C   UNL     1      44.353 -18.183   5.179  1.00  0.00     0.016 A 
HETATM   25  C   UNL     1      44.401 -19.551   4.888  1.00  0.00     0.001 A 
HETATM   26  C   UNL     1      44.155 -20.500   5.879  1.00  0.00     0.002 A 
ENDBRANCH   2  17
TORSDOF 2
ENDMDL
MODEL 4
REMARK VINA RESULT:      -7.6      3.526      5.481
REMARK  2 active torsions:
REMARK  status: ('A' for Active; 'I' for Inactive)
REMARK    1  A    between atoms: C_11  and  N_12 
REMARK       I    between atoms: N_12  and  C_13 
REMARK    2  A    between atoms: C_13  and  C_14 
ROOT
HETATM    1  N   UNL     1      43.436 -17.047   3.594  1.00  0.00    -0.351 N 
HETATM    2  C   UNL     1      43.987 -17.576   2.435  1.00  0.00     0.273 C 
HETATM    3  O   UNL     1      44.442 -16.882   1.533  1.00  0.00    -0.266 OA
HETATM    4  H   UNL     1      42.910 -17.762   4.099  1.00  0.00     0.163 HD
ENDROOT
BRANCH   1   5
HETATM    5  C   UNL     1      43.124 -15.641   3.748  1.00  0.00     0.089 C 
HETATM    6  C   UNL     1      44.016 -14.893   4.747  1.00  0.00     0.063 C 
HETATM    7  C   UNL     1      43.769 -15.236   6.221  1.00  0.00     0.121 C 
HETATM    8  N   UNL     1      42.287 -15.142   6.520  1.00  0.00    -0.059 N 
HETATM    9  C   UNL     1      44.314 -16.601   6.652  1.00  0.00     0.046 C 
HETATM   10  C   UNL     1      44.449 -14.170   7.107  1.00  0.00     0.046 C 
HETATM   11  C   UNL     1      41.273 -15.738   5.567  1.00  0.00     0.121 C 
HETATM   12  H   UNL     1      42.065 -14.139   6.609  1.00  0.00     0.279 HD
HETATM   13  H   UNL     1      42.119 -15.521   7.463  1.00  0.00     0.279 HD
HETATM   14  C   UNL     1      41.102 -17.235   5.847  1.00  0.00     0.046 C 
HETATM   15  C   UNL     1      39.929 -15.053   5.895  1.00  0.00     0.046 C 
HETATM   16  C   UNL     1      41.652 -15.418   4.110  1.00  0.00     0.063 C 
ENDBRANCH   1   5
BRANCH   2  17
HETATM   17  C   UNL     1      43.973 -19.044   2.421  1.00  0.00     0.157 A 
HETATM   18  N   UNL     1      43.590 -19.719   1.312  1.00  0.00    -0.168 NA
HETATM   19  N   UNL     1      43.694 -21.013   1.679  1.00  0.00    -0.277 N 
HETATM   20  H   UNL     1      43.456 -21.731   1.004  1.00  0.00     0.189 HD
HETATM   21  C   UNL     1      44.124 -21.204   2.962  1.00  0.00     0.063 A 
HETATM   22  C   UNL     1      44.326 -19.930   3.479  1.00  0.00     0.028 A 
HETATM   23  C   UNL     1      44.351 -22.371   3.699  1.00  0.00     0.032 A 
HETATM   24  C   UNL     1      44.786 -19.797   4.804  1.00  0.00     0.016 A 
HETATM   25  C   UNL     1      45.023 -20.953   5.558  1.00  0.00     0.001 A 
HETATM   26  C   UNL     1      44.806 -22.217   5.013  1.00  0.00     0.002 A 
ENDBRANCH   2  17
TORSDOF 2
ENDMDL
MODEL 5
REMARK VINA RESULT:      -7.3      2.135      3.370
REMARK  2 active torsions:
REMARK  status: ('A' for Active; 'I' for Inactive)
REMARK    1  A    between atoms: C_11  and  N_12 
REMARK       I    between atoms: N_12  and  C_13 
REMARK    2  A    between atoms: C_13  and  C_14 
ROOT
HETATM    1  N   UNL     1      41.120 -16.709   3.869  1.00  0.00    -0.351 N 
HETATM    2  C   UNL     1      41.276 -17.225   5.147  1.00  0.00     0.273 C 
HETATM    3  O   UNL     1      40.507 -16.978   6.068  1.00  0.00    -0.266 OA
HETATM    4  H   UNL     1      41.975 -16.837   3.323  1.00  0.00     0.163 HD
ENDROOT
BRANCH   1   5
HETATM    5  C   UNL     1      40.187 -15.646   3.557  1.00  0.00     0.089 C 
HETATM    6  C   UNL     1      39.829 -15.524   2.070  1.00  0.00     0.063 C 
HETATM    7  C   UNL     1      40.946 -14.974   1.176  1.00  0.00     0.121 C 
HETATM    8  N   UNL     1      41.501 -13.703   1.787  1.00  0.00    -0.059 N 
HETATM    9  C   UNL     1      42.076 -15.968   0.893  1.00  0.00     0.046 C 
HETATM   10  C   UNL     1      40.345 -14.562  -0.185  1.00  0.00     0.046 C 
HETATM   11  C   UNL     1      41.803 -13.634   3.269  1.00  0.00     0.121 C 
HETATM   12  H   UNL     1      40.825 -12.954   1.579  1.00  0.00     0.279 HD
HETATM   13  H   UNL     1      42.346 -13.431   1.263  1.00  0.00     0.279 HD
HETATM   14  C   UNL     1      43.189 -14.222   3.555  1.00  0.00     0.046 C 
HETATM   15  C   UNL     1      41.862 -12.131   3.619  1.00  0.00     0.046 C 
HETATM   16  C   UNL     1      40.670 -14.289   4.079  1.00  0.00     0.063 C 
ENDBRANCH   1   5
BRANCH   2  17
HETATM   17  C   UNL     1      42.448 -18.103   5.263  1.00  0.00     0.157 A 
HETATM   18  N   UNL     1      43.045 -18.300   6.462  1.00  0.00    -0.168 NA
HETATM   19  N   UNL     1      44.066 -19.134   6.173  1.00  0.00    -0.277 N 
HETATM   20  H   UNL     1      44.676 -19.436   6.924  1.00  0.00     0.189 HD
HETATM   21  C   UNL     1      44.155 -19.482   4.854  1.00  0.00     0.063 A 
HETATM   22  C   UNL     1      43.100 -18.829   4.226  1.00  0.00     0.028 A 
HETATM   23  C   UNL     1      45.056 -20.305   4.173  1.00  0.00     0.032 A 
HETATM   24  C   UNL     1      42.921 -19.003   2.840  1.00  0.00     0.016 A 
HETATM   25  C   UNL     1      43.810 -19.825   2.139  1.00  0.00     0.001 A 
HETATM   26  C   UNL     1      44.861 -20.463   2.796  1.00  0.00     0.002 A 
ENDBRANCH   2  17
TORSDOF 2
ENDMDL
MODEL 6
REMARK VINA RESULT:      -7.3      2.224      6.470
REMARK  2 active torsions:
REMARK  status: ('A' for Active; 'I' for Inactive)
REMARK    1  A    between atoms: C_11  and  N_12 
REMARK       I    between atoms: N_12  and  C_13 
REMARK    2  A    between atoms: C_13  and  C_14 
ROOT
HETATM    1  N   UNL     1      41.514 -15.913   0.965  1.00  0.00    -0.351 N 
HETATM    2  C   UNL     1      40.618 -15.043   0.361  1.00  0.00     0.273 C 
HETATM    3  O   UNL     1      39.529 -14.760   0.845  1.00  0.00    -0.266 OA
HETATM    4  H   UNL     1      42.241 -16.195   0.304  1.00  0.00     0.163 HD
ENDROOT
BRANCH   1   5
HETATM    5  C   UNL     1      41.159 -16.754   2.090  1.00  0.00     0.089 C 
HETATM    6  C   UNL     1      41.326 -16.089   3.463  1.00  0.00     0.063 C 
HETATM    7  C   UNL     1      42.776 -15.885   3.914  1.00  0.00     0.121 C 
HETATM    8  N   UNL     1      43.542 -17.183   3.756  1.00  0.00    -0.059 N 
HETATM    9  C   UNL     1      43.507 -14.745   3.198  1.00  0.00     0.046 C 
HETATM   10  C   UNL     1      42.793 -15.564   5.425  1.00  0.00     0.046 C 
HETATM   11  C   UNL     1      43.395 -18.011   2.497  1.00  0.00     0.121 C 
HETATM   12  H   UNL     1      43.272 -17.785   4.547  1.00  0.00     0.279 HD
HETATM   13  H   UNL     1      44.542 -16.994   3.915  1.00  0.00     0.279 HD
HETATM   14  C   UNL     1      44.329 -17.478   1.403  1.00  0.00     0.046 C 
HETATM   15  C   UNL     1      43.881 -19.429   2.863  1.00  0.00     0.046 C 
HETATM   16  C   UNL     1      41.918 -18.084   2.071  1.00  0.00     0.063 C 
ENDBRANCH   1   5
BRANCH   2  17
HETATM   17  C   UNL     1      41.126 -14.496  -0.904  1.00  0.00     0.157 A 
HETATM   18  N   UNL     1      41.076 -15.229  -2.041  1.00  0.00    -0.168 NA
HETATM   19  N   UNL     1      41.631 -14.417  -2.964  1.00  0.00    -0.277 N 
HETATM   20  H   UNL     1      41.710 -14.749  -3.920  1.00  0.00     0.189 HD
HETATM   21  C   UNL     1      42.035 -13.204  -2.481  1.00  0.00     0.063 A 
HETATM   22  C   UNL     1      41.710 -13.217  -1.129  1.00  0.00     0.028 A 
HETATM   23  C   UNL     1      42.644 -12.114  -3.109  1.00  0.00     0.032 A 
HETATM   24  C   UNL     1      42.000 -12.081  -0.349  1.00  0.00     0.016 A 
HETATM   25  C   UNL     1      42.607 -10.977  -0.959  1.00  0.00     0.001 A 
HETATM   26  C   UNL     1      42.925 -10.996  -2.315  1.00  0.00     0.002 A 
ENDBRANCH   2  17
TORSDOF 2
ENDMDL
MODEL 7
REMARK VINA RESULT:      -7.3      2.593      3.676
REMARK  2 active torsions:
REMARK  status: ('A' for Active; 'I' for Inactive)
REMARK    1  A    between atoms: C_11  and  N_12 
REMARK       I    between atoms: N_12  and  C_13 
REMARK    2  A    between atoms: C_13  and  C_14 
ROOT
HETATM    1  N   UNL     1      43.529 -15.849   4.871  1.00  0.00    -0.351 N 
HETATM    2  C   UNL     1      44.047 -16.656   5.874  1.00  0.00     0.273 C 
HETATM    3  O   UNL     1      44.346 -16.234   6.985  1.00  0.00    -0.266 OA
HETATM    4  H   UNL     1      43.570 -16.328   3.969  1.00  0.00     0.163 HD
ENDROOT
BRANCH   1   5
HETATM    5  C   UNL     1      43.518 -14.403   4.950  1.00  0.00     0.089 C 
HETATM    6  C   UNL     1      42.419 -13.819   5.848  1.00  0.00     0.063 C 
HETATM    7  C   UNL     1      40.997 -13.923   5.286  1.00  0.00     0.121 C 
HETATM    8  N   UNL     1      40.978 -13.402   3.863  1.00  0.00    -0.059 N 
HETATM    9  C   UNL     1      40.394 -15.330   5.347  1.00  0.00     0.046 C 
HETATM   10  C   UNL     1      40.068 -12.990   6.092  1.00  0.00     0.046 C 
HETATM   11  C   UNL     1      42.062 -13.803   2.885  1.00  0.00     0.121 C 
HETATM   12  H   UNL     1      40.989 -12.373   3.923  1.00  0.00     0.279 HD
HETATM   13  H   UNL     1      40.059 -13.618   3.448  1.00  0.00     0.279 HD
HETATM   14  C   UNL     1      41.728 -15.160   2.255  1.00  0.00     0.046 C 
HETATM   15  C   UNL     1      42.023 -12.751   1.756  1.00  0.00     0.046 C 
HETATM   16  C   UNL     1      43.442 -13.755   3.563  1.00  0.00     0.063 C 
ENDBRANCH   1   5
BRANCH   2  17
HETATM   17  C   UNL     1      44.181 -18.058   5.460  1.00  0.00     0.157 A 
HETATM   18  N   UNL     1      44.504 -19.015   6.361  1.00  0.00    -0.168 NA
HETATM   19  N   UNL     1      44.545 -20.143   5.622  1.00  0.00    -0.277 N 
HETATM   20  H   UNL     1      44.772 -21.018   6.082  1.00  0.00     0.189 HD
HETATM   21  C   UNL     1      44.264 -19.961   4.297  1.00  0.00     0.063 A 
HETATM   22  C   UNL     1      44.011 -18.602   4.155  1.00  0.00     0.028 A 
HETATM   23  C   UNL     1      44.210 -20.863   3.230  1.00  0.00     0.032 A 
HETATM   24  C   UNL     1      43.678 -18.101   2.881  1.00  0.00     0.016 A 
HETATM   25  C   UNL     1      43.614 -18.988   1.800  1.00  0.00     0.001 A 
HETATM   26  C   UNL     1      43.879 -20.345   1.973  1.00  0.00     0.002 A 
ENDBRANCH   2  17
TORSDOF 2
ENDMDL
MODEL 8
REMARK VINA RESULT:      -7.3      2.743      4.077
REMARK  2 active torsions:
REMARK  status: ('A' for Active; 'I' for Inactive)
REMARK    1  A    between atoms: C_11  and  N_12 
REMARK       I    between atoms: N_12  and  C_13 
REMARK    2  A    between atoms: C_13  and  C_14 
ROOT
HETATM    1  N   UNL     1      41.363 -15.710   4.178  1.00  0.00    -0.351 N 
HETATM    2  C   UNL     1      41.439 -16.914   3.493  1.00  0.00     0.273 C 
HETATM    3  O   UNL     1      40.662 -17.226   2.599  1.00  0.00    -0.266 OA
HETATM    4  H   UNL     1      41.936 -15.742   5.024  1.00  0.00     0.163 HD
ENDROOT
BRANCH   1   5
HETATM    5  C   UNL     1      40.228 -14.816   4.077  1.00  0.00     0.089 C 
HETATM    6  C   UNL     1      40.227 -13.921   2.831  1.00  0.00     0.063 C 
HETATM    7  C   UNL     1      41.268 -12.797   2.836  1.00  0.00     0.121 C 
HETATM    8  N   UNL     1      41.185 -12.038   4.145  1.00  0.00    -0.059 N 
HETATM    9  C   UNL     1      42.705 -13.265   2.583  1.00  0.00     0.046 C 
HETATM   10  C   UNL     1      40.916 -11.778   1.732  1.00  0.00     0.046 C 
HETATM   11  C   UNL     1      41.071 -12.784   5.458  1.00  0.00     0.121 C 
HETATM   12  H   UNL     1      40.365 -11.418   4.077  1.00  0.00     0.279 HD
HETATM   13  H   UNL     1      41.985 -11.391   4.200  1.00  0.00     0.279 HD
HETATM   14  C   UNL     1      42.460 -13.212   5.945  1.00  0.00     0.046 C 
HETATM   15  C   UNL     1      40.521 -11.764   6.478  1.00  0.00     0.046 C 
HETATM   16  C   UNL     1      40.072 -13.947   5.330  1.00  0.00     0.063 C 
ENDBRANCH   1   5
BRANCH   2  17
HETATM   17  C   UNL     1      42.553 -17.755   3.949  1.00  0.00     0.157 A 
HETATM   18  N   UNL     1      43.179 -17.494   5.120  1.00  0.00    -0.168 NA
HETATM   19  N   UNL     1      44.130 -18.448   5.189  1.00  0.00    -0.277 N 
HETATM   20  H   UNL     1      44.746 -18.465   5.995  1.00  0.00     0.189 HD
HETATM   21  C   UNL     1      44.148 -19.307   4.126  1.00  0.00     0.063 A 
HETATM   22  C   UNL     1      43.117 -18.886   3.293  1.00  0.00     0.028 A 
HETATM   23  C   UNL     1      44.967 -20.402   3.834  1.00  0.00     0.032 A 
HETATM   24  C   UNL     1      42.876 -19.593   2.099  1.00  0.00     0.016 A 
HETATM   25  C   UNL     1      43.682 -20.695   1.789  1.00  0.00     0.001 A 
HETATM   26  C   UNL     1      44.711 -21.089   2.642  1.00  0.00     0.002 A 
ENDBRANCH   2  17
TORSDOF 2
ENDMDL
MODEL 9
REMARK VINA RESULT:      -7.1      2.483      3.958
REMARK  2 active torsions:
REMARK  status: ('A' for Active; 'I' for Inactive)
REMARK    1  A    between atoms: C_11  and  N_12 
REMARK       I    between atoms: N_12  and  C_13 
REMARK    2  A    between atoms: C_13  and  C_14 
ROOT
HETATM    1  N   UNL     1      43.343 -16.288   3.668  1.00  0.00    -0.351 N 
HETATM    2  C   UNL     1      43.821 -17.407   4.335  1.00  0.00     0.273 C 
HETATM    3  O   UNL     1      44.160 -17.391   5.512  1.00  0.00    -0.266 OA
HETATM    4  H   UNL     1      43.342 -16.445   2.658  1.00  0.00     0.163 HD
ENDROOT
BRANCH   1   5
HETATM    5  C   UNL     1      43.424 -14.950   4.216  1.00  0.00     0.089 C 
HETATM    6  C   UNL     1      42.375 -14.632   5.289  1.00  0.00     0.063 C 
HETATM    7  C   UNL     1      40.943 -14.465   4.768  1.00  0.00     0.121 C 
HETATM    8  N   UNL     1      40.941 -13.505   3.595  1.00  0.00    -0.059 N 
HETATM    9  C   UNL     1      40.253 -15.777   4.384  1.00  0.00     0.046 C 
HETATM   10  C   UNL     1      40.083 -13.797   5.863  1.00  0.00     0.046 C 
HETATM   11  C   UNL     1      41.987 -13.624   2.507  1.00  0.00     0.121 C 
HETATM   12  H   UNL     1      41.019 -12.556   3.988  1.00  0.00     0.279 HD
HETATM   13  H   UNL     1      40.007 -13.521   3.161  1.00  0.00     0.279 HD
HETATM   14  C   UNL     1      41.562 -14.677   1.478  1.00  0.00     0.046 C 
HETATM   15  C   UNL     1      42.004 -12.259   1.785  1.00  0.00     0.046 C 
HETATM   16  C   UNL     1      43.375 -13.880   3.120  1.00  0.00     0.063 C 
ENDBRANCH   1   5
BRANCH   2  17
HETATM   17  C   UNL     1      43.860 -18.601   3.480  1.00  0.00     0.157 A 
HETATM   18  N   UNL     1      43.522 -18.523   2.172  1.00  0.00    -0.168 NA
HETATM   19  N   UNL     1      43.666 -19.791   1.733  1.00  0.00    -0.277 N 
HETATM   20  H   UNL     1      43.466 -19.995   0.760  1.00  0.00     0.189 HD
HETATM   21  C   UNL     1      44.077 -20.676   2.689  1.00  0.00     0.063 A 
HETATM   22  C   UNL     1      44.224 -19.927   3.850  1.00  0.00     0.028 A 
HETATM   23  C   UNL     1      44.332 -22.050   2.630  1.00  0.00     0.032 A 
HETATM   24  C   UNL     1      44.654 -20.571   5.026  1.00  0.00     0.016 A 
HETATM   25  C   UNL     1      44.918 -21.945   4.989  1.00  0.00     0.001 A 
HETATM   26  C   UNL     1      44.757 -22.671   3.810  1.00  0.00     0.002 A 
ENDBRANCH   2  17
TORSDOF 2
ENDMDL
MODEL 10
REMARK VINA RESULT:      -7.1      2.149      6.150
REMARK  2 active torsions:
REMARK  status: ('A' for Active; 'I' for Inactive)
REMARK    1  A    between atoms: C_11  and  N_12 
REMARK       I    between atoms: N_12  and  C_13 
REMARK    2  A    between atoms: C_13  and  C_14 
ROOT
HETATM    1  N   UNL     1      41.528 -15.640   1.448  1.00  0.00    -0.351 N 
HETATM    2  C   UNL     1      40.745 -14.523   1.194  1.00  0.00     0.273 C 
HETATM    3  O   UNL     1      39.600 -14.398   1.610  1.00  0.00    -0.266 OA
HETATM    4  H   UNL     1      42.341 -15.657   0.830  1.00  0.00     0.163 HD
ENDROOT
BRANCH   1   5
HETATM    5  C   UNL     1      40.995 -16.862   2.015  1.00  0.00     0.089 C 
HETATM    6  C   UNL     1      40.953 -16.891   3.548  1.00  0.00     0.063 C 
HETATM    7  C   UNL     1      42.317 -17.021   4.234  1.00  0.00     0.121 C 
HETATM    8  N   UNL     1      43.087 -18.169   3.613  1.00  0.00    -0.059 N 
HETATM    9  C   UNL     1      43.160 -15.742   4.213  1.00  0.00     0.046 C 
HETATM   10  C   UNL     1      42.103 -17.405   5.714  1.00  0.00     0.046 C 
HETATM   11  C   UNL     1      43.130 -18.338   2.109  1.00  0.00     0.121 C 
HETATM   12  H   UNL     1      42.692 -19.037   4.004  1.00  0.00     0.279 HD
HETATM   13  H   UNL     1      44.052 -18.148   3.973  1.00  0.00     0.279 HD
HETATM   14  C   UNL     1      44.226 -17.451   1.509  1.00  0.00     0.046 C 
HETATM   15  C   UNL     1      43.540 -19.805   1.860  1.00  0.00     0.046 C 
HETATM   16  C   UNL     1      41.736 -18.101   1.501  1.00  0.00     0.063 C 
ENDBRANCH   1   5
BRANCH   2  17
HETATM   17  C   UNL     1      41.446 -13.513   0.389  1.00  0.00     0.157 A 
HETATM   18  N   UNL     1      42.154 -12.527   0.987  1.00  0.00    -0.168 NA
HETATM   19  N   UNL     1      42.630 -11.807  -0.051  1.00  0.00    -0.277 N 
HETATM   20  H   UNL     1      43.205 -10.994   0.143  1.00  0.00     0.189 HD
HETATM   21  C   UNL     1      42.265 -12.280  -1.280  1.00  0.00     0.063 A 
HETATM   22  C   UNL     1      41.492 -13.407  -1.030  1.00  0.00     0.028 A 
HETATM   23  C   UNL     1      42.549 -11.820  -2.570  1.00  0.00     0.032 A 
HETATM   24  C   UNL     1      40.971 -14.130  -2.120  1.00  0.00     0.016 A 
HETATM   25  C   UNL     1      41.245 -13.689  -3.420  1.00  0.00     0.001 A 
HETATM   26  C   UNL     1      42.019 -12.551  -3.638  1.00  0.00     0.002 A 
ENDBRANCH   2  17
TORSDOF 2
ENDMDL
