MODEL 1
REMARK VINA RESULT:      -8.1      0.000      0.000
REMARK  3 active torsions:
REMARK  status: ('A' for Active; 'I' for Inactive)
REMARK    1  A    between atoms: C_9  and  C_10 
REMARK    2  A    between atoms: C_16  and  C_17 
REMARK       I    between atoms: C_17  and  N_18 
REMARK    3  A    between atoms: N_18  and  C_19 
ROOT
HETATM    1  C   UNL     1      41.273 -16.419   0.275  1.00  0.00     0.070 C 
HETATM    2  C   UNL     1      41.622 -15.648   1.523  1.00  0.00     0.037 C 
HETATM    3  N   UNL     1      40.921 -14.461   1.712  1.00  0.00    -0.191 N 
HETATM    4  C   UNL     1      41.262 -13.549   2.646  1.00  0.00     0.735 A 
HETATM    5  N   UNL     1      42.252 -13.846   3.540  1.00  0.00    -0.092 N 
HETATM    6  N   UNL     1      42.486 -12.796   4.341  1.00  0.00     0.012 NA
HETATM    7  N   UNL     1      41.606 -11.878   3.953  1.00  0.00     0.033 NA
HETATM    8  N   UNL     1      40.837 -12.335   2.897  1.00  0.00     0.030 NA
HETATM    9  C   UNL     1      42.980 -15.111   3.585  1.00  0.00     0.199 C 
HETATM   10  C   UNL     1      42.593 -16.000   2.403  1.00  0.00     0.062 C 
HETATM   11  H   UNL     1      40.255 -14.187   0.992  1.00  0.00     0.184 HD
ENDROOT
BRANCH  10  12
HETATM   12  C   UNL     1      43.445 -17.210   2.260  1.00  0.00     0.256 C 
HETATM   13  N   UNL     1      42.953 -18.311   2.922  1.00  0.00    -0.322 N 
HETATM   14  H   UNL     1      42.099 -18.198   3.453  1.00  0.00     0.169 HD
HETATM   15  O   UNL     1      44.499 -17.120   1.644  1.00  0.00    -0.267 OA
BRANCH  13  16
HETATM   16  C   UNL     1      43.527 -19.601   2.942  1.00  0.00     0.052 A 
HETATM   17  C   UNL     1      44.328 -20.108   3.961  1.00  0.00     0.145 A 
HETATM   18  N   UNL     1      44.881 -21.348   3.949  1.00  0.00    -0.271 NA
HETATM   19  C   UNL     1      44.628 -22.120   2.874  1.00  0.00     0.116 A 
HETATM   20  C   UNL     1      43.846 -21.713   1.808  1.00  0.00     0.021 A 
HETATM   21  C   UNL     1      43.287 -20.436   1.847  1.00  0.00     0.032 A 
ENDBRANCH  13  16
ENDBRANCH  10  12
BRANCH   9  22
HETATM   22  C   UNL     1      42.761 -15.815   4.914  1.00  0.00    -0.011 A 
HETATM   23  C   UNL     1      41.498 -16.214   5.349  1.00  0.00     0.125 A 
HETATM   24  N   UNL     1      41.269 -16.891   6.495  1.00  0.00    -0.272 NA
HETATM   25  C   UNL     1      42.343 -17.172   7.264  1.00  0.00     0.116 A 
HETATM   26  C   UNL     1      43.639 -16.825   6.927  1.00  0.00     0.020 A 
HETATM   27  C   UNL     1      43.850 -16.144   5.732  1.00  0.00     0.012 A 
ENDBRANCH   9  22
TORSDOF 3
ENDMDL
MODEL 2
REMARK VINA RESULT:      -7.9      1.806      3.800
REMARK  3 active torsions:
REMARK  status: ('A' for Active; 'I' for Inactive)
REMARK    1  A    between atoms: C_9  and  C_10 
REMARK    2  A    between atoms: C_16  and  C_17 
REMARK       I    between atoms: C_17  and  N_18 
REMARK    3  A    between atoms: N_18  and  C_19 
ROOT
HETATM    1  C   UNL     1      44.329 -15.897   6.773  1.00  0.00     0.070 C 
HETATM    2  C   UNL     1      43.187 -15.277   6.007  1.00  0.00     0.037 C 
HETATM    3  N   UNL     1      42.971 -13.922   6.241  1.00  0.00    -0.191 N 
HETATM    4  C   UNL     1      41.869 -13.270   5.816  1.00  0.00     0.735 A 
HETATM    5  N   UNL     1      40.980 -13.920   5.007  1.00  0.00    -0.092 N 
HETATM    6  N   UNL     1      39.926 -13.132   4.746  1.00  0.00     0.012 NA
HETATM    7  N   UNL     1      40.203 -11.990   5.368  1.00  0.00     0.033 NA
HETATM    8  N   UNL     1      41.411 -12.064   6.039  1.00  0.00     0.030 NA
HETATM    9  C   UNL     1      41.136 -15.293   4.533  1.00  0.00     0.199 C 
HETATM   10  C   UNL     1      42.348 -15.956   5.186  1.00  0.00     0.062 C 
HETATM   11  H   UNL     1      43.570 -13.461   6.923  1.00  0.00     0.184 HD
ENDROOT
BRANCH  10  12
HETATM   12  C   UNL     1      42.447 -17.415   4.919  1.00  0.00     0.256 C 
HETATM   13  N   UNL     1      43.436 -17.745   4.021  1.00  0.00    -0.322 N 
HETATM   14  H   UNL     1      43.972 -16.990   3.613  1.00  0.00     0.169 HD
HETATM   15  O   UNL     1      41.639 -18.168   5.447  1.00  0.00    -0.267 OA
BRANCH  13  16
HETATM   16  C   UNL     1      43.783 -19.047   3.599  1.00  0.00     0.052 A 
HETATM   17  C   UNL     1      44.527 -19.961   4.340  1.00  0.00     0.145 A 
HETATM   18  N   UNL     1      44.860 -21.203   3.904  1.00  0.00    -0.271 NA
HETATM   19  C   UNL     1      44.437 -21.553   2.674  1.00  0.00     0.116 A 
HETATM   20  C   UNL     1      43.692 -20.721   1.856  1.00  0.00     0.021 A 
HETATM   21  C   UNL     1      43.361 -19.452   2.330  1.00  0.00     0.032 A 
ENDBRANCH  13  16
ENDBRANCH  10  12
BRANCH   9  22
HETATM   22  C   UNL     1      41.219 -15.336   3.016  1.00  0.00    -0.011 A 
HETATM   23  C   UNL     1      41.986 -14.430   2.285  1.00  0.00     0.125 A 
HETATM   24  N   UNL     1      42.132 -14.469   0.942  1.00  0.00    -0.272 NA
HETATM   25  C   UNL     1      41.467 -15.442   0.283  1.00  0.00     0.116 A 
HETATM   26  C   UNL     1      40.681 -16.393   0.910  1.00  0.00     0.020 A 
HETATM   27  C   UNL     1      40.562 -16.341   2.295  1.00  0.00     0.012 A 
ENDBRANCH   9  22
TORSDOF 3
ENDMDL
MODEL 3
REMARK VINA RESULT:      -7.5      2.156      5.679
REMARK  3 active torsions:
REMARK  status: ('A' for Active; 'I' for Inactive)
REMARK    1  A    between atoms: C_9  and  C_10 
REMARK    2  A    between atoms: C_16  and  C_17 
REMARK       I    between atoms: C_17  and  N_18 
REMARK    3  A    between atoms: N_18  and  C_19 
ROOT
HETATM    1  C   UNL     1      43.326 -18.853   1.787  1.00  0.00     0.070 C 
HETATM    2  C   UNL     1      42.973 -18.179   3.089  1.00  0.00     0.037 C 
HETATM    3  N   UNL     1      43.707 -18.590   4.197  1.00  0.00    -0.191 N 
HETATM    4  C   UNL     1      43.375 -18.257   5.462  1.00  0.00     0.735 A 
HETATM    5  N   UNL     1      42.355 -17.373   5.674  1.00  0.00    -0.092 N 
HETATM    6  N   UNL     1      42.136 -17.221   6.988  1.00  0.00     0.012 NA
HETATM    7  N   UNL     1      43.055 -17.986   7.569  1.00  0.00     0.033 NA
HETATM    8  N   UNL     1      43.833 -18.638   6.629  1.00  0.00     0.030 NA
HETATM    9  C   UNL     1      41.586 -16.722   4.617  1.00  0.00     0.199 C 
HETATM   10  C   UNL     1      41.971 -17.278   3.246  1.00  0.00     0.062 C 
HETATM   11  H   UNL     1      44.398 -19.325   4.059  1.00  0.00     0.184 HD
ENDROOT
BRANCH  10  12
HETATM   12  C   UNL     1      41.083 -16.822   2.144  1.00  0.00     0.256 C 
HETATM   13  N   UNL     1      41.665 -15.888   1.318  1.00  0.00    -0.322 N 
HETATM   14  H   UNL     1      42.604 -15.583   1.542  1.00  0.00     0.169 HD
HETATM   15  O   UNL     1      39.936 -17.247   2.096  1.00  0.00    -0.267 OA
BRANCH  13  16
HETATM   16  C   UNL     1      41.080 -15.299   0.178  1.00  0.00     0.052 A 
HETATM   17  C   UNL     1      40.230 -14.196   0.189  1.00  0.00     0.145 A 
HETATM   18  N   UNL     1      39.667 -13.656  -0.922  1.00  0.00    -0.271 NA
HETATM   19  C   UNL     1      39.960 -14.240  -2.101  1.00  0.00     0.116 A 
HETATM   20  C   UNL     1      40.792 -15.340  -2.223  1.00  0.00     0.021 A 
HETATM   21  C   UNL     1      41.360 -15.872  -1.066  1.00  0.00     0.032 A 
ENDBRANCH  13  16
ENDBRANCH  10  12
BRANCH   9  22
HETATM   22  C   UNL     1      41.750 -15.212   4.678  1.00  0.00    -0.011 A 
HETATM   23  C   UNL     1      42.978 -14.586   4.473  1.00  0.00     0.125 A 
HETATM   24  N   UNL     1      43.155 -13.247   4.463  1.00  0.00    -0.272 NA
HETATM   25  C   UNL     1      42.064 -12.484   4.688  1.00  0.00     0.116 A 
HETATM   26  C   UNL     1      40.798 -13.001   4.901  1.00  0.00     0.020 A 
HETATM   27  C   UNL     1      40.640 -14.384   4.889  1.00  0.00     0.012 A 
ENDBRANCH   9  22
TORSDOF 3
ENDMDL
MODEL 4
REMARK VINA RESULT:      -7.4      1.918      4.166
REMARK  3 active torsions:
REMARK  status: ('A' for Active; 'I' for Inactive)
REMARK    1  A    between atoms: C_9  and  C_10 
REMARK    2  A    between atoms: C_16  and  C_17 
REMARK       I    between atoms: C_17  and  N_18 
REMARK    3  A    between atoms: N_18  and  C_19 
ROOT
HETATM    1  C   UNL     1      44.193 -14.617   6.346  1.00  0.00     0.070 C 
HETATM    2  C   UNL     1      42.941 -14.198   5.619  1.00  0.00     0.037 C 
HETATM    3  N   UNL     1      42.186 -13.208   6.242  1.00  0.00    -0.191 N 
HETATM    4  C   UNL     1      40.938 -12.879   5.847  1.00  0.00     0.735 A 
HETATM    5  N   UNL     1      40.429 -13.437   4.709  1.00  0.00    -0.092 N 
HETATM    6  N   UNL     1      39.163 -13.037   4.520  1.00  0.00     0.012 NA
HETATM    7  N   UNL     1      38.924 -12.204   5.528  1.00  0.00     0.033 NA
HETATM    8  N   UNL     1      40.022 -12.097   6.362  1.00  0.00     0.030 NA
HETATM    9  C   UNL     1      41.149 -14.371   3.846  1.00  0.00     0.199 C 
HETATM   10  C   UNL     1      42.490 -14.759   4.469  1.00  0.00     0.062 C 
HETATM   11  H   UNL     1      42.512 -12.865   7.143  1.00  0.00     0.184 HD
ENDROOT
BRANCH  10  12
HETATM   12  C   UNL     1      43.182 -15.866   3.758  1.00  0.00     0.256 C 
HETATM   13  N   UNL     1      42.898 -17.111   4.270  1.00  0.00    -0.322 N 
HETATM   14  H   UNL     1      42.286 -17.161   5.075  1.00  0.00     0.169 HD
HETATM   15  O   UNL     1      43.962 -15.592   2.855  1.00  0.00    -0.267 OA
BRANCH  13  16
HETATM   16  C   UNL     1      43.381 -18.345   3.785  1.00  0.00     0.052 A 
HETATM   17  C   UNL     1      44.308 -19.156   4.433  1.00  0.00     0.145 A 
HETATM   18  N   UNL     1      44.768 -20.334   3.938  1.00  0.00    -0.271 NA
HETATM   19  C   UNL     1      44.287 -20.723   2.741  1.00  0.00     0.116 A 
HETATM   20  C   UNL     1      43.364 -19.992   2.014  1.00  0.00     0.021 A 
HETATM   21  C   UNL     1      42.905 -18.789   2.548  1.00  0.00     0.032 A 
ENDBRANCH  13  16
ENDBRANCH  10  12
BRANCH   9  22
HETATM   22  C   UNL     1      41.321 -13.796   2.450  1.00  0.00    -0.011 A 
HETATM   23  C   UNL     1      42.102 -12.668   2.199  1.00  0.00     0.125 A 
HETATM   24  N   UNL     1      42.326 -12.160   0.967  1.00  0.00    -0.272 NA
HETATM   25  C   UNL     1      41.731 -12.786  -0.071  1.00  0.00     0.116 A 
HETATM   26  C   UNL     1      40.939 -13.913   0.066  1.00  0.00     0.020 A 
HETATM   27  C   UNL     1      40.739 -14.426   1.343  1.00  0.00     0.012 A 
ENDBRANCH   9  22
TORSDOF 3
ENDMDL
MODEL 5
REMARK VINA RESULT:      -7.2      1.906      2.364
REMARK  3 active torsions:
REMARK  status: ('A' for Active; 'I' for Inactive)
REMARK    1  A    between atoms: C_9  and  C_10 
REMARK    2  A    between atoms: C_16  and  C_17 
REMARK       I    between atoms: C_17  and  N_18 
REMARK    3  A    between atoms: N_18  and  C_19 
ROOT
HETATM    1  C   UNL     1      40.640 -17.819   0.696  1.00  0.00     0.070 C 
HETATM    2  C   UNL     1      41.046 -16.417   1.077  1.00  0.00     0.037 C 
HETATM    3  N   UNL     1      40.168 -15.410   0.685  1.00  0.00    -0.191 N 
HETATM    4  C   UNL     1      40.481 -14.099   0.747  1.00  0.00     0.735 A 
HETATM    5  N   UNL     1      41.653 -13.719   1.338  1.00  0.00    -0.092 N 
HETATM    6  N   UNL     1      41.813 -12.391   1.244  1.00  0.00     0.012 NA
HETATM    7  N   UNL     1      40.713 -11.967   0.629  1.00  0.00     0.033 NA
HETATM    8  N   UNL     1      39.876 -13.021   0.314  1.00  0.00     0.030 NA
HETATM    9  C   UNL     1      42.614 -14.637   1.945  1.00  0.00     0.199 C 
HETATM   10  C   UNL     1      42.207 -16.089   1.695  1.00  0.00     0.062 C 
HETATM   11  H   UNL     1      39.344 -15.683   0.153  1.00  0.00     0.184 HD
ENDROOT
BRANCH  10  12
HETATM   12  C   UNL     1      43.243 -17.078   2.095  1.00  0.00     0.256 C 
HETATM   13  N   UNL     1      42.824 -17.952   3.071  1.00  0.00    -0.322 N 
HETATM   14  H   UNL     1      41.889 -17.831   3.440  1.00  0.00     0.169 HD
HETATM   15  O   UNL     1      44.357 -17.002   1.592  1.00  0.00    -0.267 OA
BRANCH  13  16
HETATM   16  C   UNL     1      43.574 -19.011   3.625  1.00  0.00     0.052 A 
HETATM   17  C   UNL     1      44.024 -19.076   4.941  1.00  0.00     0.145 A 
HETATM   18  N   UNL     1      44.758 -20.101   5.445  1.00  0.00    -0.271 NA
HETATM   19  C   UNL     1      45.061 -21.108   4.603  1.00  0.00     0.116 A 
HETATM   20  C   UNL     1      44.663 -21.142   3.278  1.00  0.00     0.021 A 
HETATM   21  C   UNL     1      43.907 -20.078   2.787  1.00  0.00     0.032 A 
ENDBRANCH  13  16
ENDBRANCH  10  12
BRANCH   9  22
HETATM   22  C   UNL     1      42.779 -14.346   3.428  1.00  0.00    -0.011 A 
HETATM   23  C   UNL     1      43.997 -13.951   3.979  1.00  0.00     0.125 A 
HETATM   24  N   UNL     1      44.172 -13.629   5.280  1.00  0.00    -0.272 NA
HETATM   25  C   UNL     1      43.091 -13.721   6.083  1.00  0.00     0.116 A 
HETATM   26  C   UNL     1      41.836 -14.100   5.640  1.00  0.00     0.020 A 
HETATM   27  C   UNL     1      41.679 -14.409   4.293  1.00  0.00     0.012 A 
ENDBRANCH   9  22
TORSDOF 3
ENDMDL
MODEL 6
REMARK VINA RESULT:      -7.1      3.276      7.117
REMARK  3 active torsions:
REMARK  status: ('A' for Active; 'I' for Inactive)
REMARK    1  A    between atoms: C_9  and  C_10 
REMARK    2  A    between atoms: C_16  and  C_17 
REMARK       I    between atoms: C_17  and  N_18 
REMARK    3  A    between atoms: N_18  and  C_19 
ROOT
HETATM    1  C   UNL     1      43.225 -16.983   7.889  1.00  0.00     0.070 C 
HETATM    2  C   UNL     1      43.273 -16.819   6.391  1.00  0.00     0.037 C 
HETATM    3  N   UNL     1      43.185 -17.997   5.654  1.00  0.00    -0.191 N 
HETATM    4  C   UNL     1      43.434 -18.054   4.329  1.00  0.00     0.735 A 
HETATM    5  N   UNL     1      43.654 -16.895   3.641  1.00  0.00    -0.092 N 
HETATM    6  N   UNL     1      43.944 -17.162   2.359  1.00  0.00     0.012 NA
HETATM    7  N   UNL     1      43.859 -18.486   2.268  1.00  0.00     0.033 NA
HETATM    8  N   UNL     1      43.542 -19.053   3.489  1.00  0.00     0.030 NA
HETATM    9  C   UNL     1      43.621 -15.558   4.230  1.00  0.00     0.199 C 
HETATM   10  C   UNL     1      43.460 -15.640   5.748  1.00  0.00     0.062 C 
HETATM   11  H   UNL     1      43.126 -18.873   6.171  1.00  0.00     0.184 HD
ENDROOT
BRANCH  10  12
HETATM   12  C   UNL     1      43.633 -14.335   6.439  1.00  0.00     0.256 C 
HETATM   13  N   UNL     1      44.774 -14.265   7.205  1.00  0.00    -0.322 N 
HETATM   14  H   UNL     1      45.360 -15.089   7.252  1.00  0.00     0.169 HD
HETATM   15  O   UNL     1      42.757 -13.487   6.327  1.00  0.00    -0.267 OA
BRANCH  13  16
HETATM   16  C   UNL     1      45.216 -13.149   7.947  1.00  0.00     0.052 A 
HETATM   17  C   UNL     1      46.321 -12.362   7.635  1.00  0.00     0.145 A 
HETATM   18  N   UNL     1      46.734 -11.301   8.375  1.00  0.00    -0.271 NA
HETATM   19  C   UNL     1      46.018 -11.009   9.479  1.00  0.00     0.116 A 
HETATM   20  C   UNL     1      44.905 -11.727   9.879  1.00  0.00     0.021 A 
HETATM   21  C   UNL     1      44.500 -12.810   9.098  1.00  0.00     0.032 A 
ENDBRANCH  13  16
ENDBRANCH  10  12
BRANCH   9  22
HETATM   22  C   UNL     1      42.531 -14.712   3.593  1.00  0.00    -0.011 A 
HETATM   23  C   UNL     1      42.814 -13.569   2.846  1.00  0.00     0.125 A 
HETATM   24  N   UNL     1      41.880 -12.823   2.218  1.00  0.00    -0.272 NA
HETATM   25  C   UNL     1      40.594 -13.213   2.349  1.00  0.00     0.116 A 
HETATM   26  C   UNL     1      40.203 -14.332   3.065  1.00  0.00     0.020 A 
HETATM   27  C   UNL     1      41.187 -15.093   3.688  1.00  0.00     0.012 A 
ENDBRANCH   9  22
TORSDOF 3
ENDMDL
MODEL 7
REMARK VINA RESULT:      -6.9      2.219      5.910
REMARK  3 active torsions:
REMARK  status: ('A' for Active; 'I' for Inactive)
REMARK    1  A    between atoms: C_9  and  C_10 
REMARK    2  A    between atoms: C_16  and  C_17 
REMARK       I    between atoms: C_17  and  N_18 
REMARK    3  A    between atoms: N_18  and  C_19 
ROOT
HETATM    1  C   UNL     1      43.768 -17.898   1.700  1.00  0.00     0.070 C 
HETATM    2  C   UNL     1      43.571 -17.724   3.185  1.00  0.00     0.037 C 
HETATM    3  N   UNL     1      44.123 -18.720   3.986  1.00  0.00    -0.191 N 
HETATM    4  C   UNL     1      43.852 -18.837   5.302  1.00  0.00     0.735 A 
HETATM    5  N   UNL     1      43.111 -17.870   5.921  1.00  0.00    -0.092 N 
HETATM    6  N   UNL     1      42.897 -18.196   7.204  1.00  0.00     0.012 NA
HETATM    7  N   UNL     1      43.546 -19.345   7.367  1.00  0.00     0.033 NA
HETATM    8  N   UNL     1      44.145 -19.755   6.190  1.00  0.00     0.030 NA
HETATM    9  C   UNL     1      42.590 -16.674   5.263  1.00  0.00     0.199 C 
HETATM   10  C   UNL     1      42.853 -16.726   3.758  1.00  0.00     0.062 C 
HETATM   11  H   UNL     1      44.587 -19.496   3.519  1.00  0.00     0.184 HD
ENDROOT
BRANCH  10  12
HETATM   12  C   UNL     1      42.166 -15.652   2.994  1.00  0.00     0.256 C 
HETATM   13  N   UNL     1      40.804 -15.623   3.188  1.00  0.00    -0.322 N 
HETATM   14  H   UNL     1      40.400 -16.328   3.790  1.00  0.00     0.169 HD
HETATM   15  O   UNL     1      42.826 -14.950   2.239  1.00  0.00    -0.267 OA
BRANCH  13  16
HETATM   16  C   UNL     1      39.897 -14.702   2.621  1.00  0.00     0.052 A 
HETATM   17  C   UNL     1      39.793 -13.358   2.970  1.00  0.00     0.145 A 
HETATM   18  N   UNL     1      38.901 -12.495   2.419  1.00  0.00    -0.271 NA
HETATM   19  C   UNL     1      38.072 -12.990   1.479  1.00  0.00     0.116 A 
HETATM   20  C   UNL     1      38.093 -14.308   1.060  1.00  0.00     0.021 A 
HETATM   21  C   UNL     1      39.021 -15.173   1.639  1.00  0.00     0.032 A 
ENDBRANCH  13  16
ENDBRANCH  10  12
BRANCH   9  22
HETATM   22  C   UNL     1      43.164 -15.416   5.893  1.00  0.00    -0.011 A 
HETATM   23  C   UNL     1      42.471 -14.207   5.909  1.00  0.00     0.125 A 
HETATM   24  N   UNL     1      42.921 -13.082   6.507  1.00  0.00    -0.272 NA
HETATM   25  C   UNL     1      44.131 -13.149   7.104  1.00  0.00     0.116 A 
HETATM   26  C   UNL     1      44.901 -14.297   7.148  1.00  0.00     0.020 A 
HETATM   27  C   UNL     1      44.406 -15.447   6.540  1.00  0.00     0.012 A 
ENDBRANCH   9  22
TORSDOF 3
ENDMDL
MODEL 8
REMARK VINA RESULT:      -6.9      2.420      7.090
REMARK  3 active torsions:
REMARK  status: ('A' for Active; 'I' for Inactive)
REMARK    1  A    between atoms: C_9  and  C_10 
REMARK    2  A    between atoms: C_16  and  C_17 
REMARK       I    between atoms: C_17  and  N_18 
REMARK    3  A    between atoms: N_18  and  C_19 
ROOT
HETATM    1  C   UNL     1      43.482 -16.239   7.220  1.00  0.00     0.070 C 
HETATM    2  C   UNL     1      43.431 -16.603   5.758  1.00  0.00     0.037 C 
HETATM    3  N   UNL     1      43.522 -17.963   5.474  1.00  0.00    -0.191 N 
HETATM    4  C   UNL     1      43.716 -18.441   4.227  1.00  0.00     0.735 A 
HETATM    5  N   UNL     1      43.692 -17.576   3.169  1.00  0.00    -0.092 N 
HETATM    6  N   UNL     1      43.966 -18.227   2.029  1.00  0.00     0.012 NA
HETATM    7  N   UNL     1      44.116 -19.495   2.398  1.00  0.00     0.033 NA
HETATM    8  N   UNL     1      43.963 -19.641   3.765  1.00  0.00     0.030 NA
HETATM    9  C   UNL     1      43.446 -16.140   3.275  1.00  0.00     0.199 C 
HETATM   10  C   UNL     1      43.372 -15.709   4.739  1.00  0.00     0.062 C 
HETATM   11  H   UNL     1      43.645 -18.601   6.258  1.00  0.00     0.184 HD
ENDROOT
BRANCH  10  12
HETATM   12  C   UNL     1      43.340 -14.235   4.929  1.00  0.00     0.256 C 
HETATM   13  N   UNL     1      42.083 -13.741   5.191  1.00  0.00    -0.322 N 
HETATM   14  H   UNL     1      41.312 -14.398   5.203  1.00  0.00     0.169 HD
HETATM   15  O   UNL     1      44.375 -13.598   4.783  1.00  0.00    -0.267 OA
BRANCH  13  16
HETATM   16  C   UNL     1      41.749 -12.393   5.444  1.00  0.00     0.052 A 
HETATM   17  C   UNL     1      41.751 -11.786   6.696  1.00  0.00     0.145 A 
HETATM   18  N   UNL     1      41.411 -10.489   6.914  1.00  0.00    -0.271 NA
HETATM   19  C   UNL     1      41.050  -9.762   5.838  1.00  0.00     0.116 A 
HETATM   20  C   UNL     1      41.014 -10.269   4.551  1.00  0.00     0.021 A 
HETATM   21  C   UNL     1      41.371 -11.603   4.355  1.00  0.00     0.032 A 
ENDBRANCH  13  16
ENDBRANCH  10  12
BRANCH   9  22
HETATM   22  C   UNL     1      42.194 -15.746   2.508  1.00  0.00    -0.011 A 
HETATM   23  C   UNL     1      42.226 -14.868   1.426  1.00  0.00     0.125 A 
HETATM   24  N   UNL     1      41.146 -14.538   0.685  1.00  0.00    -0.272 NA
HETATM   25  C   UNL     1      39.966 -15.088   1.044  1.00  0.00     0.116 A 
HETATM   26  C   UNL     1      39.822 -15.972   2.098  1.00  0.00     0.020 A 
HETATM   27  C   UNL     1      40.953 -16.310   2.834  1.00  0.00     0.012 A 
ENDBRANCH   9  22
TORSDOF 3
ENDMDL
MODEL 9
REMARK VINA RESULT:      -6.8      4.531      7.534
REMARK  3 active torsions:
REMARK  status: ('A' for Active; 'I' for Inactive)
REMARK    1  A    between atoms: C_9  and  C_10 
REMARK    2  A    between atoms: C_16  and  C_17 
REMARK       I    between atoms: C_17  and  N_18 
REMARK    3  A    between atoms: N_18  and  C_19 
ROOT
HETATM    1  C   UNL     1      37.559 -13.971   0.873  1.00  0.00     0.070 C 
HETATM    2  C   UNL     1      38.573 -13.947  -0.243  1.00  0.00     0.037 C 
HETATM    3  N   UNL     1      38.127 -14.431  -1.470  1.00  0.00    -0.191 N 
HETATM    4  C   UNL     1      38.956 -14.685  -2.503  1.00  0.00     0.735 A 
HETATM    5  N   UNL     1      40.274 -14.335  -2.404  1.00  0.00    -0.092 N 
HETATM    6  N   UNL     1      40.943 -14.726  -3.499  1.00  0.00     0.012 NA
HETATM    7  N   UNL     1      40.016 -15.277  -4.276  1.00  0.00     0.033 NA
HETATM    8  N   UNL     1      38.774 -15.258  -3.667  1.00  0.00     0.030 NA
HETATM    9  C   UNL     1      40.873 -13.671  -1.250  1.00  0.00     0.199 C 
HETATM   10  C   UNL     1      39.864 -13.558  -0.107  1.00  0.00     0.062 C 
HETATM   11  H   UNL     1      37.175 -14.788  -1.518  1.00  0.00     0.184 HD
ENDROOT
BRANCH  10  12
HETATM   12  C   UNL     1      40.460 -13.089   1.172  1.00  0.00     0.256 C 
HETATM   13  N   UNL     1      41.082 -14.086   1.888  1.00  0.00    -0.322 N 
HETATM   14  H   UNL     1      41.056 -15.024   1.509  1.00  0.00     0.169 HD
HETATM   15  O   UNL     1      40.305 -11.921   1.503  1.00  0.00    -0.267 OA
BRANCH  13  16
HETATM   16  C   UNL     1      41.758 -13.936   3.118  1.00  0.00     0.052 A 
HETATM   17  C   UNL     1      43.120 -13.684   3.261  1.00  0.00     0.145 A 
HETATM   18  N   UNL     1      43.749 -13.559   4.458  1.00  0.00    -0.271 NA
HETATM   19  C   UNL     1      42.992 -13.692   5.564  1.00  0.00     0.116 A 
HETATM   20  C   UNL     1      41.631 -13.944   5.533  1.00  0.00     0.021 A 
HETATM   21  C   UNL     1      41.009 -14.064   4.291  1.00  0.00     0.032 A 
ENDBRANCH  13  16
ENDBRANCH  10  12
BRANCH   9  22
HETATM   22  C   UNL     1      41.438 -12.315  -1.639  1.00  0.00    -0.011 A 
HETATM   23  C   UNL     1      40.643 -11.298  -2.164  1.00  0.00     0.125 A 
HETATM   24  N   UNL     1      41.096 -10.062  -2.469  1.00  0.00    -0.272 NA
HETATM   25  C   UNL     1      42.408  -9.823  -2.263  1.00  0.00     0.116 A 
HETATM   26  C   UNL     1      43.286 -10.759  -1.745  1.00  0.00     0.020 A 
HETATM   27  C   UNL     1      42.790 -12.019  -1.422  1.00  0.00     0.012 A 
ENDBRANCH   9  22
TORSDOF 3
ENDMDL
MODEL 10
REMARK VINA RESULT:      -6.8      2.292      3.835
REMARK  3 active torsions:
REMARK  status: ('A' for Active; 'I' for Inactive)
REMARK    1  A    between atoms: C_9  and  C_10 
REMARK    2  A    between atoms: C_16  and  C_17 
REMARK       I    between atoms: C_17  and  N_18 
REMARK    3  A    between atoms: N_18  and  C_19 
ROOT
HETATM    1  C   UNL     1      40.857 -17.676   1.290  1.00  0.00     0.070 C 
HETATM    2  C   UNL     1      40.886 -16.180   1.479  1.00  0.00     0.037 C 
HETATM    3  N   UNL     1      40.103 -15.448   0.592  1.00  0.00    -0.191 N 
HETATM    4  C   UNL     1      40.185 -14.106   0.477  1.00  0.00     0.735 A 
HETATM    5  N   UNL     1      40.968 -13.407   1.352  1.00  0.00    -0.092 N 
HETATM    6  N   UNL     1      40.970 -12.103   1.037  1.00  0.00     0.012 NA
HETATM    7  N   UNL     1      40.152 -12.013  -0.007  1.00  0.00     0.033 NA
HETATM    8  N   UNL     1      39.657 -13.253  -0.366  1.00  0.00     0.030 NA
HETATM    9  C   UNL     1      41.730 -14.005   2.446  1.00  0.00     0.199 C 
HETATM   10  C   UNL     1      41.656 -15.530   2.387  1.00  0.00     0.062 C 
HETATM   11  H   UNL     1      39.599 -15.962  -0.128  1.00  0.00     0.184 HD
ENDROOT
BRANCH  10  12
HETATM   12  C   UNL     1      42.577 -16.211   3.334  1.00  0.00     0.256 C 
HETATM   13  N   UNL     1      41.950 -16.699   4.458  1.00  0.00    -0.322 N 
HETATM   14  H   UNL     1      40.956 -16.532   4.551  1.00  0.00     0.169 HD
HETATM   15  O   UNL     1      43.775 -16.230   3.082  1.00  0.00    -0.267 OA
BRANCH  13  16
HETATM   16  C   UNL     1      42.558 -17.413   5.512  1.00  0.00     0.052 A 
HETATM   17  C   UNL     1      43.075 -18.702   5.416  1.00  0.00     0.145 A 
HETATM   18  N   UNL     1      43.643 -19.374   6.451  1.00  0.00    -0.271 NA
HETATM   19  C   UNL     1      43.697 -18.737   7.637  1.00  0.00     0.116 A 
HETATM   20  C   UNL     1      43.213 -17.456   7.840  1.00  0.00     0.021 A 
HETATM   21  C   UNL     1      42.638 -16.788   6.759  1.00  0.00     0.032 A 
ENDBRANCH  13  16
ENDBRANCH  10  12
BRANCH   9  22
HETATM   22  C   UNL     1      41.260 -13.470   3.788  1.00  0.00    -0.011 A 
HETATM   23  C   UNL     1      42.075 -12.688   4.606  1.00  0.00     0.125 A 
HETATM   24  N   UNL     1      41.677 -12.147   5.779  1.00  0.00    -0.272 NA
HETATM   25  C   UNL     1      40.413 -12.408   6.175  1.00  0.00     0.116 A 
HETATM   26  C   UNL     1      39.521 -13.170   5.440  1.00  0.00     0.020 A 
HETATM   27  C   UNL     1      39.950 -13.700   4.228  1.00  0.00     0.012 A 
ENDBRANCH   9  22
TORSDOF 3
ENDMDL
