MODEL 1
REMARK VINA RESULT:      -7.6      0.000      0.000
REMARK  5 active torsions:
REMARK  status: ('A' for Active; 'I' for Inactive)
REMARK    1  A    between atoms: C_8  and  C_9 
REMARK    2  A    between atoms: C_9  and  C_10 
REMARK       I    between atoms: C_10  and  N_11 
REMARK    3  A    between atoms: N_11  and  C_12 
REMARK    4  A    between atoms: C_12  and  C_13 
REMARK    5  A    between atoms: C_13  and  C_14 
ROOT
HETATM    1  C   UNL     1      43.188 -13.569   4.017  1.00  0.00     0.226 C 
HETATM    2  N   UNL     1      42.113 -13.248   3.216  1.00  0.00    -0.360 N 
HETATM    3  O   UNL     1      44.328 -13.662   3.560  1.00  0.00    -0.273 OA
HETATM    4  H   UNL     1      41.188 -13.148   3.610  1.00  0.00     0.162 HD
ENDROOT
BRANCH   2   5
HETATM    5  C   UNL     1      42.281 -12.970   1.800  1.00  0.00     0.127 C 
BRANCH   5   6
HETATM    6  C   UNL     1      41.518 -13.951   0.906  1.00  0.00     0.060 C 
BRANCH   6   7
HETATM    7  C   UNL     1      41.278 -15.261   1.587  1.00  0.00    -0.029 A 
HETATM    8  C   UNL     1      42.215 -16.337   1.716  1.00  0.00    -0.002 A 
HETATM    9  C   UNL     1      41.577 -17.365   2.410  1.00  0.00     0.044 A 
HETATM   10  C   UNL     1      43.549 -16.527   1.300  1.00  0.00     0.016 A 
HETATM   11  C   UNL     1      42.207 -18.581   2.709  1.00  0.00     0.054 A 
HETATM   12  N   UNL     1      40.305 -16.931   2.699  1.00  0.00    -0.365 N 
HETATM   13  C   UNL     1      43.528 -18.741   2.282  1.00  0.00     0.036 A 
HETATM   14 CL   UNL     1      44.346 -20.220   2.624  1.00  0.00    -0.084 Cl
HETATM   15  C   UNL     1      44.195 -17.736   1.590  1.00  0.00     0.025 A 
HETATM   16  H   UNL     1      39.616 -17.471   3.203  1.00  0.00     0.165 HD
HETATM   17  C   UNL     1      40.113 -15.667   2.207  1.00  0.00     0.096 A 
ENDBRANCH   6   7
ENDBRANCH   5   6
ENDBRANCH   2   5
BRANCH   1  18
HETATM   18  C   UNL     1      42.905 -13.767   5.514  1.00  0.00     0.111 C 
HETATM   19  C   UNL     1      44.144 -13.935   6.393  1.00  0.00     0.025 C 
BRANCH  18  20
HETATM   20  C   UNL     1      41.888 -14.851   5.753  1.00  0.00     0.004 A 
HETATM   21  C   UNL     1      40.524 -14.678   5.932  1.00  0.00     0.033 A 
HETATM   22  C   UNL     1      39.672 -13.466   5.928  1.00  0.00     0.070 C 
HETATM   23  N   UNL     1      40.003 -15.927   6.112  1.00  0.00    -0.282 N 
HETATM   24  H   UNL     1      39.034 -16.188   6.257  1.00  0.00     0.189 HD
HETATM   25  N   UNL     1      40.921 -16.900   6.093  1.00  0.00    -0.179 NA
HETATM   26  C   UNL     1      42.074 -16.263   5.857  1.00  0.00     0.060 A 
HETATM   27  C   UNL     1      43.321 -17.059   5.737  1.00  0.00     0.073 C 
ENDBRANCH  18  20
ENDBRANCH   1  18
TORSDOF 5
ENDMDL
MODEL 2
REMARK VINA RESULT:      -7.5      3.403      6.206
REMARK  5 active torsions:
REMARK  status: ('A' for Active; 'I' for Inactive)
REMARK    1  A    between atoms: C_8  and  C_9 
REMARK    2  A    between atoms: C_9  and  C_10 
REMARK       I    between atoms: C_10  and  N_11 
REMARK    3  A    between atoms: N_11  and  C_12 
REMARK    4  A    between atoms: C_12  and  C_13 
REMARK    5  A    between atoms: C_13  and  C_14 
ROOT
HETATM    1  C   UNL     1      40.225 -15.080   0.465  1.00  0.00     0.226 C 
HETATM    2  N   UNL     1      40.965 -16.159   0.030  1.00  0.00    -0.360 N 
HETATM    3  O   UNL     1      39.865 -14.975   1.638  1.00  0.00    -0.273 OA
HETATM    4  H   UNL     1      41.277 -16.217  -0.929  1.00  0.00     0.162 HD
ENDROOT
BRANCH   2   5
HETATM    5  C   UNL     1      41.385 -17.206   0.946  1.00  0.00     0.127 C 
BRANCH   5   6
HETATM    6  C   UNL     1      42.908 -17.327   1.051  1.00  0.00     0.060 C 
BRANCH   6   7
HETATM    7  C   UNL     1      43.348 -17.690   2.434  1.00  0.00    -0.029 A 
HETATM    8  C   UNL     1      43.813 -18.972   2.871  1.00  0.00    -0.002 A 
HETATM    9  C   UNL     1      44.108 -18.869   4.230  1.00  0.00     0.044 A 
HETATM   10  C   UNL     1      44.005 -20.213   2.228  1.00  0.00     0.016 A 
HETATM   11  C   UNL     1      44.586 -19.949   4.985  1.00  0.00     0.054 A 
HETATM   12  N   UNL     1      43.842 -17.574   4.605  1.00  0.00    -0.365 N 
HETATM   13  C   UNL     1      44.764 -21.167   4.322  1.00  0.00     0.036 A 
HETATM   14 CL   UNL     1      45.346 -22.526   5.207  1.00  0.00    -0.084 Cl
HETATM   15  C   UNL     1      44.481 -21.304   2.966  1.00  0.00     0.025 A 
HETATM   16  H   UNL     1      43.970 -17.210   5.540  1.00  0.00     0.165 HD
HETATM   17  C   UNL     1      43.382 -16.855   3.534  1.00  0.00     0.096 A 
ENDBRANCH   6   7
ENDBRANCH   5   6
ENDBRANCH   2   5
BRANCH   1  18
HETATM   18  C   UNL     1      39.904 -13.994  -0.573  1.00  0.00     0.111 C 
HETATM   19  C   UNL     1      38.440 -13.923  -1.008  1.00  0.00     0.025 C 
BRANCH  18  20
HETATM   20  C   UNL     1      40.843 -14.046  -1.748  1.00  0.00     0.004 A 
HETATM   21  C   UNL     1      41.974 -13.266  -1.936  1.00  0.00     0.033 A 
HETATM   22  C   UNL     1      42.600 -12.215  -1.100  1.00  0.00     0.070 C 
HETATM   23  N   UNL     1      42.512 -13.657  -3.129  1.00  0.00    -0.282 N 
HETATM   24  H   UNL     1      43.352 -13.315  -3.581  1.00  0.00     0.189 HD
HETATM   25  N   UNL     1      41.808 -14.611  -3.747  1.00  0.00    -0.179 NA
HETATM   26  C   UNL     1      40.797 -14.873  -2.911  1.00  0.00     0.060 A 
HETATM   27  C   UNL     1      39.819 -15.928  -3.277  1.00  0.00     0.073 C 
ENDBRANCH  18  20
ENDBRANCH   1  18
TORSDOF 5
ENDMDL
MODEL 3
REMARK VINA RESULT:      -7.5      2.330      4.979
REMARK  5 active torsions:
REMARK  status: ('A' for Active; 'I' for Inactive)
REMARK    1  A    between atoms: C_8  and  C_9 
REMARK    2  A    between atoms: C_9  and  C_10 
REMARK       I    between atoms: C_10  and  N_11 
REMARK    3  A    between atoms: N_11  and  C_12 
REMARK    4  A    between atoms: C_12  and  C_13 
REMARK    5  A    between atoms: C_13  and  C_14 
ROOT
HETATM    1  C   UNL     1      42.174 -15.487   4.211  1.00  0.00     0.226 C 
HETATM    2  N   UNL     1      42.302 -15.556   5.582  1.00  0.00    -0.360 N 
HETATM    3  O   UNL     1      42.862 -14.720   3.537  1.00  0.00    -0.273 OA
HETATM    4  H   UNL     1      41.749 -16.209   6.118  1.00  0.00     0.162 HD
ENDROOT
BRANCH   2   5
HETATM    5  C   UNL     1      43.282 -14.752   6.291  1.00  0.00     0.127 C 
BRANCH   5   6
HETATM    6  C   UNL     1      44.519 -15.554   6.708  1.00  0.00     0.060 C 
BRANCH   6   7
HETATM    7  C   UNL     1      44.167 -16.940   7.149  1.00  0.00    -0.029 A 
HETATM    8  C   UNL     1      44.360 -18.146   6.399  1.00  0.00    -0.002 A 
HETATM    9  C   UNL     1      43.887 -19.202   7.178  1.00  0.00     0.044 A 
HETATM   10  C   UNL     1      44.892 -18.430   5.124  1.00  0.00     0.016 A 
HETATM   11  C   UNL     1      43.917 -20.534   6.745  1.00  0.00     0.054 A 
HETATM   12  N   UNL     1      43.431 -18.663   8.358  1.00  0.00    -0.365 N 
HETATM   13  C   UNL     1      44.448 -20.785   5.476  1.00  0.00     0.036 A 
HETATM   14 CL   UNL     1      44.504 -22.408   4.897  1.00  0.00    -0.084 Cl
HETATM   15  C   UNL     1      44.930 -19.755   4.674  1.00  0.00     0.025 A 
HETATM   16  H   UNL     1      43.036 -19.199   9.118  1.00  0.00     0.165 HD
HETATM   17  C   UNL     1      43.593 -17.303   8.351  1.00  0.00     0.096 A 
ENDBRANCH   6   7
ENDBRANCH   5   6
ENDBRANCH   2   5
BRANCH   1  18
HETATM   18  C   UNL     1      41.159 -16.438   3.558  1.00  0.00     0.111 C 
HETATM   19  C   UNL     1      41.287 -17.905   3.967  1.00  0.00     0.025 C 
BRANCH  18  20
HETATM   20  C   UNL     1      41.114 -16.267   2.062  1.00  0.00     0.004 A 
HETATM   21  C   UNL     1      40.124 -15.624   1.335  1.00  0.00     0.033 A 
HETATM   22  C   UNL     1      38.886 -14.925   1.752  1.00  0.00     0.070 C 
HETATM   23  N   UNL     1      40.499 -15.711   0.025  1.00  0.00    -0.282 N 
HETATM   24  H   UNL     1      40.023 -15.339  -0.790  1.00  0.00     0.189 HD
HETATM   25  N   UNL     1      41.639 -16.383  -0.164  1.00  0.00    -0.179 NA
HETATM   26  C   UNL     1      42.038 -16.714   1.069  1.00  0.00     0.060 A 
HETATM   27  C   UNL     1      43.313 -17.455   1.237  1.00  0.00     0.073 C 
ENDBRANCH  18  20
ENDBRANCH   1  18
TORSDOF 5
ENDMDL
MODEL 4
REMARK VINA RESULT:      -7.4      2.221      4.960
REMARK  5 active torsions:
REMARK  status: ('A' for Active; 'I' for Inactive)
REMARK    1  A    between atoms: C_8  and  C_9 
REMARK    2  A    between atoms: C_9  and  C_10 
REMARK       I    between atoms: C_10  and  N_11 
REMARK    3  A    between atoms: N_11  and  C_12 
REMARK    4  A    between atoms: C_12  and  C_13 
REMARK    5  A    between atoms: C_13  and  C_14 
ROOT
HETATM    1  C   UNL     1      42.934 -14.278   3.993  1.00  0.00     0.226 C 
HETATM    2  N   UNL     1      42.801 -15.423   4.751  1.00  0.00    -0.360 N 
HETATM    3  O   UNL     1      43.142 -13.182   4.513  1.00  0.00    -0.273 OA
HETATM    4  H   UNL     1      42.658 -16.319   4.308  1.00  0.00     0.162 HD
ENDROOT
BRANCH   2   5
HETATM    5  C   UNL     1      42.937 -15.393   6.197  1.00  0.00     0.127 C 
BRANCH   5   6
HETATM    6  C   UNL     1      44.254 -16.003   6.683  1.00  0.00     0.060 C 
BRANCH   6   7
HETATM    7  C   UNL     1      44.104 -17.446   7.049  1.00  0.00    -0.029 A 
HETATM    8  C   UNL     1      44.293 -18.568   6.179  1.00  0.00    -0.002 A 
HETATM    9  C   UNL     1      44.044 -19.720   6.924  1.00  0.00     0.044 A 
HETATM   10  C   UNL     1      44.650 -18.704   4.822  1.00  0.00     0.016 A 
HETATM   11  C   UNL     1      44.131 -21.008   6.379  1.00  0.00     0.054 A 
HETATM   12  N   UNL     1      43.724 -19.317   8.199  1.00  0.00    -0.365 N 
HETATM   13  C   UNL     1      44.485 -21.112   5.031  1.00  0.00     0.036 A 
HETATM   14 CL   UNL     1      44.605 -22.674   4.313  1.00  0.00    -0.084 Cl
HETATM   15  C   UNL     1      44.743 -19.983   4.259  1.00  0.00     0.025 A 
HETATM   16  H   UNL     1      43.500 -19.944   8.959  1.00  0.00     0.165 HD
HETATM   17  C   UNL     1      43.755 -17.951   8.286  1.00  0.00     0.096 A 
ENDBRANCH   6   7
ENDBRANCH   5   6
ENDBRANCH   2   5
BRANCH   1  18
HETATM   18  C   UNL     1      42.849 -14.440   2.468  1.00  0.00     0.111 C 
HETATM   19  C   UNL     1      42.338 -13.214   1.712  1.00  0.00     0.025 C 
BRANCH  18  20
HETATM   20  C   UNL     1      42.114 -15.695   2.077  1.00  0.00     0.004 A 
HETATM   21  C   UNL     1      42.682 -16.875   1.621  1.00  0.00     0.033 A 
HETATM   22  C   UNL     1      44.092 -17.274   1.400  1.00  0.00     0.070 C 
HETATM   23  N   UNL     1      41.644 -17.733   1.395  1.00  0.00    -0.282 N 
HETATM   24  H   UNL     1      41.682 -18.692   1.071  1.00  0.00     0.189 HD
HETATM   25  N   UNL     1      40.443 -17.198   1.641  1.00  0.00    -0.179 NA
HETATM   26  C   UNL     1      40.712 -15.962   2.076  1.00  0.00     0.060 A 
HETATM   27  C   UNL     1      39.586 -15.082   2.478  1.00  0.00     0.073 C 
ENDBRANCH  18  20
ENDBRANCH   1  18
TORSDOF 5
ENDMDL
MODEL 5
REMARK VINA RESULT:      -7.3      3.746      6.549
REMARK  5 active torsions:
REMARK  status: ('A' for Active; 'I' for Inactive)
REMARK    1  A    between atoms: C_8  and  C_9 
REMARK    2  A    between atoms: C_9  and  C_10 
REMARK       I    between atoms: C_10  and  N_11 
REMARK    3  A    between atoms: N_11  and  C_12 
REMARK    4  A    between atoms: C_12  and  C_13 
REMARK    5  A    between atoms: C_13  and  C_14 
ROOT
HETATM    1  C   UNL     1      41.366 -14.930  -0.890  1.00  0.00     0.226 C 
HETATM    2  N   UNL     1      41.300 -16.275  -0.597  1.00  0.00    -0.360 N 
HETATM    3  O   UNL     1      41.639 -14.094  -0.028  1.00  0.00    -0.273 OA
HETATM    4  H   UNL     1      41.103 -16.951  -1.321  1.00  0.00     0.162 HD
ENDROOT
BRANCH   2   5
HETATM    5  C   UNL     1      41.587 -16.773   0.737  1.00  0.00     0.127 C 
BRANCH   5   6
HETATM    6  C   UNL     1      43.052 -17.180   0.918  1.00  0.00     0.060 C 
BRANCH   6   7
HETATM    7  C   UNL     1      43.353 -17.589   2.325  1.00  0.00    -0.029 A 
HETATM    8  C   UNL     1      43.784 -18.884   2.761  1.00  0.00    -0.002 A 
HETATM    9  C   UNL     1      43.938 -18.828   4.146  1.00  0.00     0.044 A 
HETATM   10  C   UNL     1      44.055 -20.099   2.097  1.00  0.00     0.016 A 
HETATM   11  C   UNL     1      44.347 -19.931   4.907  1.00  0.00     0.054 A 
HETATM   12  N   UNL     1      43.619 -17.550   4.538  1.00  0.00    -0.365 N 
HETATM   13  C   UNL     1      44.606 -21.123   4.223  1.00  0.00     0.036 A 
HETATM   14 CL   UNL     1      45.110 -22.509   5.114  1.00  0.00    -0.084 Cl
HETATM   15  C   UNL     1      44.465 -21.213   2.841  1.00  0.00     0.025 A 
HETATM   16  H   UNL     1      43.647 -17.219   5.492  1.00  0.00     0.165 HD
HETATM   17  C   UNL     1      43.264 -16.795   3.451  1.00  0.00     0.096 A 
ENDBRANCH   6   7
ENDBRANCH   5   6
ENDBRANCH   2   5
BRANCH   1  18
HETATM   18  C   UNL     1      41.120 -14.523  -2.352  1.00  0.00     0.111 C 
HETATM   19  C   UNL     1      41.998 -13.382  -2.866  1.00  0.00     0.025 C 
BRANCH  18  20
HETATM   20  C   UNL     1      39.659 -14.285  -2.629  1.00  0.00     0.004 A 
HETATM   21  C   UNL     1      38.838 -15.051  -3.442  1.00  0.00     0.033 A 
HETATM   22  C   UNL     1      39.096 -16.276  -4.235  1.00  0.00     0.070 C 
HETATM   23  N   UNL     1      37.605 -14.467  -3.393  1.00  0.00    -0.282 N 
HETATM   24  H   UNL     1      36.752 -14.763  -3.854  1.00  0.00     0.189 HD
HETATM   25  N   UNL     1      37.561 -13.366  -2.635  1.00  0.00    -0.179 NA
HETATM   26  C   UNL     1      38.801 -13.251  -2.146  1.00  0.00     0.060 A 
HETATM   27  C   UNL     1      39.105 -12.132  -1.220  1.00  0.00     0.073 C 
ENDBRANCH  18  20
ENDBRANCH   1  18
TORSDOF 5
ENDMDL
MODEL 6
REMARK VINA RESULT:      -7.2      2.075      4.708
REMARK  5 active torsions:
REMARK  status: ('A' for Active; 'I' for Inactive)
REMARK    1  A    between atoms: C_8  and  C_9 
REMARK    2  A    between atoms: C_9  and  C_10 
REMARK       I    between atoms: C_10  and  N_11 
REMARK    3  A    between atoms: N_11  and  C_12 
REMARK    4  A    between atoms: C_12  and  C_13 
REMARK    5  A    between atoms: C_13  and  C_14 
ROOT
HETATM    1  C   UNL     1      43.000 -14.142   2.916  1.00  0.00     0.226 C 
HETATM    2  N   UNL     1      42.829 -13.959   4.271  1.00  0.00    -0.360 N 
HETATM    3  O   UNL     1      43.717 -15.039   2.471  1.00  0.00    -0.273 OA
HETATM    4  H   UNL     1      42.215 -13.236   4.619  1.00  0.00     0.162 HD
ENDROOT
BRANCH   2   5
HETATM    5  C   UNL     1      43.459 -14.840   5.239  1.00  0.00     0.127 C 
BRANCH   5   6
HETATM    6  C   UNL     1      42.666 -16.129   5.474  1.00  0.00     0.060 C 
BRANCH   6   7
HETATM    7  C   UNL     1      43.524 -17.348   5.349  1.00  0.00    -0.029 A 
HETATM    8  C   UNL     1      43.512 -18.291   4.271  1.00  0.00    -0.002 A 
HETATM    9  C   UNL     1      44.460 -19.271   4.563  1.00  0.00     0.044 A 
HETATM   10  C   UNL     1      42.775 -18.397   3.074  1.00  0.00     0.016 A 
HETATM   11  C   UNL     1      44.709 -20.360   3.717  1.00  0.00     0.054 A 
HETATM   12  N   UNL     1      45.032 -18.935   5.768  1.00  0.00    -0.365 N 
HETATM   13  C   UNL     1      43.961 -20.440   2.538  1.00  0.00     0.036 A 
HETATM   14 CL   UNL     1      44.228 -21.762   1.465  1.00  0.00    -0.084 Cl
HETATM   15  C   UNL     1      43.009 -19.478   2.215  1.00  0.00     0.025 A 
HETATM   16  H   UNL     1      45.760 -19.468   6.224  1.00  0.00     0.165 HD
HETATM   17  C   UNL     1      44.477 -17.781   6.251  1.00  0.00     0.096 A 
ENDBRANCH   6   7
ENDBRANCH   5   6
ENDBRANCH   2   5
BRANCH   1  18
HETATM   18  C   UNL     1      42.224 -13.200   1.983  1.00  0.00     0.111 C 
HETATM   19  C   UNL     1      41.271 -12.232   2.682  1.00  0.00     0.025 C 
BRANCH  18  20
HETATM   20  C   UNL     1      41.552 -13.949   0.863  1.00  0.00     0.004 A 
HETATM   21  C   UNL     1      40.693 -15.030   0.992  1.00  0.00     0.033 A 
HETATM   22  C   UNL     1      40.174 -15.744   2.182  1.00  0.00     0.070 C 
HETATM   23  N   UNL     1      40.328 -15.379  -0.277  1.00  0.00    -0.282 N 
HETATM   24  H   UNL     1      39.698 -16.118  -0.567  1.00  0.00     0.189 HD
HETATM   25  N   UNL     1      40.901 -14.630  -1.225  1.00  0.00    -0.179 NA
HETATM   26  C   UNL     1      41.635 -13.741  -0.548  1.00  0.00     0.060 A 
HETATM   27  C   UNL     1      42.395 -12.714  -1.303  1.00  0.00     0.073 C 
ENDBRANCH  18  20
ENDBRANCH   1  18
TORSDOF 5
ENDMDL
MODEL 7
REMARK VINA RESULT:      -7.1      2.798      5.024
REMARK  5 active torsions:
REMARK  status: ('A' for Active; 'I' for Inactive)
REMARK    1  A    between atoms: C_8  and  C_9 
REMARK    2  A    between atoms: C_9  and  C_10 
REMARK       I    between atoms: C_10  and  N_11 
REMARK    3  A    between atoms: N_11  and  C_12 
REMARK    4  A    between atoms: C_12  and  C_13 
REMARK    5  A    between atoms: C_13  and  C_14 
ROOT
HETATM    1  C   UNL     1      40.111 -15.254   1.697  1.00  0.00     0.226 C 
HETATM    2  N   UNL     1      40.563 -16.134   0.737  1.00  0.00    -0.360 N 
HETATM    3  O   UNL     1      40.149 -15.531   2.896  1.00  0.00    -0.273 OA
HETATM    4  H   UNL     1      40.550 -15.880  -0.240  1.00  0.00     0.162 HD
ENDROOT
BRANCH   2   5
HETATM    5  C   UNL     1      41.141 -17.416   1.099  1.00  0.00     0.127 C 
BRANCH   5   6
HETATM    6  C   UNL     1      42.672 -17.393   1.123  1.00  0.00     0.060 C 
BRANCH   6   7
HETATM    7  C   UNL     1      43.219 -17.740   2.471  1.00  0.00    -0.029 A 
HETATM    8  C   UNL     1      43.718 -19.018   2.884  1.00  0.00    -0.002 A 
HETATM    9  C   UNL     1      44.117 -18.900   4.214  1.00  0.00     0.044 A 
HETATM   10  C   UNL     1      43.861 -20.265   2.241  1.00  0.00     0.016 A 
HETATM   11  C   UNL     1      44.653 -19.971   4.942  1.00  0.00     0.054 A 
HETATM   12  N   UNL     1      43.878 -17.601   4.596  1.00  0.00    -0.365 N 
HETATM   13  C   UNL     1      44.781 -21.196   4.280  1.00  0.00     0.036 A 
HETATM   14 CL   UNL     1      45.433 -22.545   5.132  1.00  0.00    -0.084 Cl
HETATM   15  C   UNL     1      44.395 -21.348   2.952  1.00  0.00     0.025 A 
HETATM   16  H   UNL     1      44.078 -17.227   5.514  1.00  0.00     0.165 HD
HETATM   17  C   UNL     1      43.337 -16.894   3.556  1.00  0.00     0.096 A 
ENDBRANCH   6   7
ENDBRANCH   5   6
ENDBRANCH   2   5
BRANCH   1  18
HETATM   18  C   UNL     1      39.591 -13.894   1.205  1.00  0.00     0.111 C 
HETATM   19  C   UNL     1      38.712 -13.947  -0.044  1.00  0.00     0.025 C 
BRANCH  18  20
HETATM   20  C   UNL     1      40.700 -12.883   1.076  1.00  0.00     0.004 A 
HETATM   21  C   UNL     1      41.000 -11.869   1.973  1.00  0.00     0.033 A 
HETATM   22  C   UNL     1      40.390 -11.479   3.266  1.00  0.00     0.070 C 
HETATM   23  N   UNL     1      42.076 -11.208   1.452  1.00  0.00    -0.282 N 
HETATM   24  H   UNL     1      42.577 -10.419   1.844  1.00  0.00     0.189 HD
HETATM   25  N   UNL     1      42.485 -11.693   0.275  1.00  0.00    -0.179 NA
HETATM   26  C   UNL     1      41.669 -12.727   0.040  1.00  0.00     0.060 A 
HETATM   27  C   UNL     1      41.867 -13.530  -1.192  1.00  0.00     0.073 C 
ENDBRANCH  18  20
ENDBRANCH   1  18
TORSDOF 5
ENDMDL
MODEL 8
REMARK VINA RESULT:      -7.0      3.009      4.790
REMARK  5 active torsions:
REMARK  status: ('A' for Active; 'I' for Inactive)
REMARK    1  A    between atoms: C_8  and  C_9 
REMARK    2  A    between atoms: C_9  and  C_10 
REMARK       I    between atoms: C_10  and  N_11 
REMARK    3  A    between atoms: N_11  and  C_12 
REMARK    4  A    between atoms: C_12  and  C_13 
REMARK    5  A    between atoms: C_13  and  C_14 
ROOT
HETATM    1  C   UNL     1      43.489 -18.679   4.197  1.00  0.00     0.226 C 
HETATM    2  N   UNL     1      42.983 -18.860   2.927  1.00  0.00    -0.360 N 
HETATM    3  O   UNL     1      44.694 -18.529   4.396  1.00  0.00    -0.273 OA
HETATM    4  H   UNL     1      41.988 -18.954   2.778  1.00  0.00     0.162 HD
ENDROOT
BRANCH   2   5
HETATM    5  C   UNL     1      43.847 -18.845   1.760  1.00  0.00     0.127 C 
BRANCH   5   6
HETATM    6  C   UNL     1      43.904 -17.474   1.079  1.00  0.00     0.060 C 
BRANCH   6   7
HETATM    7  C   UNL     1      42.626 -16.714   1.240  1.00  0.00    -0.029 A 
HETATM    8  C   UNL     1      42.380 -15.649   2.167  1.00  0.00    -0.002 A 
HETATM    9  C   UNL     1      41.061 -15.234   1.985  1.00  0.00     0.044 A 
HETATM   10  C   UNL     1      43.165 -15.005   3.145  1.00  0.00     0.016 A 
HETATM   11  C   UNL     1      40.482 -14.204   2.738  1.00  0.00     0.054 A 
HETATM   12  N   UNL     1      40.526 -16.009   0.984  1.00  0.00    -0.365 N 
HETATM   13  C   UNL     1      41.282 -13.585   3.703  1.00  0.00     0.036 A 
HETATM   14 CL   UNL     1      40.615 -12.314   4.657  1.00  0.00    -0.084 Cl
HETATM   15  C   UNL     1      42.603 -13.973   3.908  1.00  0.00     0.025 A 
HETATM   16  H   UNL     1      39.581 -15.925   0.637  1.00  0.00     0.165 HD
HETATM   17  C   UNL     1      41.457 -16.904   0.529  1.00  0.00     0.096 A 
ENDBRANCH   6   7
ENDBRANCH   5   6
ENDBRANCH   2   5
BRANCH   1  18
HETATM   18  C   UNL     1      42.474 -18.634   5.350  1.00  0.00     0.111 C 
HETATM   19  C   UNL     1      41.326 -17.642   5.169  1.00  0.00     0.025 C 
BRANCH  18  20
HETATM   20  C   UNL     1      43.152 -18.480   6.686  1.00  0.00     0.004 A 
HETATM   21  C   UNL     1      43.576 -19.504   7.520  1.00  0.00     0.033 A 
HETATM   22  C   UNL     1      43.527 -20.978   7.379  1.00  0.00     0.070 C 
HETATM   23  N   UNL     1      44.131 -18.900   8.611  1.00  0.00    -0.282 N 
HETATM   24  H   UNL     1      44.559 -19.336   9.419  1.00  0.00     0.189 HD
HETATM   25  N   UNL     1      44.080 -17.565   8.570  1.00  0.00    -0.179 NA
HETATM   26  C   UNL     1      43.502 -17.291   7.394  1.00  0.00     0.060 A 
HETATM   27  C   UNL     1      43.314 -15.872   7.001  1.00  0.00     0.073 C 
ENDBRANCH  18  20
ENDBRANCH   1  18
TORSDOF 5
ENDMDL
MODEL 9
REMARK VINA RESULT:      -6.9      2.008      4.456
REMARK  5 active torsions:
REMARK  status: ('A' for Active; 'I' for Inactive)
REMARK    1  A    between atoms: C_8  and  C_9 
REMARK    2  A    between atoms: C_9  and  C_10 
REMARK       I    between atoms: C_10  and  N_11 
REMARK    3  A    between atoms: N_11  and  C_12 
REMARK    4  A    between atoms: C_12  and  C_13 
REMARK    5  A    between atoms: C_13  and  C_14 
ROOT
HETATM    1  C   UNL     1      40.394 -13.673   2.919  1.00  0.00     0.226 C 
HETATM    2  N   UNL     1      41.676 -13.179   3.030  1.00  0.00    -0.360 N 
HETATM    3  O   UNL     1      39.748 -14.021   3.907  1.00  0.00    -0.273 OA
HETATM    4  H   UNL     1      42.183 -12.872   2.213  1.00  0.00     0.162 HD
ENDROOT
BRANCH   2   5
HETATM    5  C   UNL     1      42.312 -13.013   4.326  1.00  0.00     0.127 C 
BRANCH   5   6
HETATM    6  C   UNL     1      43.574 -13.867   4.483  1.00  0.00     0.060 C 
BRANCH   6   7
HETATM    7  C   UNL     1      43.251 -15.305   4.739  1.00  0.00    -0.029 A 
HETATM    8  C   UNL     1      43.434 -16.394   3.827  1.00  0.00    -0.002 A 
HETATM    9  C   UNL     1      42.996 -17.553   4.468  1.00  0.00     0.044 A 
HETATM   10  C   UNL     1      43.932 -16.494   2.512  1.00  0.00     0.016 A 
HETATM   11  C   UNL     1      43.028 -18.814   3.856  1.00  0.00     0.054 A 
HETATM   12  N   UNL     1      42.570 -17.187   5.722  1.00  0.00    -0.365 N 
HETATM   13  C   UNL     1      43.524 -18.882   2.551  1.00  0.00     0.036 A 
HETATM   14 CL   UNL     1      43.581 -20.409   1.755  1.00  0.00    -0.084 Cl
HETATM   15  C   UNL     1      43.971 -17.746   1.884  1.00  0.00     0.025 A 
HETATM   16  H   UNL     1      42.203 -17.827   6.413  1.00  0.00     0.165 HD
HETATM   17  C   UNL     1      42.716 -15.837   5.897  1.00  0.00     0.096 A 
ENDBRANCH   6   7
ENDBRANCH   5   6
ENDBRANCH   2   5
BRANCH   1  18
HETATM   18  C   UNL     1      39.792 -13.732   1.506  1.00  0.00     0.111 C 
HETATM   19  C   UNL     1      38.280 -13.950   1.452  1.00  0.00     0.025 C 
BRANCH  18  20
HETATM   20  C   UNL     1      40.537 -14.696   0.620  1.00  0.00     0.004 A 
HETATM   21  C   UNL     1      41.178 -14.395  -0.571  1.00  0.00     0.033 A 
HETATM   22  C   UNL     1      41.351 -13.120  -1.306  1.00  0.00     0.070 C 
HETATM   23  N   UNL     1      41.714 -15.567  -1.022  1.00  0.00    -0.282 N 
HETATM   24  H   UNL     1      42.265 -15.725  -1.857  1.00  0.00     0.189 HD
HETATM   25  N   UNL     1      41.450 -16.615  -0.234  1.00  0.00    -0.179 NA
HETATM   26  C   UNL     1      40.749 -16.099   0.782  1.00  0.00     0.060 A 
HETATM   27  C   UNL     1      40.310 -16.996   1.880  1.00  0.00     0.073 C 
ENDBRANCH  18  20
ENDBRANCH   1  18
TORSDOF 5
ENDMDL
MODEL 10
REMARK VINA RESULT:      -6.9      3.390      6.096
REMARK  5 active torsions:
REMARK  status: ('A' for Active; 'I' for Inactive)
REMARK    1  A    between atoms: C_8  and  C_9 
REMARK    2  A    between atoms: C_9  and  C_10 
REMARK       I    between atoms: C_10  and  N_11 
REMARK    3  A    between atoms: N_11  and  C_12 
REMARK    4  A    between atoms: C_12  and  C_13 
REMARK    5  A    between atoms: C_13  and  C_14 
ROOT
HETATM    1  C   UNL     1      41.786 -15.127   0.367  1.00  0.00     0.226 C 
HETATM    2  N   UNL     1      41.884 -16.480   0.121  1.00  0.00    -0.360 N 
HETATM    3  O   UNL     1      41.920 -14.666   1.501  1.00  0.00    -0.273 OA
HETATM    4  H   UNL     1      41.798 -16.840  -0.819  1.00  0.00     0.162 HD
ENDROOT
BRANCH   2   5
HETATM    5  C   UNL     1      42.187 -17.422   1.184  1.00  0.00     0.127 C 
BRANCH   5   6
HETATM    6  C   UNL     1      43.660 -17.840   1.206  1.00  0.00     0.060 C 
BRANCH   6   7
HETATM    7  C   UNL     1      43.955 -18.800   2.315  1.00  0.00    -0.029 A 
HETATM    8  C   UNL     1      43.948 -18.508   3.717  1.00  0.00    -0.002 A 
HETATM    9  C   UNL     1      44.286 -19.682   4.390  1.00  0.00     0.044 A 
HETATM   10  C   UNL     1      43.687 -17.346   4.473  1.00  0.00     0.016 A 
HETATM   11  C   UNL     1      44.380 -19.755   5.786  1.00  0.00     0.054 A 
HETATM   12  N   UNL     1      44.484 -20.653   3.436  1.00  0.00    -0.365 N 
HETATM   13  C   UNL     1      44.117 -18.587   6.508  1.00  0.00     0.036 A 
HETATM   14 CL   UNL     1      44.221 -18.624   8.228  1.00  0.00    -0.084 Cl
HETATM   15  C   UNL     1      43.775 -17.399   5.870  1.00  0.00     0.025 A 
HETATM   16  H   UNL     1      44.736 -21.611   3.637  1.00  0.00     0.165 HD
HETATM   17  C   UNL     1      44.290 -20.133   2.184  1.00  0.00     0.096 A 
ENDBRANCH   6   7
ENDBRANCH   5   6
ENDBRANCH   2   5
BRANCH   1  18
HETATM   18  C   UNL     1      41.539 -14.215  -0.845  1.00  0.00     0.111 C 
HETATM   19  C   UNL     1      42.091 -12.796  -0.714  1.00  0.00     0.025 C 
BRANCH  18  20
HETATM   20  C   UNL     1      40.094 -14.225  -1.269  1.00  0.00     0.004 A 
HETATM   21  C   UNL     1      39.575 -14.802  -2.418  1.00  0.00     0.033 A 
HETATM   22  C   UNL     1      40.214 -15.560  -3.519  1.00  0.00     0.070 C 
HETATM   23  N   UNL     1      38.230 -14.570  -2.386  1.00  0.00    -0.282 N 
HETATM   24  H   UNL     1      37.527 -14.859  -3.056  1.00  0.00     0.189 HD
HETATM   25  N   UNL     1      37.833 -13.863  -1.322  1.00  0.00    -0.179 NA
HETATM   26  C   UNL     1      38.954 -13.661  -0.620  1.00  0.00     0.060 A 
HETATM   27  C   UNL     1      38.873 -12.923   0.664  1.00  0.00     0.073 C 
ENDBRANCH  18  20
ENDBRANCH   1  18
TORSDOF 5
ENDMDL
