MODEL 1
REMARK VINA RESULT:      -9.0      0.000      0.000
REMARK  9 active torsions:
REMARK  status: ('A' for Active; 'I' for Inactive)
REMARK    1  A    between atoms: C_2  and  O_3 
REMARK    2  A    between atoms: O_3  and  C_4 
REMARK    3  A    between atoms: C_4  and  C_5 
REMARK    4  A    between atoms: C_8  and  N_9 
REMARK       I    between atoms: N_9  and  C_10 
REMARK    5  A    between atoms: C_10  and  C_11 
REMARK    6  A    between atoms: C_11  and  C_12 
REMARK    7  A    between atoms: N_13  and  C_14 
REMARK    8  A    between atoms: C_14  and  C_15 
REMARK    9  A    between atoms: N_23  and  C_24 
ROOT
HETATM    1  C   UNL     1      42.599 -15.531   2.930  1.00  0.00     0.191 C 
HETATM    2  N   UNL     1      41.834 -16.095   4.027  1.00  0.00    -0.315 N 
HETATM    3  C   UNL     1      42.006 -17.473   4.118  1.00  0.00     0.333 C 
HETATM    4  O   UNL     1      41.302 -18.171   4.832  1.00  0.00    -0.246 OA
HETATM    5  N   UNL     1      43.024 -17.848   3.265  1.00  0.00    -0.232 N 
HETATM    6  C   UNL     1      43.478 -16.735   2.586  1.00  0.00     0.256 C 
HETATM    7  O   UNL     1      44.394 -16.646   1.775  1.00  0.00    -0.270 OA
ENDROOT
BRANCH   1   8
HETATM    8  C   UNL     1      41.814 -15.182   1.669  1.00  0.00     0.138 C 
BRANCH   8   9
HETATM    9  C   UNL     1      42.071 -13.785   1.188  1.00  0.00     0.224 C 
HETATM   10  N   UNL     1      41.749 -13.323  -0.043  1.00  0.00    -0.327 N 
HETATM   11  H   UNL     1      42.139 -12.391  -0.152  1.00  0.00     0.169 HD
HETATM   12  O   UNL     1      42.657 -12.994   1.940  1.00  0.00    -0.273 OA
BRANCH  10  13
HETATM   13  C   UNL     1      40.953 -13.751  -1.118  1.00  0.00     0.034 A 
HETATM   14  C   UNL     1      41.402 -14.314  -2.309  1.00  0.00     0.030 A 
HETATM   15  C   UNL     1      40.481 -14.825  -3.243  1.00  0.00     0.020 A 
HETATM   16  C   UNL     1      39.103 -14.779  -2.996  1.00  0.00     0.039 A 
HETATM   17  C   UNL     1      38.648 -14.165  -1.830  1.00  0.00     0.020 A 
HETATM   18  C   UNL     1      39.567 -13.657  -0.905  1.00  0.00     0.030 A 
BRANCH  16  19
HETATM   19  C   UNL     1      38.176 -15.434  -3.962  1.00  0.00     0.293 C 
HETATM   20  O   UNL     1      38.538 -16.229  -4.815  1.00  0.00    -0.259 OA
BRANCH  19  21
HETATM   21  O   UNL     1      36.895 -15.075  -3.690  1.00  0.00    -0.318 OA
BRANCH  21  22
HETATM   22  C   UNL     1      36.224 -14.307  -4.699  1.00  0.00     0.174 C 
HETATM   23  C   UNL     1      36.318 -12.825  -4.392  1.00  0.00     0.034 C 
ENDBRANCH  21  22
ENDBRANCH  19  21
ENDBRANCH  16  19
ENDBRANCH  10  13
ENDBRANCH   8   9
ENDBRANCH   1   8
BRANCH   2  24
HETATM   24  C   UNL     1      40.721 -15.437   4.700  1.00  0.00     0.168 C 
BRANCH  24  25
HETATM   25  C   UNL     1      40.851 -13.948   4.853  1.00  0.00    -0.023 A 
HETATM   26  C   UNL     1      41.784 -13.372   5.706  1.00  0.00     0.125 A 
HETATM   27  N   UNL     1      41.916 -12.040   5.901  1.00  0.00    -0.273 NA
HETATM   28  C   UNL     1      41.051 -11.240   5.245  1.00  0.00     0.116 A 
HETATM   29  C   UNL     1      40.063 -11.709   4.397  1.00  0.00     0.020 A 
HETATM   30  C   UNL     1      39.962 -13.083   4.205  1.00  0.00     0.012 A 
ENDBRANCH  24  25
ENDBRANCH   2  24
BRANCH   5  31
HETATM   31  C   UNL     1      43.483 -19.191   3.083  1.00  0.00     0.047 A 
HETATM   32  C   UNL     1      44.133 -19.893   4.116  1.00  0.00     0.037 A 
HETATM   33  C   UNL     1      44.542 -21.231   3.973  1.00  0.00    -0.060 A 
HETATM   34  C   UNL     1      45.248 -21.939   5.093  1.00  0.00     0.048 C 
HETATM   35  C   UNL     1      44.324 -21.882   2.760  1.00  0.00     0.007 A 
HETATM   36  C   UNL     1      43.698 -21.208   1.716  1.00  0.00     0.003 A 
HETATM   37  C   UNL     1      43.285 -19.879   1.877  1.00  0.00     0.030 A 
ENDBRANCH   5  31
TORSDOF 9
ENDMDL
MODEL 2
REMARK VINA RESULT:      -8.6      1.976      4.317
REMARK  9 active torsions:
REMARK  status: ('A' for Active; 'I' for Inactive)
REMARK    1  A    between atoms: C_2  and  O_3 
REMARK    2  A    between atoms: O_3  and  C_4 
REMARK    3  A    between atoms: C_4  and  C_5 
REMARK    4  A    between atoms: C_8  and  N_9 
REMARK       I    between atoms: N_9  and  C_10 
REMARK    5  A    between atoms: C_10  and  C_11 
REMARK    6  A    between atoms: C_11  and  C_12 
REMARK    7  A    between atoms: N_13  and  C_14 
REMARK    8  A    between atoms: C_14  and  C_15 
REMARK    9  A    between atoms: N_23  and  C_24 
ROOT
HETATM    1  C   UNL     1      41.067 -15.560   2.802  1.00  0.00     0.191 C 
HETATM    2  N   UNL     1      42.046 -15.475   1.734  1.00  0.00    -0.315 N 
HETATM    3  C   UNL     1      43.010 -16.473   1.840  1.00  0.00     0.333 C 
HETATM    4  O   UNL     1      44.034 -16.462   1.172  1.00  0.00    -0.246 OA
HETATM    5  N   UNL     1      42.614 -17.369   2.811  1.00  0.00    -0.232 N 
HETATM    6  C   UNL     1      41.428 -16.935   3.369  1.00  0.00     0.256 C 
HETATM    7  O   UNL     1      40.738 -17.471   4.230  1.00  0.00    -0.270 OA
ENDROOT
BRANCH   1   8
HETATM    8  C   UNL     1      41.223 -14.557   3.941  1.00  0.00     0.138 C 
BRANCH   8   9
HETATM    9  C   UNL     1      39.925 -13.916   4.336  1.00  0.00     0.224 C 
HETATM   10  N   UNL     1      39.100 -13.259   3.486  1.00  0.00    -0.327 N 
HETATM   11  H   UNL     1      38.361 -12.821   4.027  1.00  0.00     0.169 HD
HETATM   12  O   UNL     1      39.585 -13.942   5.527  1.00  0.00    -0.273 OA
BRANCH  10  13
HETATM   13  C   UNL     1      38.961 -13.131   2.095  1.00  0.00     0.034 A 
HETATM   14  C   UNL     1      38.272 -13.994   1.248  1.00  0.00     0.030 A 
HETATM   15  C   UNL     1      38.098 -13.667  -0.110  1.00  0.00     0.020 A 
HETATM   16  C   UNL     1      38.610 -12.474  -0.635  1.00  0.00     0.039 A 
HETATM   17  C   UNL     1      39.350 -11.634   0.197  1.00  0.00     0.020 A 
HETATM   18  C   UNL     1      39.521 -11.964   1.546  1.00  0.00     0.030 A 
BRANCH  16  19
HETATM   19  C   UNL     1      38.302 -12.118  -2.049  1.00  0.00     0.293 C 
HETATM   20  O   UNL     1      38.952 -11.317  -2.702  1.00  0.00    -0.259 OA
BRANCH  19  21
HETATM   21  O   UNL     1      37.265 -12.869  -2.500  1.00  0.00    -0.318 OA
BRANCH  21  22
HETATM   22  C   UNL     1      37.475 -13.559  -3.741  1.00  0.00     0.174 C 
HETATM   23  C   UNL     1      37.318 -15.055  -3.553  1.00  0.00     0.034 C 
ENDBRANCH  21  22
ENDBRANCH  19  21
ENDBRANCH  16  19
ENDBRANCH  10  13
ENDBRANCH   8   9
ENDBRANCH   1   8
BRANCH   2  24
HETATM   24  C   UNL     1      42.273 -14.305   0.895  1.00  0.00     0.168 C 
BRANCH  24  25
HETATM   25  C   UNL     1      41.789 -14.425  -0.522  1.00  0.00    -0.023 A 
HETATM   26  C   UNL     1      41.130 -15.558  -0.984  1.00  0.00     0.125 A 
HETATM   27  N   UNL     1      40.706 -15.725  -2.257  1.00  0.00    -0.273 NA
HETATM   28  C   UNL     1      40.982 -14.732  -3.127  1.00  0.00     0.116 A 
HETATM   29  C   UNL     1      41.660 -13.576  -2.781  1.00  0.00     0.020 A 
HETATM   30  C   UNL     1      42.071 -13.426  -1.461  1.00  0.00     0.012 A 
ENDBRANCH  24  25
ENDBRANCH   2  24
BRANCH   5  31
HETATM   31  C   UNL     1      43.355 -18.527   3.205  1.00  0.00     0.047 A 
HETATM   32  C   UNL     1      43.460 -19.654   2.367  1.00  0.00     0.037 A 
HETATM   33  C   UNL     1      44.229 -20.780   2.715  1.00  0.00    -0.060 A 
HETATM   34  C   UNL     1      44.301 -21.969   1.801  1.00  0.00     0.048 C 
HETATM   35  C   UNL     1      44.892 -20.797   3.941  1.00  0.00     0.007 A 
HETATM   36  C   UNL     1      44.794 -19.703   4.795  1.00  0.00     0.003 A 
HETATM   37  C   UNL     1      44.034 -18.585   4.431  1.00  0.00     0.030 A 
ENDBRANCH   5  31
TORSDOF 9
ENDMDL
MODEL 3
REMARK VINA RESULT:      -8.6      2.582      4.966
REMARK  9 active torsions:
REMARK  status: ('A' for Active; 'I' for Inactive)
REMARK    1  A    between atoms: C_2  and  O_3 
REMARK    2  A    between atoms: O_3  and  C_4 
REMARK    3  A    between atoms: C_4  and  C_5 
REMARK    4  A    between atoms: C_8  and  N_9 
REMARK       I    between atoms: N_9  and  C_10 
REMARK    5  A    between atoms: C_10  and  C_11 
REMARK    6  A    between atoms: C_11  and  C_12 
REMARK    7  A    between atoms: N_13  and  C_14 
REMARK    8  A    between atoms: C_14  and  C_15 
REMARK    9  A    between atoms: N_23  and  C_24 
ROOT
HETATM    1  C   UNL     1      41.769 -15.513   2.209  1.00  0.00     0.191 C 
HETATM    2  N   UNL     1      41.257 -15.754   3.545  1.00  0.00    -0.315 N 
HETATM    3  C   UNL     1      41.718 -16.960   4.063  1.00  0.00     0.333 C 
HETATM    4  O   UNL     1      41.252 -17.454   5.079  1.00  0.00    -0.246 OA
HETATM    5  N   UNL     1      42.697 -17.455   3.225  1.00  0.00    -0.232 N 
HETATM    6  C   UNL     1      42.838 -16.606   2.145  1.00  0.00     0.256 C 
HETATM    7  O   UNL     1      43.626 -16.675   1.207  1.00  0.00    -0.270 OA
ENDROOT
BRANCH   1   8
HETATM    8  C   UNL     1      40.802 -15.771   1.058  1.00  0.00     0.138 C 
BRANCH   8   9
HETATM    9  C   UNL     1      40.892 -14.736  -0.023  1.00  0.00     0.224 C 
HETATM   10  N   UNL     1      40.523 -13.441   0.118  1.00  0.00    -0.327 N 
HETATM   11  H   UNL     1      40.569 -12.990  -0.791  1.00  0.00     0.169 HD
HETATM   12  O   UNL     1      41.288 -15.078  -1.146  1.00  0.00    -0.273 OA
BRANCH  10  13
HETATM   13  C   UNL     1      40.212 -12.579   1.182  1.00  0.00     0.034 A 
HETATM   14  C   UNL     1      41.087 -11.709   1.826  1.00  0.00     0.030 A 
HETATM   15  C   UNL     1      40.604 -10.801   2.788  1.00  0.00     0.020 A 
HETATM   16  C   UNL     1      39.244 -10.754   3.116  1.00  0.00     0.039 A 
HETATM   17  C   UNL     1      38.374 -11.663   2.514  1.00  0.00     0.020 A 
HETATM   18  C   UNL     1      38.858 -12.564   1.559  1.00  0.00     0.030 A 
BRANCH  16  19
HETATM   19  C   UNL     1      38.764  -9.701   4.055  1.00  0.00     0.293 C 
HETATM   20  O   UNL     1      37.782  -9.826   4.769  1.00  0.00    -0.259 OA
BRANCH  19  21
HETATM   21  O   UNL     1      39.619  -8.647   4.044  1.00  0.00    -0.318 OA
BRANCH  21  22
HETATM   22  C   UNL     1      40.107  -8.212   5.322  1.00  0.00     0.174 C 
HETATM   23  C   UNL     1      41.619  -8.297   5.374  1.00  0.00     0.034 C 
ENDBRANCH  21  22
ENDBRANCH  19  21
ENDBRANCH  16  19
ENDBRANCH  10  13
ENDBRANCH   8   9
ENDBRANCH   1   8
BRANCH   2  24
HETATM   24  C   UNL     1      40.109 -15.079   4.138  1.00  0.00     0.168 C 
BRANCH  24  25
HETATM   25  C   UNL     1      40.433 -13.883   4.987  1.00  0.00    -0.023 A 
HETATM   26  C   UNL     1      41.732 -13.412   5.134  1.00  0.00     0.125 A 
HETATM   27  N   UNL     1      42.077 -12.361   5.912  1.00  0.00    -0.273 NA
HETATM   28  C   UNL     1      41.086 -11.770   6.612  1.00  0.00     0.116 A 
HETATM   29  C   UNL     1      39.765 -12.178   6.564  1.00  0.00     0.020 A 
HETATM   30  C   UNL     1      39.439 -13.252   5.743  1.00  0.00     0.012 A 
ENDBRANCH  24  25
ENDBRANCH   2  24
BRANCH   5  31
HETATM   31  C   UNL     1      43.401 -18.683   3.428  1.00  0.00     0.047 A 
HETATM   32  C   UNL     1      43.414 -19.695   2.449  1.00  0.00     0.037 A 
HETATM   33  C   UNL     1      44.146 -20.886   2.609  1.00  0.00    -0.060 A 
HETATM   34  C   UNL     1      44.119 -21.948   1.548  1.00  0.00     0.048 C 
HETATM   35  C   UNL     1      44.862 -21.090   3.786  1.00  0.00     0.007 A 
HETATM   36  C   UNL     1      44.856 -20.114   4.778  1.00  0.00     0.003 A 
HETATM   37  C   UNL     1      44.132 -18.927   4.600  1.00  0.00     0.030 A 
ENDBRANCH   5  31
TORSDOF 9
ENDMDL
MODEL 4
REMARK VINA RESULT:      -8.4      3.623      8.706
REMARK  9 active torsions:
REMARK  status: ('A' for Active; 'I' for Inactive)
REMARK    1  A    between atoms: C_2  and  O_3 
REMARK    2  A    between atoms: O_3  and  C_4 
REMARK    3  A    between atoms: C_4  and  C_5 
REMARK    4  A    between atoms: C_8  and  N_9 
REMARK       I    between atoms: N_9  and  C_10 
REMARK    5  A    between atoms: C_10  and  C_11 
REMARK    6  A    between atoms: C_11  and  C_12 
REMARK    7  A    between atoms: N_13  and  C_14 
REMARK    8  A    between atoms: C_14  and  C_15 
REMARK    9  A    between atoms: N_23  and  C_24 
ROOT
HETATM    1  C   UNL     1      41.352 -14.205   4.419  1.00  0.00     0.191 C 
HETATM    2  N   UNL     1      42.461 -14.205   5.354  1.00  0.00    -0.315 N 
HETATM    3  C   UNL     1      42.447 -13.077   6.167  1.00  0.00     0.333 C 
HETATM    4  O   UNL     1      43.395 -12.774   6.878  1.00  0.00    -0.246 OA
HETATM    5  N   UNL     1      41.255 -12.409   5.977  1.00  0.00    -0.232 N 
HETATM    6  C   UNL     1      40.519 -13.066   5.011  1.00  0.00     0.256 C 
HETATM    7  O   UNL     1      39.395 -12.812   4.592  1.00  0.00    -0.270 OA
ENDROOT
BRANCH   1   8
HETATM    8  C   UNL     1      41.680 -13.811   2.981  1.00  0.00     0.138 C 
BRANCH   8   9
HETATM    9  C   UNL     1      40.928 -14.621   1.968  1.00  0.00     0.224 C 
HETATM   10  N   UNL     1      41.250 -15.884   1.599  1.00  0.00    -0.327 N 
HETATM   11  H   UNL     1      40.661 -16.153   0.816  1.00  0.00     0.169 HD
HETATM   12  O   UNL     1      39.966 -14.103   1.384  1.00  0.00    -0.273 OA
BRANCH  10  13
HETATM   13  C   UNL     1      42.084 -16.906   2.079  1.00  0.00     0.034 A 
HETATM   14  C   UNL     1      41.932 -17.608   3.272  1.00  0.00     0.030 A 
HETATM   15  C   UNL     1      42.767 -18.703   3.561  1.00  0.00     0.020 A 
HETATM   16  C   UNL     1      43.762 -19.109   2.663  1.00  0.00     0.039 A 
HETATM   17  C   UNL     1      43.955 -18.373   1.494  1.00  0.00     0.020 A 
HETATM   18  C   UNL     1      43.123 -17.284   1.211  1.00  0.00     0.030 A 
BRANCH  16  19
HETATM   19  C   UNL     1      44.544 -20.342   2.961  1.00  0.00     0.293 C 
HETATM   20  O   UNL     1      44.888 -21.148   2.111  1.00  0.00    -0.259 OA
BRANCH  19  21
HETATM   21  O   UNL     1      44.869 -20.377   4.279  1.00  0.00    -0.318 OA
BRANCH  21  22
HETATM   22  C   UNL     1      44.909 -21.676   4.888  1.00  0.00     0.174 C 
HETATM   23  C   UNL     1      44.213 -21.656   6.234  1.00  0.00     0.034 C 
ENDBRANCH  21  22
ENDBRANCH  19  21
ENDBRANCH  16  19
ENDBRANCH  10  13
ENDBRANCH   8   9
ENDBRANCH   1   8
BRANCH   2  24
HETATM   24  C   UNL     1      43.665 -15.019   5.229  1.00  0.00     0.168 C 
BRANCH  24  25
HETATM   25  C   UNL     1      43.717 -16.230   6.115  1.00  0.00    -0.023 A 
HETATM   26  C   UNL     1      42.693 -16.541   7.002  1.00  0.00     0.125 A 
HETATM   27  N   UNL     1      42.710 -17.601   7.842  1.00  0.00    -0.273 NA
HETATM   28  C   UNL     1      43.818 -18.372   7.828  1.00  0.00     0.116 A 
HETATM   29  C   UNL     1      44.907 -18.135   7.008  1.00  0.00     0.020 A 
HETATM   30  C   UNL     1      44.854 -17.046   6.144  1.00  0.00     0.012 A 
ENDBRANCH  24  25
ENDBRANCH   2  24
BRANCH   5  31
HETATM   31  C   UNL     1      40.882 -11.198   6.640  1.00  0.00     0.047 A 
HETATM   32  C   UNL     1      41.427  -9.955   6.264  1.00  0.00     0.037 A 
HETATM   33  C   UNL     1      41.033  -8.747   6.868  1.00  0.00    -0.060 A 
HETATM   34  C   UNL     1      41.651  -7.445   6.449  1.00  0.00     0.048 C 
HETATM   35  C   UNL     1      40.090  -8.778   7.893  1.00  0.00     0.007 A 
HETATM   36  C   UNL     1      39.545  -9.993   8.297  1.00  0.00     0.003 A 
HETATM   37  C   UNL     1      39.939 -11.187   7.678  1.00  0.00     0.030 A 
ENDBRANCH   5  31
TORSDOF 9
ENDMDL
MODEL 5
REMARK VINA RESULT:      -8.3      4.717      8.155
REMARK  9 active torsions:
REMARK  status: ('A' for Active; 'I' for Inactive)
REMARK    1  A    between atoms: C_2  and  O_3 
REMARK    2  A    between atoms: O_3  and  C_4 
REMARK    3  A    between atoms: C_4  and  C_5 
REMARK    4  A    between atoms: C_8  and  N_9 
REMARK       I    between atoms: N_9  and  C_10 
REMARK    5  A    between atoms: C_10  and  C_11 
REMARK    6  A    between atoms: C_11  and  C_12 
REMARK    7  A    between atoms: N_13  and  C_14 
REMARK    8  A    between atoms: C_14  and  C_15 
REMARK    9  A    between atoms: N_23  and  C_24 
ROOT
HETATM    1  C   UNL     1      42.530 -15.065   5.014  1.00  0.00     0.191 C 
HETATM    2  N   UNL     1      43.447 -15.474   6.061  1.00  0.00    -0.315 N 
HETATM    3  C   UNL     1      43.942 -16.756   5.838  1.00  0.00     0.333 C 
HETATM    4  O   UNL     1      44.562 -17.373   6.692  1.00  0.00    -0.246 OA
HETATM    5  N   UNL     1      43.570 -17.159   4.572  1.00  0.00    -0.232 N 
HETATM    6  C   UNL     1      42.798 -16.172   3.992  1.00  0.00     0.256 C 
HETATM    7  O   UNL     1      42.312 -16.133   2.867  1.00  0.00    -0.270 OA
ENDROOT
BRANCH   1   8
HETATM    8  C   UNL     1      41.044 -15.127   5.355  1.00  0.00     0.138 C 
BRANCH   8   9
HETATM    9  C   UNL     1      40.233 -14.103   4.620  1.00  0.00     0.224 C 
HETATM   10  N   UNL     1      39.823 -12.924   5.145  1.00  0.00    -0.327 N 
HETATM   11  H   UNL     1      39.192 -12.477   4.486  1.00  0.00     0.169 HD
HETATM   12  O   UNL     1      39.864 -14.351   3.464  1.00  0.00    -0.273 OA
BRANCH  10  13
HETATM   13  C   UNL     1      40.126 -12.151   6.277  1.00  0.00     0.034 A 
HETATM   14  C   UNL     1      39.299 -11.928   7.374  1.00  0.00     0.030 A 
HETATM   15  C   UNL     1      39.788 -11.244   8.503  1.00  0.00     0.020 A 
HETATM   16  C   UNL     1      41.107 -10.775   8.547  1.00  0.00     0.039 A 
HETATM   17  C   UNL     1      41.920 -10.946   7.428  1.00  0.00     0.020 A 
HETATM   18  C   UNL     1      41.430 -11.626   6.308  1.00  0.00     0.030 A 
BRANCH  16  19
HETATM   19  C   UNL     1      41.611 -10.158   9.807  1.00  0.00     0.293 C 
HETATM   20  O   UNL     1      41.639  -8.954  10.007  1.00  0.00    -0.259 OA
BRANCH  19  21
HETATM   21  O   UNL     1      41.946 -11.128  10.696  1.00  0.00    -0.318 OA
BRANCH  21  22
HETATM   22  C   UNL     1      43.190 -10.950  11.389  1.00  0.00     0.174 C 
HETATM   23  C   UNL     1      42.975 -10.977  12.889  1.00  0.00     0.034 C 
ENDBRANCH  21  22
ENDBRANCH  19  21
ENDBRANCH  16  19
ENDBRANCH  10  13
ENDBRANCH   8   9
ENDBRANCH   1   8
BRANCH   2  24
HETATM   24  C   UNL     1      43.552 -14.854   7.376  1.00  0.00     0.168 C 
BRANCH  24  25
HETATM   25  C   UNL     1      44.655 -13.845   7.525  1.00  0.00    -0.023 A 
HETATM   26  C   UNL     1      45.703 -13.757   6.616  1.00  0.00     0.125 A 
HETATM   27  N   UNL     1      46.734 -12.889   6.727  1.00  0.00    -0.273 NA
HETATM   28  C   UNL     1      46.746 -12.092   7.815  1.00  0.00     0.116 A 
HETATM   29  C   UNL     1      45.771 -12.119   8.796  1.00  0.00     0.020 A 
HETATM   30  C   UNL     1      44.715 -13.012   8.648  1.00  0.00     0.012 A 
ENDBRANCH  24  25
ENDBRANCH   2  24
BRANCH   5  31
HETATM   31  C   UNL     1      43.893 -18.426   3.991  1.00  0.00     0.047 A 
HETATM   32  C   UNL     1      44.297 -19.517   4.783  1.00  0.00     0.037 A 
HETATM   33  C   UNL     1      44.566 -20.785   4.235  1.00  0.00    -0.060 A 
HETATM   34  C   UNL     1      45.012 -21.918   5.112  1.00  0.00     0.048 C 
HETATM   35  C   UNL     1      44.456 -20.966   2.857  1.00  0.00     0.007 A 
HETATM   36  C   UNL     1      44.073 -19.901   2.048  1.00  0.00     0.003 A 
HETATM   37  C   UNL     1      43.797 -18.647   2.609  1.00  0.00     0.030 A 
ENDBRANCH   5  31
TORSDOF 9
ENDMDL
MODEL 6
REMARK VINA RESULT:      -8.3      2.264      4.984
REMARK  9 active torsions:
REMARK  status: ('A' for Active; 'I' for Inactive)
REMARK    1  A    between atoms: C_2  and  O_3 
REMARK    2  A    between atoms: O_3  and  C_4 
REMARK    3  A    between atoms: C_4  and  C_5 
REMARK    4  A    between atoms: C_8  and  N_9 
REMARK       I    between atoms: N_9  and  C_10 
REMARK    5  A    between atoms: C_10  and  C_11 
REMARK    6  A    between atoms: C_11  and  C_12 
REMARK    7  A    between atoms: N_13  and  C_14 
REMARK    8  A    between atoms: C_14  and  C_15 
REMARK    9  A    between atoms: N_23  and  C_24 
ROOT
HETATM    1  C   UNL     1      41.105 -15.572   3.376  1.00  0.00     0.191 C 
HETATM    2  N   UNL     1      41.831 -15.520   2.120  1.00  0.00    -0.315 N 
HETATM    3  C   UNL     1      42.743 -16.565   2.010  1.00  0.00     0.333 C 
HETATM    4  O   UNL     1      43.596 -16.596   1.135  1.00  0.00    -0.246 OA
HETATM    5  N   UNL     1      42.521 -17.455   3.041  1.00  0.00    -0.232 N 
HETATM    6  C   UNL     1      41.510 -16.971   3.846  1.00  0.00     0.256 C 
HETATM    7  O   UNL     1      40.997 -17.486   4.835  1.00  0.00    -0.270 OA
ENDROOT
BRANCH   1   8
HETATM    8  C   UNL     1      41.556 -14.595   4.458  1.00  0.00     0.138 C 
BRANCH   8   9
HETATM    9  C   UNL     1      40.409 -13.931   5.160  1.00  0.00     0.224 C 
HETATM   10  N   UNL     1      39.835 -12.768   4.770  1.00  0.00    -0.327 N 
HETATM   11  H   UNL     1      39.170 -12.481   5.481  1.00  0.00     0.169 HD
HETATM   12  O   UNL     1      39.967 -14.445   6.197  1.00  0.00    -0.273 OA
BRANCH  10  13
HETATM   13  C   UNL     1      39.854 -11.956   3.625  1.00  0.00     0.034 A 
HETATM   14  C   UNL     1      40.980 -11.414   3.012  1.00  0.00     0.030 A 
HETATM   15  C   UNL     1      40.861 -10.730   1.787  1.00  0.00     0.020 A 
HETATM   16  C   UNL     1      39.616 -10.581   1.163  1.00  0.00     0.039 A 
HETATM   17  C   UNL     1      38.478 -11.072   1.803  1.00  0.00     0.020 A 
HETATM   18  C   UNL     1      38.602 -11.750   3.020  1.00  0.00     0.030 A 
BRANCH  16  19
HETATM   19  C   UNL     1      39.556  -9.950  -0.186  1.00  0.00     0.293 C 
HETATM   20  O   UNL     1      39.128  -8.825  -0.389  1.00  0.00    -0.259 OA
BRANCH  19  21
HETATM   21  O   UNL     1      40.114 -10.775  -1.108  1.00  0.00    -0.318 OA
BRANCH  21  22
HETATM   22  C   UNL     1      41.139 -10.204  -1.934  1.00  0.00     0.174 C 
HETATM   23  C   UNL     1      42.487 -10.817  -1.613  1.00  0.00     0.034 C 
ENDBRANCH  21  22
ENDBRANCH  19  21
ENDBRANCH  16  19
ENDBRANCH  10  13
ENDBRANCH   8   9
ENDBRANCH   1   8
BRANCH   2  24
HETATM   24  C   UNL     1      41.931 -14.350   1.256  1.00  0.00     0.168 C 
BRANCH  24  25
HETATM   25  C   UNL     1      40.930 -14.290   0.137  1.00  0.00    -0.023 A 
HETATM   26  C   UNL     1      41.316 -14.287  -1.198  1.00  0.00     0.125 A 
HETATM   27  N   UNL     1      40.454 -14.201  -2.237  1.00  0.00    -0.273 NA
HETATM   28  C   UNL     1      39.146 -14.072  -1.936  1.00  0.00     0.116 A 
HETATM   29  C   UNL     1      38.657 -14.032  -0.642  1.00  0.00     0.020 A 
HETATM   30  C   UNL     1      39.565 -14.138   0.406  1.00  0.00     0.012 A 
ENDBRANCH  24  25
ENDBRANCH   2  24
BRANCH   5  31
HETATM   31  C   UNL     1      43.270 -18.654   3.260  1.00  0.00     0.047 A 
HETATM   32  C   UNL     1      43.284 -19.696   2.313  1.00  0.00     0.037 A 
HETATM   33  C   UNL     1      44.057 -20.859   2.486  1.00  0.00    -0.060 A 
HETATM   34  C   UNL     1      44.030 -21.955   1.461  1.00  0.00     0.048 C 
HETATM   35  C   UNL     1      44.818 -21.002   3.645  1.00  0.00     0.007 A 
HETATM   36  C   UNL     1      44.812 -19.995   4.605  1.00  0.00     0.003 A 
HETATM   37  C   UNL     1      44.046 -18.837   4.414  1.00  0.00     0.030 A 
ENDBRANCH   5  31
TORSDOF 9
ENDMDL
MODEL 7
REMARK VINA RESULT:      -8.2      3.082      8.427
REMARK  9 active torsions:
REMARK  status: ('A' for Active; 'I' for Inactive)
REMARK    1  A    between atoms: C_2  and  O_3 
REMARK    2  A    between atoms: O_3  and  C_4 
REMARK    3  A    between atoms: C_4  and  C_5 
REMARK    4  A    between atoms: C_8  and  N_9 
REMARK       I    between atoms: N_9  and  C_10 
REMARK    5  A    between atoms: C_10  and  C_11 
REMARK    6  A    between atoms: C_11  and  C_12 
REMARK    7  A    between atoms: N_13  and  C_14 
REMARK    8  A    between atoms: C_14  and  C_15 
REMARK    9  A    between atoms: N_23  and  C_24 
ROOT
HETATM    1  C   UNL     1      40.798 -13.943   2.814  1.00  0.00     0.191 C 
HETATM    2  N   UNL     1      41.717 -13.779   3.925  1.00  0.00    -0.315 N 
HETATM    3  C   UNL     1      41.575 -12.534   4.530  1.00  0.00     0.333 C 
HETATM    4  O   UNL     1      42.382 -12.110   5.345  1.00  0.00    -0.246 OA
HETATM    5  N   UNL     1      40.450 -11.920   4.019  1.00  0.00    -0.232 N 
HETATM    6  C   UNL     1      39.892 -12.733   3.052  1.00  0.00     0.256 C 
HETATM    7  O   UNL     1      38.869 -12.562   2.397  1.00  0.00    -0.270 OA
ENDROOT
BRANCH   1   8
HETATM    8  C   UNL     1      41.392 -13.783   1.418  1.00  0.00     0.138 C 
BRANCH   8   9
HETATM    9  C   UNL     1      40.978 -14.877   0.479  1.00  0.00     0.224 C 
HETATM   10  N   UNL     1      41.439 -16.149   0.529  1.00  0.00    -0.327 N 
HETATM   11  H   UNL     1      41.097 -16.649  -0.286  1.00  0.00     0.169 HD
HETATM   12  O   UNL     1      40.194 -14.609  -0.441  1.00  0.00    -0.273 OA
BRANCH  10  13
HETATM   13  C   UNL     1      42.150 -16.941   1.444  1.00  0.00     0.034 A 
HETATM   14  C   UNL     1      41.617 -17.640   2.525  1.00  0.00     0.030 A 
HETATM   15  C   UNL     1      42.430 -18.507   3.279  1.00  0.00     0.020 A 
HETATM   16  C   UNL     1      43.783 -18.685   2.961  1.00  0.00     0.039 A 
HETATM   17  C   UNL     1      44.333 -17.944   1.916  1.00  0.00     0.020 A 
HETATM   18  C   UNL     1      43.521 -17.083   1.170  1.00  0.00     0.030 A 
BRANCH  16  19
HETATM   19  C   UNL     1      44.573 -19.698   3.717  1.00  0.00     0.293 C 
HETATM   20  O   UNL     1      44.662 -19.717   4.934  1.00  0.00    -0.259 OA
BRANCH  19  21
HETATM   21  O   UNL     1      45.092 -20.614   2.860  1.00  0.00    -0.318 OA
BRANCH  21  22
HETATM   22  C   UNL     1      44.352 -21.834   2.710  1.00  0.00     0.174 C 
HETATM   23  C   UNL     1      43.915 -22.021   1.271  1.00  0.00     0.034 C 
ENDBRANCH  21  22
ENDBRANCH  19  21
ENDBRANCH  16  19
ENDBRANCH  10  13
ENDBRANCH   8   9
ENDBRANCH   1   8
BRANCH   2  24
HETATM   24  C   UNL     1      42.907 -14.588   4.157  1.00  0.00     0.168 C 
BRANCH  24  25
HETATM   25  C   UNL     1      42.796 -15.591   5.270  1.00  0.00    -0.023 A 
HETATM   26  C   UNL     1      41.571 -15.968   5.805  1.00  0.00     0.125 A 
HETATM   27  N   UNL     1      41.424 -16.841   6.827  1.00  0.00    -0.273 NA
HETATM   28  C   UNL     1      42.554 -17.337   7.373  1.00  0.00     0.116 A 
HETATM   29  C   UNL     1      43.825 -17.004   6.939  1.00  0.00     0.020 A 
HETATM   30  C   UNL     1      43.944 -16.115   5.876  1.00  0.00     0.012 A 
ENDBRANCH  24  25
ENDBRANCH   2  24
BRANCH   5  31
HETATM   31  C   UNL     1      39.985 -10.621   4.398  1.00  0.00     0.047 A 
HETATM   32  C   UNL     1      39.568 -10.344   5.714  1.00  0.00     0.037 A 
HETATM   33  C   UNL     1      39.159  -9.060   6.118  1.00  0.00    -0.060 A 
HETATM   34  C   UNL     1      38.706  -8.810   7.527  1.00  0.00     0.048 C 
HETATM   35  C   UNL     1      39.138  -8.028   5.182  1.00  0.00     0.007 A 
HETATM   36  C   UNL     1      39.530  -8.276   3.870  1.00  0.00     0.003 A 
HETATM   37  C   UNL     1      39.946  -9.557   3.484  1.00  0.00     0.030 A 
ENDBRANCH   5  31
TORSDOF 9
ENDMDL
MODEL 8
REMARK VINA RESULT:      -8.1      3.112      8.996
REMARK  9 active torsions:
REMARK  status: ('A' for Active; 'I' for Inactive)
REMARK    1  A    between atoms: C_2  and  O_3 
REMARK    2  A    between atoms: O_3  and  C_4 
REMARK    3  A    between atoms: C_4  and  C_5 
REMARK    4  A    between atoms: C_8  and  N_9 
REMARK       I    between atoms: N_9  and  C_10 
REMARK    5  A    between atoms: C_10  and  C_11 
REMARK    6  A    between atoms: C_11  and  C_12 
REMARK    7  A    between atoms: N_13  and  C_14 
REMARK    8  A    between atoms: C_14  and  C_15 
REMARK    9  A    between atoms: N_23  and  C_24 
ROOT
HETATM    1  C   UNL     1      40.923 -13.800   3.283  1.00  0.00     0.191 C 
HETATM    2  N   UNL     1      41.019 -14.626   2.095  1.00  0.00    -0.315 N 
HETATM    3  C   UNL     1      41.006 -13.860   0.933  1.00  0.00     0.333 C 
HETATM    4  O   UNL     1      40.870 -14.359  -0.175  1.00  0.00    -0.246 OA
HETATM    5  N   UNL     1      41.121 -12.530   1.280  1.00  0.00    -0.232 N 
HETATM    6  C   UNL     1      41.159 -12.424   2.656  1.00  0.00     0.256 C 
HETATM    7  O   UNL     1      41.295 -11.421   3.349  1.00  0.00    -0.270 OA
ENDROOT
BRANCH   1   8
HETATM    8  C   UNL     1      39.557 -13.748   3.961  1.00  0.00     0.138 C 
BRANCH   8   9
HETATM    9  C   UNL     1      39.648 -13.753   5.458  1.00  0.00     0.224 C 
HETATM   10  N   UNL     1      40.423 -14.597   6.180  1.00  0.00    -0.327 N 
HETATM   11  H   UNL     1      40.208 -14.473   7.165  1.00  0.00     0.169 HD
HETATM   12  O   UNL     1      38.940 -12.967   6.102  1.00  0.00    -0.273 OA
BRANCH  10  13
HETATM   13  C   UNL     1      41.481 -15.483   5.921  1.00  0.00     0.034 A 
HETATM   14  C   UNL     1      42.836 -15.166   5.880  1.00  0.00     0.030 A 
HETATM   15  C   UNL     1      43.799 -16.184   5.745  1.00  0.00     0.020 A 
HETATM   16  C   UNL     1      43.418 -17.529   5.651  1.00  0.00     0.039 A 
HETATM   17  C   UNL     1      42.060 -17.844   5.634  1.00  0.00     0.020 A 
HETATM   18  C   UNL     1      41.107 -16.829   5.768  1.00  0.00     0.030 A 
BRANCH  16  19
HETATM   19  C   UNL     1      44.476 -18.578   5.625  1.00  0.00     0.293 C 
HETATM   20  O   UNL     1      45.627 -18.388   5.985  1.00  0.00    -0.259 OA
BRANCH  19  21
HETATM   21  O   UNL     1      43.946 -19.761   5.223  1.00  0.00    -0.318 OA
BRANCH  21  22
HETATM   22  C   UNL     1      44.873 -20.734   4.721  1.00  0.00     0.174 C 
HETATM   23  C   UNL     1      44.671 -22.069   5.409  1.00  0.00     0.034 C 
ENDBRANCH  21  22
ENDBRANCH  19  21
ENDBRANCH  16  19
ENDBRANCH  10  13
ENDBRANCH   8   9
ENDBRANCH   1   8
BRANCH   2  24
HETATM   24  C   UNL     1      40.755 -16.059   2.045  1.00  0.00     0.168 C 
BRANCH  24  25
HETATM   25  C   UNL     1      41.973 -16.938   2.030  1.00  0.00    -0.023 A 
HETATM   26  C   UNL     1      43.261 -16.415   2.016  1.00  0.00     0.125 A 
HETATM   27  N   UNL     1      44.385 -17.165   1.970  1.00  0.00    -0.273 NA
HETATM   28  C   UNL     1      44.224 -18.502   1.894  1.00  0.00     0.116 A 
HETATM   29  C   UNL     1      42.989 -19.125   1.869  1.00  0.00     0.020 A 
HETATM   30  C   UNL     1      41.850 -18.328   1.933  1.00  0.00     0.012 A 
ENDBRANCH  24  25
ENDBRANCH   2  24
BRANCH   5  31
HETATM   31  C   UNL     1      41.139 -11.442   0.351  1.00  0.00     0.047 A 
HETATM   32  C   UNL     1      42.344 -10.833  -0.047  1.00  0.00     0.037 A 
HETATM   33  C   UNL     1      42.385  -9.799  -1.000  1.00  0.00    -0.060 A 
HETATM   34  C   UNL     1      43.690  -9.164  -1.384  1.00  0.00     0.048 C 
HETATM   35  C   UNL     1      41.192  -9.339  -1.553  1.00  0.00     0.007 A 
HETATM   36  C   UNL     1      39.984  -9.912  -1.168  1.00  0.00     0.003 A 
HETATM   37  C   UNL     1      39.959 -10.949  -0.226  1.00  0.00     0.030 A 
ENDBRANCH   5  31
TORSDOF 9
ENDMDL
MODEL 9
REMARK VINA RESULT:      -8.1      2.403      8.905
REMARK  9 active torsions:
REMARK  status: ('A' for Active; 'I' for Inactive)
REMARK    1  A    between atoms: C_2  and  O_3 
REMARK    2  A    between atoms: O_3  and  C_4 
REMARK    3  A    between atoms: C_4  and  C_5 
REMARK    4  A    between atoms: C_8  and  N_9 
REMARK       I    between atoms: N_9  and  C_10 
REMARK    5  A    between atoms: C_10  and  C_11 
REMARK    6  A    between atoms: C_11  and  C_12 
REMARK    7  A    between atoms: N_13  and  C_14 
REMARK    8  A    between atoms: C_14  and  C_15 
REMARK    9  A    between atoms: N_23  and  C_24 
ROOT
HETATM    1  C   UNL     1      40.990 -14.013   2.106  1.00  0.00     0.191 C 
HETATM    2  N   UNL     1      41.069 -15.233   1.326  1.00  0.00    -0.315 N 
HETATM    3  C   UNL     1      41.118 -14.968  -0.040  1.00  0.00     0.333 C 
HETATM    4  O   UNL     1      40.981 -15.846  -0.879  1.00  0.00    -0.246 OA
HETATM    5  N   UNL     1      41.293 -13.611  -0.220  1.00  0.00    -0.232 N 
HETATM    6  C   UNL     1      41.307 -12.990   1.013  1.00  0.00     0.256 C 
HETATM    7  O   UNL     1      41.479 -11.805   1.278  1.00  0.00    -0.270 OA
ENDROOT
BRANCH   1   8
HETATM    8  C   UNL     1      39.614 -13.655   2.661  1.00  0.00     0.138 C 
BRANCH   8   9
HETATM    9  C   UNL     1      39.686 -12.812   3.900  1.00  0.00     0.224 C 
HETATM   10  N   UNL     1      40.219 -13.217   5.077  1.00  0.00    -0.327 N 
HETATM   11  H   UNL     1      40.032 -12.507   5.779  1.00  0.00     0.169 HD
HETATM   12  O   UNL     1      39.190 -11.677   3.879  1.00  0.00    -0.273 OA
BRANCH  10  13
HETATM   13  C   UNL     1      41.025 -14.278   5.520  1.00  0.00     0.034 A 
HETATM   14  C   UNL     1      42.386 -14.220   5.809  1.00  0.00     0.030 A 
HETATM   15  C   UNL     1      43.038 -15.330   6.378  1.00  0.00     0.020 A 
HETATM   16  C   UNL     1      42.337 -16.509   6.665  1.00  0.00     0.039 A 
HETATM   17  C   UNL     1      40.987 -16.590   6.325  1.00  0.00     0.020 A 
HETATM   18  C   UNL     1      40.344 -15.484   5.758  1.00  0.00     0.030 A 
BRANCH  16  19
HETATM   19  C   UNL     1      43.045 -17.614   7.371  1.00  0.00     0.293 C 
HETATM   20  O   UNL     1      43.521 -17.507   8.490  1.00  0.00    -0.259 OA
BRANCH  19  21
HETATM   21  O   UNL     1      43.001 -18.745   6.622  1.00  0.00    -0.318 OA
BRANCH  21  22
HETATM   22  C   UNL     1      44.115 -19.640   6.757  1.00  0.00     0.174 C 
HETATM   23  C   UNL     1      43.643 -21.024   7.154  1.00  0.00     0.034 C 
ENDBRANCH  21  22
ENDBRANCH  19  21
ENDBRANCH  16  19
ENDBRANCH  10  13
ENDBRANCH   8   9
ENDBRANCH   1   8
BRANCH   2  24
HETATM   24  C   UNL     1      40.735 -16.565   1.814  1.00  0.00     0.168 C 
BRANCH  24  25
HETATM   25  C   UNL     1      41.904 -17.404   2.246  1.00  0.00    -0.023 A 
HETATM   26  C   UNL     1      42.867 -16.931   3.129  1.00  0.00     0.125 A 
HETATM   27  N   UNL     1      43.952 -17.636   3.520  1.00  0.00    -0.273 NA
HETATM   28  C   UNL     1      44.111 -18.861   2.978  1.00  0.00     0.116 A 
HETATM   29  C   UNL     1      43.231 -19.416   2.066  1.00  0.00     0.020 A 
HETATM   30  C   UNL     1      42.116 -18.673   1.693  1.00  0.00     0.012 A 
ENDBRANCH  24  25
ENDBRANCH   2  24
BRANCH   5  31
HETATM   31  C   UNL     1      41.384 -12.961  -1.491  1.00  0.00     0.047 A 
HETATM   32  C   UNL     1      40.241 -12.470  -2.150  1.00  0.00     0.037 A 
HETATM   33  C   UNL     1      40.317 -11.781  -3.374  1.00  0.00    -0.060 A 
HETATM   34  C   UNL     1      39.072 -11.288  -4.053  1.00  0.00     0.048 C 
HETATM   35  C   UNL     1      41.561 -11.598  -3.974  1.00  0.00     0.007 A 
HETATM   36  C   UNL     1      42.707 -12.087  -3.353  1.00  0.00     0.003 A 
HETATM   37  C   UNL     1      42.617 -12.761  -2.129  1.00  0.00     0.030 A 
ENDBRANCH   5  31
TORSDOF 9
ENDMDL
MODEL 10
REMARK VINA RESULT:      -8.1      3.639      8.588
REMARK  9 active torsions:
REMARK  status: ('A' for Active; 'I' for Inactive)
REMARK    1  A    between atoms: C_2  and  O_3 
REMARK    2  A    between atoms: O_3  and  C_4 
REMARK    3  A    between atoms: C_4  and  C_5 
REMARK    4  A    between atoms: C_8  and  N_9 
REMARK       I    between atoms: N_9  and  C_10 
REMARK    5  A    between atoms: C_10  and  C_11 
REMARK    6  A    between atoms: C_11  and  C_12 
REMARK    7  A    between atoms: N_13  and  C_14 
REMARK    8  A    between atoms: C_14  and  C_15 
REMARK    9  A    between atoms: N_23  and  C_24 
ROOT
HETATM    1  C   UNL     1      40.229 -13.024   4.663  1.00  0.00     0.191 C 
HETATM    2  N   UNL     1      41.384 -13.061   5.540  1.00  0.00    -0.315 N 
HETATM    3  C   UNL     1      41.396 -11.981   6.419  1.00  0.00     0.333 C 
HETATM    4  O   UNL     1      42.374 -11.706   7.098  1.00  0.00    -0.246 OA
HETATM    5  N   UNL     1      40.187 -11.323   6.327  1.00  0.00    -0.232 N 
HETATM    6  C   UNL     1      39.412 -11.935   5.362  1.00  0.00     0.256 C 
HETATM    7  O   UNL     1      38.265 -11.675   5.014  1.00  0.00    -0.270 OA
ENDROOT
BRANCH   1   8
HETATM    8  C   UNL     1      40.479 -12.543   3.237  1.00  0.00     0.138 C 
BRANCH   8   9
HETATM    9  C   UNL     1      39.712 -13.326   2.214  1.00  0.00     0.224 C 
HETATM   10  N   UNL     1      40.128 -14.493   1.667  1.00  0.00    -0.327 N 
HETATM   11  H   UNL     1      39.489 -14.747   0.920  1.00  0.00     0.169 HD
HETATM   12  O   UNL     1      38.641 -12.870   1.793  1.00  0.00    -0.273 OA
BRANCH  10  13
HETATM   13  C   UNL     1      41.118 -15.451   1.938  1.00  0.00     0.034 A 
HETATM   14  C   UNL     1      42.493 -15.287   1.789  1.00  0.00     0.030 A 
HETATM   15  C   UNL     1      43.378 -16.287   2.232  1.00  0.00     0.020 A 
HETATM   16  C   UNL     1      42.900 -17.461   2.827  1.00  0.00     0.039 A 
HETATM   17  C   UNL     1      41.523 -17.654   2.926  1.00  0.00     0.020 A 
HETATM   18  C   UNL     1      40.646 -16.657   2.484  1.00  0.00     0.030 A 
BRANCH  16  19
HETATM   19  C   UNL     1      43.879 -18.439   3.382  1.00  0.00     0.293 C 
HETATM   20  O   UNL     1      44.137 -18.538   4.571  1.00  0.00    -0.259 OA
BRANCH  19  21
HETATM   21  O   UNL     1      44.360 -19.228   2.388  1.00  0.00    -0.318 OA
BRANCH  21  22
HETATM   22  C   UNL     1      43.566 -20.373   2.046  1.00  0.00     0.174 C 
HETATM   23  C   UNL     1      44.403 -21.636   2.090  1.00  0.00     0.034 C 
ENDBRANCH  21  22
ENDBRANCH  19  21
ENDBRANCH  16  19
ENDBRANCH  10  13
ENDBRANCH   8   9
ENDBRANCH   1   8
BRANCH   2  24
HETATM   24  C   UNL     1      42.590 -13.846   5.309  1.00  0.00     0.168 C 
BRANCH  24  25
HETATM   25  C   UNL     1      42.747 -15.057   6.184  1.00  0.00    -0.023 A 
HETATM   26  C   UNL     1      43.877 -15.260   6.966  1.00  0.00     0.125 A 
HETATM   27  N   UNL     1      44.078 -16.349   7.744  1.00  0.00    -0.273 NA
HETATM   28  C   UNL     1      43.125 -17.303   7.714  1.00  0.00     0.116 A 
HETATM   29  C   UNL     1      41.976 -17.217   6.947  1.00  0.00     0.020 A 
HETATM   30  C   UNL     1      41.791 -16.079   6.169  1.00  0.00     0.012 A 
ENDBRANCH  24  25
ENDBRANCH   2  24
BRANCH   5  31
HETATM   31  C   UNL     1      39.833 -10.158   7.078  1.00  0.00     0.047 A 
HETATM   32  C   UNL     1      39.279 -10.255   8.369  1.00  0.00     0.037 A 
HETATM   33  C   UNL     1      38.974  -9.120   9.143  1.00  0.00    -0.060 A 
HETATM   34  C   UNL     1      38.368  -9.266  10.508  1.00  0.00     0.048 C 
HETATM   35  C   UNL     1      39.202  -7.853   8.609  1.00  0.00     0.007 A 
HETATM   36  C   UNL     1      39.735  -7.727   7.329  1.00  0.00     0.003 A 
HETATM   37  C   UNL     1      40.044  -8.866   6.575  1.00  0.00     0.030 A 
ENDBRANCH   5  31
TORSDOF 9
ENDMDL
