MODEL 1
REMARK VINA RESULT:      -9.4      0.000      0.000
REMARK  6 active torsions:
REMARK  status: ('A' for Active; 'I' for Inactive)
REMARK    1  A    between atoms: O_2  and  C_3 
REMARK    2  A    between atoms: C_3  and  C_4 
REMARK       I    between atoms: C_4  and  N_6 
REMARK    3  A    between atoms: N_6  and  C_7 
REMARK    4  A    between atoms: C_12  and  C_13 
REMARK    5  A    between atoms: C_15  and  N_16 
REMARK    6  A    between atoms: N_16  and  C_17 
ROOT
HETATM    1  C   UNL     1      42.607 -17.860   3.362  1.00  0.00     0.164 A 
HETATM    2  N   UNL     1      42.689 -16.970   2.359  1.00  0.00    -0.210 NA
HETATM    3  C   UNL     1      42.113 -15.766   2.537  1.00  0.00     0.143 A 
HETATM    4  C   UNL     1      41.408 -15.442   3.711  1.00  0.00     0.039 A 
HETATM    5  C   UNL     1      40.781 -14.197   3.978  1.00  0.00     0.018 A 
HETATM    6  C   UNL     1      40.087 -13.986   5.167  1.00  0.00     0.001 A 
HETATM    7  C   UNL     1      40.018 -15.006   6.105  1.00  0.00     0.002 A 
HETATM    8  C   UNL     1      40.654 -16.225   5.850  1.00  0.00     0.032 A 
HETATM    9  C   UNL     1      41.353 -16.458   4.673  1.00  0.00     0.073 A 
HETATM   10  N   UNL     1      41.948 -17.642   4.510  1.00  0.00    -0.228 NA
ENDROOT
BRANCH   1  11
HETATM   11  C   UNL     1      43.300 -19.158   3.193  1.00  0.00     0.039 A 
HETATM   12  C   UNL     1      44.116 -19.755   4.196  1.00  0.00     0.049 A 
HETATM   13  C   UNL     1      44.739 -20.986   3.935  1.00  0.00     0.030 A 
HETATM   14  C   UNL     1      44.571 -21.640   2.713  1.00  0.00     0.002 A 
HETATM   15  C   UNL     1      43.780 -21.072   1.727  1.00  0.00     0.001 A 
HETATM   16  C   UNL     1      43.158 -19.848   1.965  1.00  0.00     0.018 A 
BRANCH  12  17
HETATM   17  N   UNL     1      44.282 -19.094   5.443  1.00  0.00    -0.324 N 
HETATM   18  C   UNL     1      43.984 -19.558   6.714  1.00  0.00     0.245 C 
HETATM   19  O   UNL     1      43.532 -20.667   6.987  1.00  0.00    -0.271 OA
HETATM   20  H   UNL     1      44.673 -18.154   5.369  1.00  0.00     0.169 HD
BRANCH  18  21
HETATM   21  C   UNL     1      44.332 -18.548   7.828  1.00  0.00     0.270 C 
BRANCH  21  22
HETATM   22  O   UNL     1      43.348 -17.573   8.142  1.00  0.00    -0.387 OA
HETATM   23  C   UNL     1      43.684 -16.272   7.681  1.00  0.00     0.202 C 
ENDBRANCH  21  22
ENDBRANCH  18  21
ENDBRANCH  12  17
ENDBRANCH   1  11
BRANCH   3  24
HETATM   24  N   UNL     1      42.222 -14.800   1.502  1.00  0.00    -0.340 N 
HETATM   25  H   UNL     1      42.509 -13.910   1.895  1.00  0.00     0.167 HD
BRANCH  24  26
HETATM   26  C   UNL     1      41.380 -14.636   0.376  1.00  0.00     0.034 A 
HETATM   27  C   UNL     1      40.297 -13.744   0.377  1.00  0.00     0.032 A 
HETATM   28  C   UNL     1      39.468 -13.572  -0.740  1.00  0.00     0.034 A 
HETATM   29  C   UNL     1      39.742 -14.361  -1.856  1.00  0.00     0.062 A 
HETATM   30  N   UNL     1      39.161 -14.424  -3.095  1.00  0.00    -0.278 N 
HETATM   31  C   UNL     1      40.764 -15.301  -1.883  1.00  0.00     0.013 A 
HETATM   32  H   UNL     1      38.397 -13.858  -3.447  1.00  0.00     0.189 HD
HETATM   33  N   UNL     1      39.687 -15.365  -3.901  1.00  0.00    -0.186 NA
HETATM   34  C   UNL     1      40.672 -15.886  -3.165  1.00  0.00     0.152 A 
HETATM   35  C   UNL     1      41.587 -15.454  -0.751  1.00  0.00     0.044 A 
ENDBRANCH  24  26
ENDBRANCH   3  24
TORSDOF 6
ENDMDL
MODEL 2
REMARK VINA RESULT:      -9.3      1.448      1.676
REMARK  6 active torsions:
REMARK  status: ('A' for Active; 'I' for Inactive)
REMARK    1  A    between atoms: O_2  and  C_3 
REMARK    2  A    between atoms: C_3  and  C_4 
REMARK       I    between atoms: C_4  and  N_6 
REMARK    3  A    between atoms: N_6  and  C_7 
REMARK    4  A    between atoms: C_12  and  C_13 
REMARK    5  A    between atoms: C_15  and  N_16 
REMARK    6  A    between atoms: N_16  and  C_17 
ROOT
HETATM    1  C   UNL     1      42.813 -17.765   3.711  1.00  0.00     0.164 A 
HETATM    2  N   UNL     1      41.602 -17.485   3.203  1.00  0.00    -0.210 NA
HETATM    3  C   UNL     1      41.080 -16.268   3.449  1.00  0.00     0.143 A 
HETATM    4  C   UNL     1      41.747 -15.318   4.245  1.00  0.00     0.039 A 
HETATM    5  C   UNL     1      41.270 -14.016   4.546  1.00  0.00     0.018 A 
HETATM    6  C   UNL     1      42.000 -13.158   5.365  1.00  0.00     0.001 A 
HETATM    7  C   UNL     1      43.213 -13.583   5.885  1.00  0.00     0.002 A 
HETATM    8  C   UNL     1      43.692 -14.858   5.571  1.00  0.00     0.032 A 
HETATM    9  C   UNL     1      42.983 -15.731   4.755  1.00  0.00     0.073 A 
HETATM   10  N   UNL     1      43.515 -16.926   4.488  1.00  0.00    -0.228 NA
ENDROOT
BRANCH   1  11
HETATM   11  C   UNL     1      43.415 -19.077   3.382  1.00  0.00     0.039 A 
HETATM   12  C   UNL     1      44.141 -19.870   4.315  1.00  0.00     0.049 A 
HETATM   13  C   UNL     1      44.683 -21.098   3.902  1.00  0.00     0.030 A 
HETATM   14  C   UNL     1      44.522 -21.558   2.594  1.00  0.00     0.002 A 
HETATM   15  C   UNL     1      43.819 -20.798   1.673  1.00  0.00     0.001 A 
HETATM   16  C   UNL     1      43.277 -19.574   2.064  1.00  0.00     0.018 A 
BRANCH  12  17
HETATM   17  N   UNL     1      44.300 -19.405   5.649  1.00  0.00    -0.324 N 
HETATM   18  C   UNL     1      43.933 -20.028   6.831  1.00  0.00     0.245 C 
HETATM   19  O   UNL     1      43.411 -21.136   6.929  1.00  0.00    -0.271 OA
HETATM   20  H   UNL     1      44.744 -18.489   5.722  1.00  0.00     0.169 HD
BRANCH  18  21
HETATM   21  C   UNL     1      44.297 -19.210   8.088  1.00  0.00     0.270 C 
BRANCH  21  22
HETATM   22  O   UNL     1      44.422 -17.804   7.926  1.00  0.00    -0.387 OA
HETATM   23  C   UNL     1      43.246 -17.094   8.289  1.00  0.00     0.202 C 
ENDBRANCH  21  22
ENDBRANCH  18  21
ENDBRANCH  12  17
ENDBRANCH   1  11
BRANCH   3  24
HETATM   24  N   UNL     1      39.817 -15.942   2.887  1.00  0.00    -0.340 N 
HETATM   25  H   UNL     1      39.179 -16.721   3.007  1.00  0.00     0.167 HD
BRANCH  24  26
HETATM   26  C   UNL     1      39.558 -15.222   1.697  1.00  0.00     0.034 A 
HETATM   27  C   UNL     1      38.311 -14.635   1.435  1.00  0.00     0.032 A 
HETATM   28  C   UNL     1      38.055 -13.911   0.263  1.00  0.00     0.034 A 
HETATM   29  C   UNL     1      39.093 -13.828  -0.665  1.00  0.00     0.062 A 
HETATM   30  N   UNL     1      39.187 -13.189  -1.874  1.00  0.00    -0.278 N 
HETATM   31  C   UNL     1      40.324 -14.442  -0.478  1.00  0.00     0.013 A 
HETATM   32  H   UNL     1      38.485 -12.611  -2.322  1.00  0.00     0.189 HD
HETATM   33  N   UNL     1      40.358 -13.385  -2.508  1.00  0.00    -0.186 NA
HETATM   34  C   UNL     1      41.052 -14.136  -1.649  1.00  0.00     0.152 A 
HETATM   35  C   UNL     1      40.559 -15.160   0.709  1.00  0.00     0.044 A 
ENDBRANCH  24  26
ENDBRANCH   3  24
TORSDOF 6
ENDMDL
MODEL 3
REMARK VINA RESULT:      -9.2      1.758      2.078
REMARK  6 active torsions:
REMARK  status: ('A' for Active; 'I' for Inactive)
REMARK    1  A    between atoms: O_2  and  C_3 
REMARK    2  A    between atoms: C_3  and  C_4 
REMARK       I    between atoms: C_4  and  N_6 
REMARK    3  A    between atoms: N_6  and  C_7 
REMARK    4  A    between atoms: C_12  and  C_13 
REMARK    5  A    between atoms: C_15  and  N_16 
REMARK    6  A    between atoms: N_16  and  C_17 
ROOT
HETATM    1  C   UNL     1      42.177 -17.764   2.873  1.00  0.00     0.164 A 
HETATM    2  N   UNL     1      41.577 -17.398   1.728  1.00  0.00    -0.210 NA
HETATM    3  C   UNL     1      40.823 -16.282   1.740  1.00  0.00     0.143 A 
HETATM    4  C   UNL     1      40.620 -15.531   2.912  1.00  0.00     0.039 A 
HETATM    5  C   UNL     1      39.847 -14.345   3.007  1.00  0.00     0.018 A 
HETATM    6  C   UNL     1      39.693 -13.687   4.225  1.00  0.00     0.001 A 
HETATM    7  C   UNL     1      40.311 -14.197   5.357  1.00  0.00     0.002 A 
HETATM    8  C   UNL     1      41.089 -15.354   5.258  1.00  0.00     0.032 A 
HETATM    9  C   UNL     1      41.260 -16.026   4.055  1.00  0.00     0.073 A 
HETATM   10  N   UNL     1      42.032 -17.115   4.039  1.00  0.00    -0.228 NA
ENDROOT
BRANCH   1  11
HETATM   11  C   UNL     1      43.062 -18.950   2.842  1.00  0.00     0.039 A 
HETATM   12  C   UNL     1      44.119 -19.172   3.770  1.00  0.00     0.049 A 
HETATM   13  C   UNL     1      44.911 -20.326   3.650  1.00  0.00     0.030 A 
HETATM   14  C   UNL     1      44.679 -21.263   2.642  1.00  0.00     0.002 A 
HETATM   15  C   UNL     1      43.655 -21.062   1.731  1.00  0.00     0.001 A 
HETATM   16  C   UNL     1      42.861 -19.920   1.830  1.00  0.00     0.018 A 
BRANCH  12  17
HETATM   17  N   UNL     1      44.351 -18.222   4.801  1.00  0.00    -0.324 N 
HETATM   18  C   UNL     1      44.213 -18.381   6.170  1.00  0.00     0.245 C 
HETATM   19  O   UNL     1      43.876 -19.414   6.744  1.00  0.00    -0.271 OA
HETATM   20  H   UNL     1      44.659 -17.308   4.466  1.00  0.00     0.169 HD
BRANCH  18  21
HETATM   21  C   UNL     1      44.586 -17.116   6.971  1.00  0.00     0.270 C 
BRANCH  21  22
HETATM   22  O   UNL     1      44.350 -15.864   6.341  1.00  0.00    -0.387 OA
HETATM   23  C   UNL     1      44.358 -14.772   7.249  1.00  0.00     0.202 C 
ENDBRANCH  21  22
ENDBRANCH  18  21
ENDBRANCH  12  17
ENDBRANCH   1  11
BRANCH   3  24
HETATM   24  N   UNL     1      40.213 -15.860   0.529  1.00  0.00    -0.340 N 
HETATM   25  H   UNL     1      39.593 -16.587   0.187  1.00  0.00     0.167 HD
BRANCH  24  26
HETATM   26  C   UNL     1      40.802 -15.124  -0.527  1.00  0.00     0.034 A 
HETATM   27  C   UNL     1      40.912 -15.642  -1.827  1.00  0.00     0.032 A 
HETATM   28  C   UNL     1      41.485 -14.912  -2.877  1.00  0.00     0.034 A 
HETATM   29  C   UNL     1      41.982 -13.646  -2.568  1.00  0.00     0.062 A 
HETATM   30  N   UNL     1      42.565 -12.680  -3.344  1.00  0.00    -0.278 N 
HETATM   31  C   UNL     1      41.950 -13.116  -1.285  1.00  0.00     0.013 A 
HETATM   32  H   UNL     1      42.726 -12.706  -4.345  1.00  0.00     0.189 HD
HETATM   33  N   UNL     1      42.962 -11.591  -2.659  1.00  0.00    -0.186 NA
HETATM   34  C   UNL     1      42.573 -11.854  -1.409  1.00  0.00     0.152 A 
HETATM   35  C   UNL     1      41.366 -13.866  -0.246  1.00  0.00     0.044 A 
ENDBRANCH  24  26
ENDBRANCH   3  24
TORSDOF 6
ENDMDL
MODEL 4
REMARK VINA RESULT:      -9.1      2.245      5.171
REMARK  6 active torsions:
REMARK  status: ('A' for Active; 'I' for Inactive)
REMARK    1  A    between atoms: O_2  and  C_3 
REMARK    2  A    between atoms: C_3  and  C_4 
REMARK       I    between atoms: C_4  and  N_6 
REMARK    3  A    between atoms: N_6  and  C_7 
REMARK    4  A    between atoms: C_12  and  C_13 
REMARK    5  A    between atoms: C_15  and  N_16 
REMARK    6  A    between atoms: N_16  and  C_17 
ROOT
HETATM    1  C   UNL     1      42.451 -18.162   2.338  1.00  0.00     0.164 A 
HETATM    2  N   UNL     1      41.867 -17.570   3.392  1.00  0.00    -0.210 NA
HETATM    3  C   UNL     1      41.105 -16.484   3.163  1.00  0.00     0.143 A 
HETATM    4  C   UNL     1      40.944 -15.944   1.874  1.00  0.00     0.039 A 
HETATM    5  C   UNL     1      40.155 -14.809   1.549  1.00  0.00     0.018 A 
HETATM    6  C   UNL     1      40.080 -14.342   0.239  1.00  0.00     0.001 A 
HETATM    7  C   UNL     1      40.780 -15.002  -0.760  1.00  0.00     0.002 A 
HETATM    8  C   UNL     1      41.540 -16.131  -0.442  1.00  0.00     0.032 A 
HETATM    9  C   UNL     1      41.629 -16.617   0.856  1.00  0.00     0.073 A 
HETATM   10  N   UNL     1      42.361 -17.712   1.076  1.00  0.00    -0.228 NA
ENDROOT
BRANCH   1  11
HETATM   11  C   UNL     1      43.231 -19.397   2.581  1.00  0.00     0.039 A 
HETATM   12  C   UNL     1      44.130 -19.561   3.673  1.00  0.00     0.049 A 
HETATM   13  C   UNL     1      44.833 -20.770   3.811  1.00  0.00     0.030 A 
HETATM   14  C   UNL     1      44.663 -21.815   2.902  1.00  0.00     0.002 A 
HETATM   15  C   UNL     1      43.793 -21.671   1.834  1.00  0.00     0.001 A 
HETATM   16  C   UNL     1      43.090 -20.477   1.677  1.00  0.00     0.018 A 
BRANCH  12  17
HETATM   17  N   UNL     1      44.298 -18.500   4.603  1.00  0.00    -0.324 N 
HETATM   18  C   UNL     1      44.352 -18.563   5.986  1.00  0.00     0.245 C 
HETATM   19  O   UNL     1      44.285 -19.586   6.663  1.00  0.00    -0.271 OA
HETATM   20  H   UNL     1      44.387 -17.578   4.174  1.00  0.00     0.169 HD
BRANCH  18  21
HETATM   21  C   UNL     1      44.571 -17.187   6.649  1.00  0.00     0.270 C 
BRANCH  21  22
HETATM   22  O   UNL     1      43.639 -16.800   7.650  1.00  0.00    -0.387 OA
HETATM   23  C   UNL     1      42.290 -17.055   7.285  1.00  0.00     0.202 C 
ENDBRANCH  21  22
ENDBRANCH  18  21
ENDBRANCH  12  17
ENDBRANCH   1  11
BRANCH   3  24
HETATM   24  N   UNL     1      40.449 -15.868   4.263  1.00  0.00    -0.340 N 
HETATM   25  H   UNL     1      39.445 -15.968   4.160  1.00  0.00     0.167 HD
BRANCH  24  26
HETATM   26  C   UNL     1      40.800 -14.662   4.916  1.00  0.00     0.034 A 
HETATM   27  C   UNL     1      42.116 -14.177   4.932  1.00  0.00     0.032 A 
HETATM   28  C   UNL     1      42.465 -12.978   5.568  1.00  0.00     0.034 A 
HETATM   29  C   UNL     1      41.444 -12.294   6.227  1.00  0.00     0.062 A 
HETATM   30  N   UNL     1      41.433 -11.106   6.909  1.00  0.00    -0.278 N 
HETATM   31  C   UNL     1      40.139 -12.764   6.290  1.00  0.00     0.013 A 
HETATM   32  H   UNL     1      42.207 -10.465   7.043  1.00  0.00     0.189 HD
HETATM   33  N   UNL     1      40.242 -10.797   7.454  1.00  0.00    -0.186 NA
HETATM   34  C   UNL     1      39.454 -11.801   7.063  1.00  0.00     0.152 A 
HETATM   35  C   UNL     1      39.811 -13.970   5.640  1.00  0.00     0.044 A 
ENDBRANCH  24  26
ENDBRANCH   3  24
TORSDOF 6
ENDMDL
MODEL 5
REMARK VINA RESULT:      -9.0      1.321      1.906
REMARK  6 active torsions:
REMARK  status: ('A' for Active; 'I' for Inactive)
REMARK    1  A    between atoms: O_2  and  C_3 
REMARK    2  A    between atoms: C_3  and  C_4 
REMARK       I    between atoms: C_4  and  N_6 
REMARK    3  A    between atoms: N_6  and  C_7 
REMARK    4  A    between atoms: C_12  and  C_13 
REMARK    5  A    between atoms: C_15  and  N_16 
REMARK    6  A    between atoms: N_16  and  C_17 
ROOT
HETATM    1  C   UNL     1      42.419 -17.443   2.502  1.00  0.00     0.164 A 
HETATM    2  N   UNL     1      42.473 -16.854   1.296  1.00  0.00    -0.210 NA
HETATM    3  C   UNL     1      41.871 -15.658   1.150  1.00  0.00     0.143 A 
HETATM    4  C   UNL     1      41.168 -15.044   2.202  1.00  0.00     0.039 A 
HETATM    5  C   UNL     1      40.514 -13.786   2.132  1.00  0.00     0.018 A 
HETATM    6  C   UNL     1      39.825 -13.276   3.230  1.00  0.00     0.001 A 
HETATM    7  C   UNL     1      39.785 -14.007   4.408  1.00  0.00     0.002 A 
HETATM    8  C   UNL     1      40.447 -15.236   4.483  1.00  0.00     0.032 A 
HETATM    9  C   UNL     1      41.142 -15.764   3.403  1.00  0.00     0.073 A 
HETATM   10  N   UNL     1      41.763 -16.936   3.558  1.00  0.00    -0.228 NA
ENDROOT
BRANCH   1  11
HETATM   11  C   UNL     1      43.139 -18.724   2.680  1.00  0.00     0.039 A 
HETATM   12  C   UNL     1      44.013 -18.994   3.772  1.00  0.00     0.049 A 
HETATM   13  C   UNL     1      44.658 -20.239   3.846  1.00  0.00     0.030 A 
HETATM   14  C   UNL     1      44.457 -21.220   2.873  1.00  0.00     0.002 A 
HETATM   15  C   UNL     1      43.611 -20.972   1.804  1.00  0.00     0.001 A 
HETATM   16  C   UNL     1      42.965 -19.740   1.710  1.00  0.00     0.018 A 
BRANCH  12  17
HETATM   17  N   UNL     1      44.212 -17.999   4.767  1.00  0.00    -0.324 N 
HETATM   18  C   UNL     1      43.822 -18.016   6.096  1.00  0.00     0.245 C 
HETATM   19  O   UNL     1      43.238 -18.936   6.663  1.00  0.00    -0.271 OA
HETATM   20  H   UNL     1      44.709 -17.172   4.437  1.00  0.00     0.169 HD
BRANCH  18  21
HETATM   21  C   UNL     1      44.247 -16.751   6.871  1.00  0.00     0.270 C 
BRANCH  21  22
HETATM   22  O   UNL     1      43.315 -15.679   6.911  1.00  0.00    -0.387 OA
HETATM   23  C   UNL     1      43.785 -14.505   6.264  1.00  0.00     0.202 C 
ENDBRANCH  21  22
ENDBRANCH  18  21
ENDBRANCH  12  17
ENDBRANCH   1  11
BRANCH   3  24
HETATM   24  N   UNL     1      41.951 -15.005  -0.109  1.00  0.00    -0.340 N 
HETATM   25  H   UNL     1      42.348 -14.079   0.012  1.00  0.00     0.167 HD
BRANCH  24  26
HETATM   26  C   UNL     1      41.013 -15.047  -1.168  1.00  0.00     0.034 A 
HETATM   27  C   UNL     1      41.089 -15.998  -2.196  1.00  0.00     0.032 A 
HETATM   28  C   UNL     1      40.156 -16.049  -3.240  1.00  0.00     0.034 A 
HETATM   29  C   UNL     1      39.153 -15.079  -3.237  1.00  0.00     0.062 A 
HETATM   30  N   UNL     1      38.090 -14.864  -4.073  1.00  0.00    -0.278 N 
HETATM   31  C   UNL     1      39.072 -14.082  -2.275  1.00  0.00     0.013 A 
HETATM   32  H   UNL     1      37.814 -15.418  -4.876  1.00  0.00     0.189 HD
HETATM   33  N   UNL     1      37.359 -13.776  -3.762  1.00  0.00    -0.186 NA
HETATM   34  C   UNL     1      37.951 -13.312  -2.659  1.00  0.00     0.152 A 
HETATM   35  C   UNL     1      40.019 -14.053  -1.233  1.00  0.00     0.044 A 
ENDBRANCH  24  26
ENDBRANCH   3  24
TORSDOF 6
ENDMDL
MODEL 6
REMARK VINA RESULT:      -8.4      2.524      3.935
REMARK  6 active torsions:
REMARK  status: ('A' for Active; 'I' for Inactive)
REMARK    1  A    between atoms: O_2  and  C_3 
REMARK    2  A    between atoms: C_3  and  C_4 
REMARK       I    between atoms: C_4  and  N_6 
REMARK    3  A    between atoms: N_6  and  C_7 
REMARK    4  A    between atoms: C_12  and  C_13 
REMARK    5  A    between atoms: C_15  and  N_16 
REMARK    6  A    between atoms: N_16  and  C_17 
ROOT
HETATM    1  C   UNL     1      43.442 -18.028   5.577  1.00  0.00     0.164 A 
HETATM    2  N   UNL     1      42.231 -17.695   5.101  1.00  0.00    -0.210 NA
HETATM    3  C   UNL     1      41.847 -16.408   5.204  1.00  0.00     0.143 A 
HETATM    4  C   UNL     1      42.654 -15.435   5.821  1.00  0.00     0.039 A 
HETATM    5  C   UNL     1      42.325 -14.062   5.963  1.00  0.00     0.018 A 
HETATM    6  C   UNL     1      43.188 -13.183   6.613  1.00  0.00     0.001 A 
HETATM    7  C   UNL     1      44.388 -13.659   7.120  1.00  0.00     0.002 A 
HETATM    8  C   UNL     1      44.720 -15.007   6.962  1.00  0.00     0.032 A 
HETATM    9  C   UNL     1      43.877 -15.902   6.316  1.00  0.00     0.073 A 
HETATM   10  N   UNL     1      44.273 -17.171   6.190  1.00  0.00    -0.228 NA
ENDROOT
BRANCH   1  11
HETATM   11  C   UNL     1      43.893 -19.428   5.401  1.00  0.00     0.039 A 
HETATM   12  C   UNL     1      44.336 -19.966   4.160  1.00  0.00     0.049 A 
HETATM   13  C   UNL     1      44.735 -21.311   4.094  1.00  0.00     0.030 A 
HETATM   14  C   UNL     1      44.710 -22.131   5.224  1.00  0.00     0.002 A 
HETATM   15  C   UNL     1      44.281 -21.623   6.440  1.00  0.00     0.001 A 
HETATM   16  C   UNL     1      43.877 -20.291   6.523  1.00  0.00     0.018 A 
BRANCH  12  17
HETATM   17  N   UNL     1      44.368 -19.131   3.011  1.00  0.00    -0.324 N 
HETATM   18  C   UNL     1      43.431 -19.019   1.996  1.00  0.00     0.245 C 
HETATM   19  O   UNL     1      42.366 -19.628   1.931  1.00  0.00    -0.271 OA
HETATM   20  H   UNL     1      45.201 -18.545   2.943  1.00  0.00     0.169 HD
BRANCH  18  21
HETATM   21  C   UNL     1      43.814 -17.976   0.925  1.00  0.00     0.270 C 
BRANCH  21  22
HETATM   22  O   UNL     1      44.606 -16.877   1.353  1.00  0.00    -0.387 OA
HETATM   23  C   UNL     1      43.887 -15.948   2.152  1.00  0.00     0.202 C 
ENDBRANCH  21  22
ENDBRANCH  18  21
ENDBRANCH  12  17
ENDBRANCH   1  11
BRANCH   3  24
HETATM   24  N   UNL     1      40.585 -16.030   4.672  1.00  0.00    -0.340 N 
HETATM   25  H   UNL     1      39.859 -16.619   5.066  1.00  0.00     0.167 HD
BRANCH  24  26
HETATM   26  C   UNL     1      40.287 -15.634   3.346  1.00  0.00     0.034 A 
HETATM   27  C   UNL     1      40.580 -16.446   2.240  1.00  0.00     0.032 A 
HETATM   28  C   UNL     1      40.277 -16.062   0.928  1.00  0.00     0.034 A 
HETATM   29  C   UNL     1      39.696 -14.806   0.757  1.00  0.00     0.062 A 
HETATM   30  N   UNL     1      39.257 -14.148  -0.362  1.00  0.00    -0.278 N 
HETATM   31  C   UNL     1      39.442 -13.942   1.814  1.00  0.00     0.013 A 
HETATM   32  H   UNL     1      39.256 -14.488  -1.317  1.00  0.00     0.189 HD
HETATM   33  N   UNL     1      38.791 -12.908  -0.121  1.00  0.00    -0.186 NA
HETATM   34  C   UNL     1      38.892 -12.792   1.205  1.00  0.00     0.152 A 
HETATM   35  C   UNL     1      39.753 -14.351   3.125  1.00  0.00     0.044 A 
ENDBRANCH  24  26
ENDBRANCH   3  24
TORSDOF 6
ENDMDL
MODEL 7
REMARK VINA RESULT:      -8.4      2.636      3.666
REMARK  6 active torsions:
REMARK  status: ('A' for Active; 'I' for Inactive)
REMARK    1  A    between atoms: O_2  and  C_3 
REMARK    2  A    between atoms: C_3  and  C_4 
REMARK       I    between atoms: C_4  and  N_6 
REMARK    3  A    between atoms: N_6  and  C_7 
REMARK    4  A    between atoms: C_12  and  C_13 
REMARK    5  A    between atoms: C_15  and  N_16 
REMARK    6  A    between atoms: N_16  and  C_17 
ROOT
HETATM    1  C   UNL     1      42.504 -15.260   4.891  1.00  0.00     0.164 A 
HETATM    2  N   UNL     1      42.662 -14.877   3.613  1.00  0.00    -0.210 NA
HETATM    3  C   UNL     1      41.897 -13.866   3.159  1.00  0.00     0.143 A 
HETATM    4  C   UNL     1      40.928 -13.243   3.966  1.00  0.00     0.039 A 
HETATM    5  C   UNL     1      40.089 -12.170   3.566  1.00  0.00     0.018 A 
HETATM    6  C   UNL     1      39.144 -11.638   4.439  1.00  0.00     0.001 A 
HETATM    7  C   UNL     1      39.029 -12.160   5.719  1.00  0.00     0.002 A 
HETATM    8  C   UNL     1      39.870 -13.202   6.119  1.00  0.00     0.032 A 
HETATM    9  C   UNL     1      40.821 -13.748   5.267  1.00  0.00     0.073 A 
HETATM   10  N   UNL     1      41.599 -14.730   5.729  1.00  0.00    -0.228 NA
ENDROOT
BRANCH   1  11
HETATM   11  C   UNL     1      43.394 -16.324   5.410  1.00  0.00     0.039 A 
HETATM   12  C   UNL     1      44.154 -16.204   6.608  1.00  0.00     0.049 A 
HETATM   13  C   UNL     1      44.978 -17.268   7.011  1.00  0.00     0.030 A 
HETATM   14  C   UNL     1      45.062 -18.444   6.263  1.00  0.00     0.002 A 
HETATM   15  C   UNL     1      44.329 -18.576   5.095  1.00  0.00     0.001 A 
HETATM   16  C   UNL     1      43.509 -17.528   4.676  1.00  0.00     0.018 A 
BRANCH  12  17
HETATM   17  N   UNL     1      44.064 -15.010   7.374  1.00  0.00    -0.324 N 
HETATM   18  C   UNL     1      44.860 -13.878   7.308  1.00  0.00     0.245 C 
HETATM   19  O   UNL     1      45.797 -13.702   6.533  1.00  0.00    -0.271 OA
HETATM   20  H   UNL     1      43.306 -15.008   8.057  1.00  0.00     0.169 HD
BRANCH  18  21
HETATM   21  C   UNL     1      44.428 -12.772   8.293  1.00  0.00     0.270 C 
BRANCH  21  22
HETATM   22  O   UNL     1      45.455 -11.942   8.818  1.00  0.00    -0.387 OA
HETATM   23  C   UNL     1      44.997 -11.062   9.835  1.00  0.00     0.202 C 
ENDBRANCH  21  22
ENDBRANCH  18  21
ENDBRANCH  12  17
ENDBRANCH   1  11
BRANCH   3  24
HETATM   24  N   UNL     1      42.079 -13.423   1.822  1.00  0.00    -0.340 N 
HETATM   25  H   UNL     1      41.881 -12.430   1.761  1.00  0.00     0.167 HD
BRANCH  24  26
HETATM   26  C   UNL     1      41.739 -14.105   0.629  1.00  0.00     0.034 A 
HETATM   27  C   UNL     1      41.527 -15.492   0.597  1.00  0.00     0.032 A 
HETATM   28  C   UNL     1      41.180 -16.169  -0.580  1.00  0.00     0.034 A 
HETATM   29  C   UNL     1      41.088 -15.405  -1.743  1.00  0.00     0.062 A 
HETATM   30  N   UNL     1      40.750 -15.737  -3.028  1.00  0.00    -0.278 N 
HETATM   31  C   UNL     1      41.347 -14.042  -1.772  1.00  0.00     0.013 A 
HETATM   32  H   UNL     1      40.468 -16.647  -3.377  1.00  0.00     0.189 HD
HETATM   33  N   UNL     1      40.822 -14.712  -3.897  1.00  0.00    -0.186 NA
HETATM   34  C   UNL     1      41.172 -13.679  -3.126  1.00  0.00     0.152 A 
HETATM   35  C   UNL     1      41.691 -13.382  -0.577  1.00  0.00     0.044 A 
ENDBRANCH  24  26
ENDBRANCH   3  24
TORSDOF 6
ENDMDL
MODEL 8
REMARK VINA RESULT:      -8.3      2.693      4.284
REMARK  6 active torsions:
REMARK  status: ('A' for Active; 'I' for Inactive)
REMARK    1  A    between atoms: O_2  and  C_3 
REMARK    2  A    between atoms: C_3  and  C_4 
REMARK       I    between atoms: C_4  and  N_6 
REMARK    3  A    between atoms: N_6  and  C_7 
REMARK    4  A    between atoms: C_12  and  C_13 
REMARK    5  A    between atoms: C_15  and  N_16 
REMARK    6  A    between atoms: N_16  and  C_17 
ROOT
HETATM    1  C   UNL     1      43.183 -17.617   4.406  1.00  0.00     0.164 A 
HETATM    2  N   UNL     1      41.975 -17.113   4.106  1.00  0.00    -0.210 NA
HETATM    3  C   UNL     1      41.654 -15.905   4.608  1.00  0.00     0.143 A 
HETATM    4  C   UNL     1      42.523 -15.194   5.455  1.00  0.00     0.039 A 
HETATM    5  C   UNL     1      42.262 -13.917   6.018  1.00  0.00     0.018 A 
HETATM    6  C   UNL     1      43.184 -13.307   6.865  1.00  0.00     0.001 A 
HETATM    7  C   UNL     1      44.376 -13.956   7.153  1.00  0.00     0.002 A 
HETATM    8  C   UNL     1      44.641 -15.203   6.582  1.00  0.00     0.032 A 
HETATM    9  C   UNL     1      43.738 -15.830   5.733  1.00  0.00     0.073 A 
HETATM   10  N   UNL     1      44.071 -17.014   5.213  1.00  0.00    -0.228 NA
ENDROOT
BRANCH   1  11
HETATM   11  C   UNL     1      43.564 -18.912   3.798  1.00  0.00     0.039 A 
HETATM   12  C   UNL     1      43.174 -19.315   2.489  1.00  0.00     0.049 A 
HETATM   13  C   UNL     1      43.578 -20.570   2.006  1.00  0.00     0.030 A 
HETATM   14  C   UNL     1      44.359 -21.429   2.781  1.00  0.00     0.002 A 
HETATM   15  C   UNL     1      44.746 -21.052   4.057  1.00  0.00     0.001 A 
HETATM   16  C   UNL     1      44.350 -19.812   4.556  1.00  0.00     0.018 A 
BRANCH  12  17
HETATM   17  N   UNL     1      42.385 -18.439   1.696  1.00  0.00    -0.324 N 
HETATM   18  C   UNL     1      42.789 -17.329   0.972  1.00  0.00     0.245 C 
HETATM   19  O   UNL     1      43.942 -16.916   0.872  1.00  0.00    -0.271 OA
HETATM   20  H   UNL     1      41.393 -18.675   1.672  1.00  0.00     0.169 HD
BRANCH  18  21
HETATM   21  C   UNL     1      41.634 -16.643   0.213  1.00  0.00     0.270 C 
BRANCH  21  22
HETATM   22  O   UNL     1      41.786 -15.261  -0.078  1.00  0.00    -0.387 OA
HETATM   23  C   UNL     1      41.238 -14.891  -1.335  1.00  0.00     0.202 C 
ENDBRANCH  21  22
ENDBRANCH  18  21
ENDBRANCH  12  17
ENDBRANCH   1  11
BRANCH   3  24
HETATM   24  N   UNL     1      40.395 -15.340   4.270  1.00  0.00    -0.340 N 
HETATM   25  H   UNL     1      39.661 -16.022   4.430  1.00  0.00     0.167 HD
BRANCH  24  26
HETATM   26  C   UNL     1      40.094 -14.481   3.186  1.00  0.00     0.034 A 
HETATM   27  C   UNL     1      40.745 -13.251   3.006  1.00  0.00     0.032 A 
HETATM   28  C   UNL     1      40.457 -12.402   1.929  1.00  0.00     0.034 A 
HETATM   29  C   UNL     1      39.458 -12.817   1.049  1.00  0.00     0.062 A 
HETATM   30  N   UNL     1      38.960 -12.255  -0.097  1.00  0.00    -0.278 N 
HETATM   31  C   UNL     1      38.745 -13.996   1.219  1.00  0.00     0.013 A 
HETATM   32  H   UNL     1      39.264 -11.399  -0.547  1.00  0.00     0.189 HD
HETATM   33  N   UNL     1      37.946 -12.946  -0.651  1.00  0.00    -0.186 NA
HETATM   34  C   UNL     1      37.829 -14.012   0.144  1.00  0.00     0.152 A 
HETATM   35  C   UNL     1      39.054 -14.835   2.307  1.00  0.00     0.044 A 
ENDBRANCH  24  26
ENDBRANCH   3  24
TORSDOF 6
ENDMDL
MODEL 9
REMARK VINA RESULT:      -8.1      3.816      7.410
REMARK  6 active torsions:
REMARK  status: ('A' for Active; 'I' for Inactive)
REMARK    1  A    between atoms: O_2  and  C_3 
REMARK    2  A    between atoms: C_3  and  C_4 
REMARK       I    between atoms: C_4  and  N_6 
REMARK    3  A    between atoms: N_6  and  C_7 
REMARK    4  A    between atoms: C_12  and  C_13 
REMARK    5  A    between atoms: C_15  and  N_16 
REMARK    6  A    between atoms: N_16  and  C_17 
ROOT
HETATM    1  C   UNL     1      42.954 -14.194   5.290  1.00  0.00     0.164 A 
HETATM    2  N   UNL     1      43.599 -15.173   4.634  1.00  0.00    -0.210 NA
HETATM    3  C   UNL     1      42.987 -15.730   3.572  1.00  0.00     0.143 A 
HETATM    4  C   UNL     1      41.696 -15.343   3.168  1.00  0.00     0.039 A 
HETATM    5  C   UNL     1      40.986 -15.875   2.059  1.00  0.00     0.018 A 
HETATM    6  C   UNL     1      39.699 -15.436   1.758  1.00  0.00     0.001 A 
HETATM    7  C   UNL     1      39.109 -14.461   2.548  1.00  0.00     0.002 A 
HETATM    8  C   UNL     1      39.817 -13.924   3.627  1.00  0.00     0.032 A 
HETATM    9  C   UNL     1      41.102 -14.343   3.947  1.00  0.00     0.073 A 
HETATM   10  N   UNL     1      41.719 -13.770   4.983  1.00  0.00    -0.228 NA
ENDROOT
BRANCH   1  11
HETATM   11  C   UNL     1      43.657 -13.535   6.414  1.00  0.00     0.039 A 
HETATM   12  C   UNL     1      43.071 -12.524   7.228  1.00  0.00     0.049 A 
HETATM   13  C   UNL     1      43.825 -11.953   8.267  1.00  0.00     0.030 A 
HETATM   14  C   UNL     1      45.136 -12.359   8.520  1.00  0.00     0.002 A 
HETATM   15  C   UNL     1      45.721 -13.341   7.736  1.00  0.00     0.001 A 
HETATM   16  C   UNL     1      44.990 -13.917   6.698  1.00  0.00     0.018 A 
BRANCH  12  17
HETATM   17  N   UNL     1      41.734 -12.115   6.976  1.00  0.00    -0.324 N 
HETATM   18  C   UNL     1      41.234 -10.830   6.843  1.00  0.00     0.245 C 
HETATM   19  O   UNL     1      41.890  -9.793   6.899  1.00  0.00    -0.271 OA
HETATM   20  H   UNL     1      41.071 -12.885   6.887  1.00  0.00     0.169 HD
BRANCH  18  21
HETATM   21  C   UNL     1      39.720 -10.793   6.546  1.00  0.00     0.270 C 
BRANCH  21  22
HETATM   22  O   UNL     1      38.877 -10.282   7.569  1.00  0.00    -0.387 OA
HETATM   23  C   UNL     1      39.142 -10.845   8.846  1.00  0.00     0.202 C 
ENDBRANCH  21  22
ENDBRANCH  18  21
ENDBRANCH  12  17
ENDBRANCH   1  11
BRANCH   3  24
HETATM   24  N   UNL     1      43.671 -16.740   2.844  1.00  0.00    -0.340 N 
HETATM   25  H   UNL     1      43.411 -16.689   1.864  1.00  0.00     0.167 HD
BRANCH  24  26
HETATM   26  C   UNL     1      43.946 -18.066   3.253  1.00  0.00     0.034 A 
HETATM   27  C   UNL     1      44.283 -18.385   4.577  1.00  0.00     0.032 A 
HETATM   28  C   UNL     1      44.545 -19.699   4.987  1.00  0.00     0.034 A 
HETATM   29  C   UNL     1      44.495 -20.688   4.006  1.00  0.00     0.062 A 
HETATM   30  N   UNL     1      44.667 -22.046   4.068  1.00  0.00    -0.278 N 
HETATM   31  C   UNL     1      44.226 -20.414   2.672  1.00  0.00     0.013 A 
HETATM   32  H   UNL     1      44.850 -22.607   4.893  1.00  0.00     0.189 HD
HETATM   33  N   UNL     1      44.585 -22.665   2.876  1.00  0.00    -0.186 NA
HETATM   34  C   UNL     1      44.302 -21.670   2.031  1.00  0.00     0.152 A 
HETATM   35  C   UNL     1      43.961 -19.086   2.283  1.00  0.00     0.044 A 
ENDBRANCH  24  26
ENDBRANCH   3  24
TORSDOF 6
ENDMDL
MODEL 10
REMARK VINA RESULT:      -7.9      4.419      7.507
REMARK  6 active torsions:
REMARK  status: ('A' for Active; 'I' for Inactive)
REMARK    1  A    between atoms: O_2  and  C_3 
REMARK    2  A    between atoms: C_3  and  C_4 
REMARK       I    between atoms: C_4  and  N_6 
REMARK    3  A    between atoms: N_6  and  C_7 
REMARK    4  A    between atoms: C_12  and  C_13 
REMARK    5  A    between atoms: C_15  and  N_16 
REMARK    6  A    between atoms: N_16  and  C_17 
ROOT
HETATM    1  C   UNL     1      42.239 -14.888   4.811  1.00  0.00     0.164 A 
HETATM    2  N   UNL     1      42.322 -13.752   5.522  1.00  0.00    -0.210 NA
HETATM    3  C   UNL     1      41.489 -12.744   5.199  1.00  0.00     0.143 A 
HETATM    4  C   UNL     1      40.580 -12.840   4.130  1.00  0.00     0.039 A 
HETATM    5  C   UNL     1      39.667 -11.829   3.731  1.00  0.00     0.018 A 
HETATM    6  C   UNL     1      38.822 -12.019   2.641  1.00  0.00     0.001 A 
HETATM    7  C   UNL     1      38.870 -13.216   1.942  1.00  0.00     0.002 A 
HETATM    8  C   UNL     1      39.755 -14.219   2.348  1.00  0.00     0.032 A 
HETATM    9  C   UNL     1      40.606 -14.054   3.434  1.00  0.00     0.073 A 
HETATM   10  N   UNL     1      41.411 -15.065   3.770  1.00  0.00    -0.228 NA
ENDROOT
BRANCH   1  11
HETATM   11  C   UNL     1      43.106 -16.020   5.211  1.00  0.00     0.039 A 
HETATM   12  C   UNL     1      43.906 -16.025   6.389  1.00  0.00     0.049 A 
HETATM   13  C   UNL     1      44.703 -17.145   6.675  1.00  0.00     0.030 A 
HETATM   14  C   UNL     1      44.724 -18.256   5.830  1.00  0.00     0.002 A 
HETATM   15  C   UNL     1      43.952 -18.266   4.679  1.00  0.00     0.001 A 
HETATM   16  C   UNL     1      43.158 -17.162   4.376  1.00  0.00     0.018 A 
BRANCH  12  17
HETATM   17  N   UNL     1      43.879 -14.898   7.253  1.00  0.00    -0.324 N 
HETATM   18  C   UNL     1      44.802 -13.871   7.363  1.00  0.00     0.245 C 
HETATM   19  O   UNL     1      45.823 -13.746   6.690  1.00  0.00    -0.271 OA
HETATM   20  H   UNL     1      43.065 -14.861   7.868  1.00  0.00     0.169 HD
BRANCH  18  21
HETATM   21  C   UNL     1      44.408 -12.806   8.408  1.00  0.00     0.270 C 
BRANCH  21  22
HETATM   22  O   UNL     1      45.331 -12.566   9.461  1.00  0.00    -0.387 OA
HETATM   23  C   UNL     1      45.748 -11.210   9.539  1.00  0.00     0.202 C 
ENDBRANCH  21  22
ENDBRANCH  18  21
ENDBRANCH  12  17
ENDBRANCH   1  11
BRANCH   3  24
HETATM   24  N   UNL     1      41.538 -11.549   5.966  1.00  0.00    -0.340 N 
HETATM   25  H   UNL     1      42.457 -11.127   5.882  1.00  0.00     0.167 HD
BRANCH  24  26
HETATM   26  C   UNL     1      40.957 -11.308   7.233  1.00  0.00     0.034 A 
HETATM   27  C   UNL     1      39.661 -11.740   7.555  1.00  0.00     0.032 A 
HETATM   28  C   UNL     1      39.087 -11.513   8.813  1.00  0.00     0.034 A 
HETATM   29  C   UNL     1      39.851 -10.798   9.735  1.00  0.00     0.062 A 
HETATM   30  N   UNL     1      39.609 -10.434  11.033  1.00  0.00    -0.278 N 
HETATM   31  C   UNL     1      41.112 -10.298   9.443  1.00  0.00     0.013 A 
HETATM   32  H   UNL     1      38.794 -10.654  11.594  1.00  0.00     0.189 HD
HETATM   33  N   UNL     1      40.588  -9.693  11.587  1.00  0.00    -0.186 NA
HETATM   34  C   UNL     1      41.507  -9.625  10.620  1.00  0.00     0.152 A 
HETATM   35  C   UNL     1      41.671 -10.541   8.173  1.00  0.00     0.044 A 
ENDBRANCH  24  26
ENDBRANCH   3  24
TORSDOF 6
ENDMDL
