MODEL 1
REMARK VINA RESULT:      -9.1      0.000      0.000
REMARK  5 active torsions:
REMARK  status: ('A' for Active; 'I' for Inactive)
REMARK    1  A    between atoms: C_2  and  C_3 
REMARK    2  A    between atoms: C_8  and  C_9 
REMARK       I    between atoms: C_9  and  N_10 
REMARK    3  A    between atoms: N_10  and  C_11 
REMARK    4  A    between atoms: C_11  and  C_12 
REMARK    5  A    between atoms: C_19  and  C_20 
ROOT
HETATM    1  C   UNL     1      42.840 -17.112   5.111  1.00  0.00     0.118 C 
HETATM    2  N   UNL     1      44.052 -16.602   5.758  1.00  0.00    -0.366 N 
HETATM    3  C   UNL     1      44.014 -15.369   6.306  1.00  0.00     0.123 A 
HETATM    4  N   UNL     1      43.286 -14.386   5.709  1.00  0.00    -0.240 N 
HETATM    5  N   UNL     1      43.268 -13.224   6.381  1.00  0.00    -0.165 NA
HETATM    6  C   UNL     1      44.108 -13.455   7.418  1.00  0.00     0.148 A 
HETATM    7  C   UNL     1      44.607 -14.790   7.394  1.00  0.00     0.088 A 
HETATM    8  C   UNL     1      42.574 -14.590   4.467  1.00  0.00     0.221 C 
HETATM    9  C   UNL     1      42.012 -16.021   4.390  1.00  0.00     0.066 C 
HETATM   10  H   UNL     1      44.564 -17.331   6.257  1.00  0.00     0.161 HD
ENDROOT
BRANCH   6  11
HETATM   11  C   UNL     1      44.433 -12.420   8.412  1.00  0.00     0.272 C 
HETATM   12  N   UNL     1      43.328 -11.885   9.033  1.00  0.00    -0.353 N 
HETATM   13  H   UNL     1      42.432 -12.134   8.618  1.00  0.00     0.162 HD
HETATM   14  O   UNL     1      45.584 -12.061   8.646  1.00  0.00    -0.266 OA
BRANCH  12  15
HETATM   15  C   UNL     1      43.412 -10.685   9.839  1.00  0.00     0.155 C 
BRANCH  15  16
HETATM   16  C   UNL     1      43.065 -10.968  11.306  1.00  0.00     0.139 C 
HETATM   17  O   UNL     1      41.634 -10.855  11.477  1.00  0.00    -0.384 OA
HETATM   18  C   UNL     1      41.353  -9.696  12.274  1.00  0.00     0.168 C 
HETATM   19  C   UNL     1      42.629  -8.886  12.341  1.00  0.00     0.029 C 
HETATM   20  C   UNL     1      43.686  -9.958  12.259  1.00  0.00     0.035 C 
ENDBRANCH  15  16
ENDBRANCH  12  15
ENDBRANCH   6  11
BRANCH   8  21
HETATM   21  C   UNL     1      43.474 -14.260   3.297  1.00  0.00     0.409 C 
HETATM   22  F   UNL     1      43.851 -15.362   2.610  1.00  0.00    -0.169 F 
HETATM   23  F   UNL     1      42.932 -13.396   2.416  1.00  0.00    -0.169 F 
HETATM   24  F   UNL     1      44.621 -13.685   3.750  1.00  0.00    -0.169 F 
ENDBRANCH   8  21
BRANCH   1  25
HETATM   25  C   UNL     1      43.184 -18.278   4.200  1.00  0.00    -0.035 A 
HETATM   26  C   UNL     1      44.088 -19.261   4.638  1.00  0.00     0.010 A 
HETATM   27  C   UNL     1      44.420 -20.343   3.818  1.00  0.00     0.019 A 
HETATM   28  C   UNL     1      43.845 -20.454   2.554  1.00  0.00     0.011 A 
HETATM   29  C   UNL     1      42.942 -19.496   2.105  1.00  0.00     0.019 A 
HETATM   30 BR   UNL     1      44.299 -21.914   1.443  1.00  0.00    -0.051 Br
HETATM   31  C   UNL     1      42.614 -18.412   2.924  1.00  0.00     0.010 A 
ENDBRANCH   1  25
TORSDOF 5
ENDMDL
MODEL 2
REMARK VINA RESULT:      -8.7      6.535      9.510
REMARK  5 active torsions:
REMARK  status: ('A' for Active; 'I' for Inactive)
REMARK    1  A    between atoms: C_2  and  C_3 
REMARK    2  A    between atoms: C_8  and  C_9 
REMARK       I    between atoms: C_9  and  N_10 
REMARK    3  A    between atoms: N_10  and  C_11 
REMARK    4  A    between atoms: C_11  and  C_12 
REMARK    5  A    between atoms: C_19  and  C_20 
ROOT
HETATM    1  C   UNL     1      43.602 -17.126   1.939  1.00  0.00     0.118 C 
HETATM    2  N   UNL     1      42.470 -17.400   1.049  1.00  0.00    -0.366 N 
HETATM    3  C   UNL     1      41.794 -16.352   0.533  1.00  0.00     0.123 A 
HETATM    4  N   UNL     1      41.612 -15.231   1.283  1.00  0.00    -0.240 N 
HETATM    5  N   UNL     1      40.987 -14.231   0.641  1.00  0.00    -0.165 NA
HETATM    6  C   UNL     1      40.672 -14.782  -0.556  1.00  0.00     0.148 A 
HETATM    7  C   UNL     1      41.153 -16.120  -0.652  1.00  0.00     0.088 A 
HETATM    8  C   UNL     1      42.077 -15.122   2.647  1.00  0.00     0.221 C 
HETATM    9  C   UNL     1      43.406 -15.878   2.832  1.00  0.00     0.066 C 
HETATM   10  H   UNL     1      42.635 -18.206   0.444  1.00  0.00     0.161 HD
ENDROOT
BRANCH   6  11
HETATM   11  C   UNL     1      39.923 -14.047  -1.587  1.00  0.00     0.272 C 
HETATM   12  N   UNL     1      39.164 -14.858  -2.400  1.00  0.00    -0.353 N 
HETATM   13  H   UNL     1      39.343 -15.856  -2.309  1.00  0.00     0.162 HD
HETATM   14  O   UNL     1      39.987 -12.828  -1.713  1.00  0.00    -0.266 OA
BRANCH  12  15
HETATM   15  C   UNL     1      38.569 -14.367  -3.625  1.00  0.00     0.155 C 
BRANCH  15  16
HETATM   16  C   UNL     1      37.055 -14.167  -3.473  1.00  0.00     0.139 C 
HETATM   17  O   UNL     1      36.387 -14.804  -4.584  1.00  0.00    -0.384 OA
HETATM   18  C   UNL     1      35.816 -13.791  -5.424  1.00  0.00     0.168 C 
HETATM   19  C   UNL     1      36.414 -12.470  -4.991  1.00  0.00     0.029 C 
HETATM   20  C   UNL     1      36.652 -12.701  -3.520  1.00  0.00     0.035 C 
ENDBRANCH  15  16
ENDBRANCH  12  15
ENDBRANCH   6  11
BRANCH   8  21
HETATM   21  C   UNL     1      41.003 -15.603   3.597  1.00  0.00     0.409 C 
HETATM   22  F   UNL     1      39.784 -15.106   3.290  1.00  0.00    -0.169 F 
HETATM   23  F   UNL     1      40.892 -16.945   3.664  1.00  0.00    -0.169 F 
HETATM   24  F   UNL     1      41.282 -15.173   4.858  1.00  0.00    -0.169 F 
ENDBRANCH   8  21
BRANCH   1  25
HETATM   25  C   UNL     1      43.948 -18.367   2.743  1.00  0.00    -0.035 A 
HETATM   26  C   UNL     1      44.135 -19.595   2.083  1.00  0.00     0.010 A 
HETATM   27  C   UNL     1      44.453 -20.751   2.802  1.00  0.00     0.019 A 
HETATM   28  C   UNL     1      44.594 -20.688   4.186  1.00  0.00     0.011 A 
HETATM   29  C   UNL     1      44.422 -19.481   4.857  1.00  0.00     0.019 A 
HETATM   30 BR   UNL     1      45.019 -22.251   5.158  1.00  0.00    -0.051 Br
HETATM   31  C   UNL     1      44.099 -18.326   4.138  1.00  0.00     0.010 A 
ENDBRANCH   1  25
TORSDOF 5
ENDMDL
MODEL 3
REMARK VINA RESULT:      -8.7      2.647      3.330
REMARK  5 active torsions:
REMARK  status: ('A' for Active; 'I' for Inactive)
REMARK    1  A    between atoms: C_2  and  C_3 
REMARK    2  A    between atoms: C_8  and  C_9 
REMARK       I    between atoms: C_9  and  N_10 
REMARK    3  A    between atoms: N_10  and  C_11 
REMARK    4  A    between atoms: C_11  and  C_12 
REMARK    5  A    between atoms: C_19  and  C_20 
ROOT
HETATM    1  C   UNL     1      42.735 -16.019   3.561  1.00  0.00     0.118 C 
HETATM    2  N   UNL     1      41.518 -15.988   4.376  1.00  0.00    -0.366 N 
HETATM    3  C   UNL     1      41.236 -14.861   5.062  1.00  0.00     0.123 A 
HETATM    4  N   UNL     1      42.247 -14.129   5.604  1.00  0.00    -0.240 N 
HETATM    5  N   UNL     1      41.851 -12.994   6.203  1.00  0.00    -0.165 NA
HETATM    6  C   UNL     1      40.501 -13.056   6.116  1.00  0.00     0.148 A 
HETATM    7  C   UNL     1      40.079 -14.224   5.417  1.00  0.00     0.088 A 
HETATM    8  C   UNL     1      43.633 -14.531   5.517  1.00  0.00     0.221 C 
HETATM    9  C   UNL     1      43.916 -15.226   4.172  1.00  0.00     0.066 C 
HETATM   10  H   UNL     1      40.742 -16.487   3.938  1.00  0.00     0.161 HD
ENDROOT
BRANCH   6  11
HETATM   11  C   UNL     1      39.628 -12.022   6.694  1.00  0.00     0.272 C 
HETATM   12  N   UNL     1      39.946 -11.692   7.992  1.00  0.00    -0.353 N 
HETATM   13  H   UNL     1      40.617 -12.311   8.445  1.00  0.00     0.162 HD
HETATM   14  O   UNL     1      38.695 -11.518   6.075  1.00  0.00    -0.266 OA
BRANCH  12  15
HETATM   15  C   UNL     1      39.060 -10.901   8.818  1.00  0.00     0.155 C 
BRANCH  15  16
HETATM   16  C   UNL     1      39.841  -9.905   9.685  1.00  0.00     0.139 C 
HETATM   17  O   UNL     1      41.223 -10.321   9.743  1.00  0.00    -0.384 OA
HETATM   18  C   UNL     1      41.518 -10.768  11.073  1.00  0.00     0.168 C 
HETATM   19  C   UNL     1      40.194 -10.928  11.788  1.00  0.00     0.029 C 
HETATM   20  C   UNL     1      39.348  -9.871  11.124  1.00  0.00     0.035 C 
ENDBRANCH  15  16
ENDBRANCH  12  15
ENDBRANCH   6  11
BRANCH   8  21
HETATM   21  C   UNL     1      43.992 -15.401   6.702  1.00  0.00     0.409 C 
HETATM   22  F   UNL     1      42.951 -16.156   7.120  1.00  0.00    -0.169 F 
HETATM   23  F   UNL     1      45.033 -16.228   6.479  1.00  0.00    -0.169 F 
HETATM   24  F   UNL     1      44.340 -14.616   7.757  1.00  0.00    -0.169 F 
ENDBRANCH   8  21
BRANCH   1  25
HETATM   25  C   UNL     1      43.108 -17.453   3.231  1.00  0.00    -0.035 A 
HETATM   26  C   UNL     1      43.872 -18.203   4.142  1.00  0.00     0.010 A 
HETATM   27  C   UNL     1      44.227 -19.525   3.860  1.00  0.00     0.019 A 
HETATM   28  C   UNL     1      43.816 -20.111   2.665  1.00  0.00     0.011 A 
HETATM   29  C   UNL     1      43.052 -19.389   1.753  1.00  0.00     0.019 A 
HETATM   30 BR   UNL     1      44.301 -21.897   2.281  1.00  0.00    -0.051 Br
HETATM   31  C   UNL     1      42.701 -18.066   2.035  1.00  0.00     0.010 A 
ENDBRANCH   1  25
TORSDOF 5
ENDMDL
MODEL 4
REMARK VINA RESULT:      -8.5      5.738      8.919
REMARK  5 active torsions:
REMARK  status: ('A' for Active; 'I' for Inactive)
REMARK    1  A    between atoms: C_2  and  C_3 
REMARK    2  A    between atoms: C_8  and  C_9 
REMARK       I    between atoms: C_9  and  N_10 
REMARK    3  A    between atoms: N_10  and  C_11 
REMARK    4  A    between atoms: C_11  and  C_12 
REMARK    5  A    between atoms: C_19  and  C_20 
ROOT
HETATM    1  C   UNL     1      43.428 -16.989   2.502  1.00  0.00     0.118 C 
HETATM    2  N   UNL     1      42.175 -17.179   1.766  1.00  0.00    -0.366 N 
HETATM    3  C   UNL     1      41.457 -16.086   1.435  1.00  0.00     0.123 A 
HETATM    4  N   UNL     1      41.408 -15.026   2.287  1.00  0.00    -0.240 N 
HETATM    5  N   UNL     1      40.720 -13.971   1.820  1.00  0.00    -0.165 NA
HETATM    6  C   UNL     1      40.226 -14.422   0.643  1.00  0.00     0.148 A 
HETATM    7  C   UNL     1      40.658 -15.754   0.376  1.00  0.00     0.088 A 
HETATM    8  C   UNL     1      42.065 -15.031   3.575  1.00  0.00     0.221 C 
HETATM    9  C   UNL     1      43.389 -15.814   3.508  1.00  0.00     0.066 C 
HETATM   10  H   UNL     1      42.234 -17.936   1.083  1.00  0.00     0.161 HD
ENDROOT
BRANCH   6  11
HETATM   11  C   UNL     1      39.354 -13.599  -0.210  1.00  0.00     0.272 C 
HETATM   12  N   UNL     1      38.688 -14.319  -1.176  1.00  0.00    -0.353 N 
HETATM   13  H   UNL     1      39.003 -15.280  -1.296  1.00  0.00     0.162 HD
HETATM   14  O   UNL     1      39.250 -12.383  -0.077  1.00  0.00    -0.266 OA
BRANCH  12  15
HETATM   15  C   UNL     1      37.996 -13.671  -2.269  1.00  0.00     0.155 C 
BRANCH  15  16
HETATM   16  C   UNL     1      38.673 -13.964  -3.614  1.00  0.00     0.139 C 
HETATM   17  O   UNL     1      37.988 -15.066  -4.251  1.00  0.00    -0.384 OA
HETATM   18  C   UNL     1      38.857 -16.207  -4.263  1.00  0.00     0.168 C 
HETATM   19  C   UNL     1      40.004 -15.898  -3.326  1.00  0.00     0.029 C 
HETATM   20  C   UNL     1      40.121 -14.401  -3.457  1.00  0.00     0.035 C 
ENDBRANCH  15  16
ENDBRANCH  12  15
ENDBRANCH   6  11
BRANCH   8  21
HETATM   21  C   UNL     1      41.126 -15.574   4.630  1.00  0.00     0.409 C 
HETATM   22  F   UNL     1      39.877 -15.071   4.515  1.00  0.00    -0.169 F 
HETATM   23  F   UNL     1      41.027 -16.919   4.634  1.00  0.00    -0.169 F 
HETATM   24  F   UNL     1      41.568 -15.214   5.865  1.00  0.00    -0.169 F 
ENDBRANCH   8  21
BRANCH   1  25
HETATM   25  C   UNL     1      43.857 -18.294   3.150  1.00  0.00    -0.035 A 
HETATM   26  C   UNL     1      44.031 -19.442   2.357  1.00  0.00     0.010 A 
HETATM   27  C   UNL     1      44.424 -20.654   2.930  1.00  0.00     0.019 A 
HETATM   28  C   UNL     1      44.654 -20.728   4.302  1.00  0.00     0.011 A 
HETATM   29  C   UNL     1      44.496 -19.602   5.104  1.00  0.00     0.019 A 
HETATM   30 BR   UNL     1      45.181 -22.368   5.078  1.00  0.00    -0.051 Br
HETATM   31  C   UNL     1      44.098 -18.391   4.530  1.00  0.00     0.010 A 
ENDBRANCH   1  25
TORSDOF 5
ENDMDL
MODEL 5
REMARK VINA RESULT:      -8.5      6.372      8.942
REMARK  5 active torsions:
REMARK  status: ('A' for Active; 'I' for Inactive)
REMARK    1  A    between atoms: C_2  and  C_3 
REMARK    2  A    between atoms: C_8  and  C_9 
REMARK       I    between atoms: C_9  and  N_10 
REMARK    3  A    between atoms: N_10  and  C_11 
REMARK    4  A    between atoms: C_11  and  C_12 
REMARK    5  A    between atoms: C_19  and  C_20 
ROOT
HETATM    1  C   UNL     1      43.634 -17.110   1.964  1.00  0.00     0.118 C 
HETATM    2  N   UNL     1      42.525 -17.375   1.043  1.00  0.00    -0.366 N 
HETATM    3  C   UNL     1      41.848 -16.322   0.537  1.00  0.00     0.123 A 
HETATM    4  N   UNL     1      41.636 -15.222   1.310  1.00  0.00    -0.240 N 
HETATM    5  N   UNL     1      41.013 -14.214   0.678  1.00  0.00    -0.165 NA
HETATM    6  C   UNL     1      40.732 -14.739  -0.538  1.00  0.00     0.148 A 
HETATM    7  C   UNL     1      41.231 -16.069  -0.656  1.00  0.00     0.088 A 
HETATM    8  C   UNL     1      42.069 -15.142   2.686  1.00  0.00     0.221 C 
HETATM    9  C   UNL     1      43.403 -15.886   2.883  1.00  0.00     0.066 C 
HETATM   10  H   UNL     1      42.713 -18.164   0.422  1.00  0.00     0.161 HD
ENDROOT
BRANCH   6  11
HETATM   11  C   UNL     1      39.996 -13.988  -1.568  1.00  0.00     0.272 C 
HETATM   12  N   UNL     1      40.806 -13.445  -2.539  1.00  0.00    -0.353 N 
HETATM   13  H   UNL     1      41.805 -13.475  -2.339  1.00  0.00     0.162 HD
HETATM   14  O   UNL     1      38.777 -13.850  -1.546  1.00  0.00    -0.266 OA
BRANCH  12  15
HETATM   15  C   UNL     1      40.314 -12.462  -3.480  1.00  0.00     0.155 C 
BRANCH  15  16
HETATM   16  C   UNL     1      40.908 -11.074  -3.205  1.00  0.00     0.139 C 
HETATM   17  O   UNL     1      40.290 -10.118  -4.095  1.00  0.00    -0.384 OA
HETATM   18  C   UNL     1      41.266  -9.671  -5.046  1.00  0.00     0.168 C 
HETATM   19  C   UNL     1      42.447 -10.610  -4.940  1.00  0.00     0.029 C 
HETATM   20  C   UNL     1      42.401 -11.011  -3.487  1.00  0.00     0.035 C 
ENDBRANCH  15  16
ENDBRANCH  12  15
ENDBRANCH   6  11
BRANCH   8  21
HETATM   21  C   UNL     1      40.980 -15.658   3.600  1.00  0.00     0.409 C 
HETATM   22  F   UNL     1      39.847 -14.925   3.517  1.00  0.00    -0.169 F 
HETATM   23  F   UNL     1      40.649 -16.947   3.383  1.00  0.00    -0.169 F 
HETATM   24  F   UNL     1      41.391 -15.575   4.894  1.00  0.00    -0.169 F 
ENDBRANCH   8  21
BRANCH   1  25
HETATM   25  C   UNL     1      43.976 -18.367   2.745  1.00  0.00    -0.035 A 
HETATM   26  C   UNL     1      44.268 -19.557   2.057  1.00  0.00     0.010 A 
HETATM   27  C   UNL     1      44.586 -20.726   2.754  1.00  0.00     0.019 A 
HETATM   28  C   UNL     1      44.621 -20.713   4.146  1.00  0.00     0.011 A 
HETATM   29  C   UNL     1      44.343 -19.543   4.846  1.00  0.00     0.019 A 
HETATM   30 BR   UNL     1      45.045 -22.295   5.089  1.00  0.00    -0.051 Br
HETATM   31  C   UNL     1      44.022 -18.376   4.148  1.00  0.00     0.010 A 
ENDBRANCH   1  25
TORSDOF 5
ENDMDL
MODEL 6
REMARK VINA RESULT:      -8.4      1.921      2.441
REMARK  5 active torsions:
REMARK  status: ('A' for Active; 'I' for Inactive)
REMARK    1  A    between atoms: C_2  and  C_3 
REMARK    2  A    between atoms: C_8  and  C_9 
REMARK       I    between atoms: C_9  and  N_10 
REMARK    3  A    between atoms: N_10  and  C_11 
REMARK    4  A    between atoms: C_11  and  C_12 
REMARK    5  A    between atoms: C_19  and  C_20 
ROOT
HETATM    1  C   UNL     1      42.530 -17.261   5.324  1.00  0.00     0.118 C 
HETATM    2  N   UNL     1      43.284 -16.023   5.111  1.00  0.00    -0.366 N 
HETATM    3  C   UNL     1      42.727 -14.859   5.508  1.00  0.00     0.123 A 
HETATM    4  N   UNL     1      41.383 -14.680   5.394  1.00  0.00    -0.240 N 
HETATM    5  N   UNL     1      40.936 -13.513   5.883  1.00  0.00    -0.165 NA
HETATM    6  C   UNL     1      42.074 -12.875   6.246  1.00  0.00     0.148 A 
HETATM    7  C   UNL     1      43.221 -13.687   6.010  1.00  0.00     0.088 A 
HETATM    8  C   UNL     1      40.511 -15.678   4.816  1.00  0.00     0.221 C 
HETATM    9  C   UNL     1      41.000 -17.096   5.162  1.00  0.00     0.066 C 
HETATM   10  H   UNL     1      44.287 -16.146   5.258  1.00  0.00     0.161 HD
ENDROOT
BRANCH   6  11
HETATM   11  C   UNL     1      42.069 -11.512   6.802  1.00  0.00     0.272 C 
HETATM   12  N   UNL     1      42.573 -11.436   8.080  1.00  0.00    -0.353 N 
HETATM   13  H   UNL     1      42.722 -12.331   8.543  1.00  0.00     0.162 HD
HETATM   14  O   UNL     1      41.637 -10.544   6.184  1.00  0.00    -0.266 OA
BRANCH  12  15
HETATM   15  C   UNL     1      42.414 -10.250   8.894  1.00  0.00     0.155 C 
BRANCH  15  16
HETATM   16  C   UNL     1      42.044 -10.606  10.340  1.00  0.00     0.139 C 
HETATM   17  O   UNL     1      41.862  -9.384  11.089  1.00  0.00    -0.384 OA
HETATM   18  C   UNL     1      42.928  -9.259  12.041  1.00  0.00     0.168 C 
HETATM   19  C   UNL     1      43.979 -10.279  11.661  1.00  0.00     0.029 C 
HETATM   20  C   UNL     1      43.146 -11.377  11.051  1.00  0.00     0.035 C 
ENDBRANCH  15  16
ENDBRANCH  12  15
ENDBRANCH   6  11
BRANCH   8  21
HETATM   21  C   UNL     1      40.393 -15.457   3.324  1.00  0.00     0.409 C 
HETATM   22  F   UNL     1      41.485 -14.851   2.806  1.00  0.00    -0.169 F 
HETATM   23  F   UNL     1      40.179 -16.585   2.618  1.00  0.00    -0.169 F 
HETATM   24  F   UNL     1      39.343 -14.632   3.065  1.00  0.00    -0.169 F 
ENDBRANCH   8  21
BRANCH   1  25
HETATM   25  C   UNL     1      43.091 -18.371   4.452  1.00  0.00    -0.035 A 
HETATM   26  C   UNL     1      42.695 -18.467   3.107  1.00  0.00     0.010 A 
HETATM   27  C   UNL     1      43.197 -19.481   2.285  1.00  0.00     0.019 A 
HETATM   28  C   UNL     1      44.105 -20.403   2.800  1.00  0.00     0.011 A 
HETATM   29  C   UNL     1      44.516 -20.320   4.127  1.00  0.00     0.019 A 
HETATM   30 BR   UNL     1      44.779 -21.775   1.690  1.00  0.00    -0.051 Br
HETATM   31  C   UNL     1      44.010 -19.309   4.949  1.00  0.00     0.010 A 
ENDBRANCH   1  25
TORSDOF 5
ENDMDL
MODEL 7
REMARK VINA RESULT:      -8.2      6.011      7.783
REMARK  5 active torsions:
REMARK  status: ('A' for Active; 'I' for Inactive)
REMARK    1  A    between atoms: C_2  and  C_3 
REMARK    2  A    between atoms: C_8  and  C_9 
REMARK       I    between atoms: C_9  and  N_10 
REMARK    3  A    between atoms: N_10  and  C_11 
REMARK    4  A    between atoms: C_11  and  C_12 
REMARK    5  A    between atoms: C_19  and  C_20 
ROOT
HETATM    1  C   UNL     1      43.620 -17.169   1.977  1.00  0.00     0.118 C 
HETATM    2  N   UNL     1      42.450 -17.377   1.120  1.00  0.00    -0.366 N 
HETATM    3  C   UNL     1      41.782 -16.291   0.675  1.00  0.00     0.123 A 
HETATM    4  N   UNL     1      41.656 -15.200   1.479  1.00  0.00    -0.240 N 
HETATM    5  N   UNL     1      41.033 -14.159   0.904  1.00  0.00    -0.165 NA
HETATM    6  C   UNL     1      40.661 -14.649  -0.302  1.00  0.00     0.148 A 
HETATM    7  C   UNL     1      41.104 -15.993  -0.474  1.00  0.00     0.088 A 
HETATM    8  C   UNL     1      42.173 -15.163   2.828  1.00  0.00     0.221 C 
HETATM    9  C   UNL     1      43.488 -15.957   2.930  1.00  0.00     0.066 C 
HETATM   10  H   UNL     1      42.572 -18.159   0.475  1.00  0.00     0.161 HD
ENDROOT
BRANCH   6  11
HETATM   11  C   UNL     1      39.893 -13.852  -1.272  1.00  0.00     0.272 C 
HETATM   12  N   UNL     1      39.991 -12.494  -1.072  1.00  0.00    -0.353 N 
HETATM   13  H   UNL     1      40.428 -12.214  -0.195  1.00  0.00     0.162 HD
HETATM   14  O   UNL     1      39.217 -14.360  -2.163  1.00  0.00    -0.266 OA
BRANCH  12  15
HETATM   15  C   UNL     1      39.114 -11.558  -1.742  1.00  0.00     0.155 C 
BRANCH  15  16
HETATM   16  C   UNL     1      38.269 -10.763  -0.739  1.00  0.00     0.139 C 
HETATM   17  O   UNL     1      38.795 -10.981   0.589  1.00  0.00    -0.384 OA
HETATM   18  C   UNL     1      37.850 -11.754   1.341  1.00  0.00     0.168 C 
HETATM   19  C   UNL     1      36.842 -12.300   0.354  1.00  0.00     0.029 C 
HETATM   20  C   UNL     1      36.820 -11.224  -0.701  1.00  0.00     0.035 C 
ENDBRANCH  15  16
ENDBRANCH  12  15
ENDBRANCH   6  11
BRANCH   8  21
HETATM   21  C   UNL     1      41.122 -15.660   3.796  1.00  0.00     0.409 C 
HETATM   22  F   UNL     1      39.899 -15.146   3.536  1.00  0.00    -0.169 F 
HETATM   23  F   UNL     1      41.002 -17.002   3.833  1.00  0.00    -0.169 F 
HETATM   24  F   UNL     1      41.439 -15.264   5.059  1.00  0.00    -0.169 F 
ENDBRANCH   8  21
BRANCH   1  25
HETATM   25  C   UNL     1      43.963 -18.452   2.713  1.00  0.00    -0.035 A 
HETATM   26  C   UNL     1      44.122 -18.434   4.110  1.00  0.00     0.010 A 
HETATM   27  C   UNL     1      44.438 -19.602   4.809  1.00  0.00     0.019 A 
HETATM   28  C   UNL     1      44.592 -20.801   4.118  1.00  0.00     0.011 A 
HETATM   29  C   UNL     1      44.432 -20.843   2.736  1.00  0.00     0.019 A 
HETATM   30 BR   UNL     1      45.026 -22.380   5.062  1.00  0.00    -0.051 Br
HETATM   31  C   UNL     1      44.120 -19.673   2.037  1.00  0.00     0.010 A 
ENDBRANCH   1  25
TORSDOF 5
ENDMDL
MODEL 8
REMARK VINA RESULT:      -8.0      6.663      9.028
REMARK  5 active torsions:
REMARK  status: ('A' for Active; 'I' for Inactive)
REMARK    1  A    between atoms: C_2  and  C_3 
REMARK    2  A    between atoms: C_8  and  C_9 
REMARK       I    between atoms: C_9  and  N_10 
REMARK    3  A    between atoms: N_10  and  C_11 
REMARK    4  A    between atoms: C_11  and  C_12 
REMARK    5  A    between atoms: C_19  and  C_20 
ROOT
HETATM    1  C   UNL     1      43.517 -16.970   1.788  1.00  0.00     0.118 C 
HETATM    2  N   UNL     1      42.541 -17.290   0.743  1.00  0.00    -0.366 N 
HETATM    3  C   UNL     1      41.850 -16.276   0.180  1.00  0.00     0.123 A 
HETATM    4  N   UNL     1      41.473 -15.212   0.941  1.00  0.00    -0.240 N 
HETATM    5  N   UNL     1      40.853 -14.236   0.259  1.00  0.00    -0.165 NA
HETATM    6  C   UNL     1      40.749 -14.750  -0.989  1.00  0.00     0.148 A 
HETATM    7  C   UNL     1      41.353 -16.038  -1.071  1.00  0.00     0.088 A 
HETATM    8  C   UNL     1      41.742 -15.135   2.359  1.00  0.00     0.221 C 
HETATM    9  C   UNL     1      43.096 -15.788   2.694  1.00  0.00     0.066 C 
HETATM   10  H   UNL     1      42.854 -18.048   0.135  1.00  0.00     0.161 HD
ENDROOT
BRANCH   6  11
HETATM   11  C   UNL     1      40.081 -14.027  -2.084  1.00  0.00     0.272 C 
HETATM   12  N   UNL     1      38.734 -14.292  -2.178  1.00  0.00    -0.353 N 
HETATM   13  H   UNL     1      38.402 -15.069  -1.609  1.00  0.00     0.162 HD
HETATM   14  O   UNL     1      40.680 -13.275  -2.846  1.00  0.00    -0.266 OA
BRANCH  12  15
HETATM   15  C   UNL     1      37.957 -13.895  -3.333  1.00  0.00     0.155 C 
BRANCH  15  16
HETATM   16  C   UNL     1      36.948 -12.795  -2.979  1.00  0.00     0.139 C 
HETATM   17  O   UNL     1      36.774 -11.935  -4.127  1.00  0.00    -0.384 OA
HETATM   18  C   UNL     1      37.345 -10.651  -3.835  1.00  0.00     0.168 C 
HETATM   19  C   UNL     1      38.176 -10.813  -2.581  1.00  0.00     0.029 C 
HETATM   20  C   UNL     1      37.431 -11.900  -1.849  1.00  0.00     0.035 C 
ENDBRANCH  15  16
ENDBRANCH  12  15
ENDBRANCH   6  11
BRANCH   8  21
HETATM   21  C   UNL     1      40.598 -15.749   3.135  1.00  0.00     0.409 C 
HETATM   22  F   UNL     1      41.019 -16.678   4.023  1.00  0.00    -0.169 F 
HETATM   23  F   UNL     1      39.848 -14.853   3.807  1.00  0.00    -0.169 F 
HETATM   24  F   UNL     1      39.760 -16.394   2.280  1.00  0.00    -0.169 F 
ENDBRANCH   8  21
BRANCH   1  25
HETATM   25  C   UNL     1      43.860 -18.217   2.582  1.00  0.00    -0.035 A 
HETATM   26  C   UNL     1      43.978 -18.143   3.981  1.00  0.00     0.010 A 
HETATM   27  C   UNL     1      44.294 -19.278   4.734  1.00  0.00     0.019 A 
HETATM   28  C   UNL     1      44.488 -20.499   4.094  1.00  0.00     0.011 A 
HETATM   29  C   UNL     1      44.369 -20.596   2.711  1.00  0.00     0.019 A 
HETATM   30 BR   UNL     1      44.921 -22.032   5.110  1.00  0.00    -0.051 Br
HETATM   31  C   UNL     1      44.057 -19.460   1.959  1.00  0.00     0.010 A 
ENDBRANCH   1  25
TORSDOF 5
ENDMDL
MODEL 9
REMARK VINA RESULT:      -7.7      5.123      8.423
REMARK  5 active torsions:
REMARK  status: ('A' for Active; 'I' for Inactive)
REMARK    1  A    between atoms: C_2  and  C_3 
REMARK    2  A    between atoms: C_8  and  C_9 
REMARK       I    between atoms: C_9  and  N_10 
REMARK    3  A    between atoms: N_10  and  C_11 
REMARK    4  A    between atoms: C_11  and  C_12 
REMARK    5  A    between atoms: C_19  and  C_20 
ROOT
HETATM    1  C   UNL     1      39.843 -14.385   3.844  1.00  0.00     0.118 C 
HETATM    2  N   UNL     1      40.268 -15.747   3.509  1.00  0.00    -0.366 N 
HETATM    3  C   UNL     1      41.206 -16.333   4.284  1.00  0.00     0.123 A 
HETATM    4  N   UNL     1      42.213 -15.583   4.808  1.00  0.00    -0.240 N 
HETATM    5  N   UNL     1      43.045 -16.260   5.616  1.00  0.00    -0.165 NA
HETATM    6  C   UNL     1      42.592 -17.533   5.527  1.00  0.00     0.148 A 
HETATM    7  C   UNL     1      41.445 -17.617   4.685  1.00  0.00     0.088 A 
HETATM    8  C   UNL     1      42.357 -14.171   4.533  1.00  0.00     0.221 C 
HETATM    9  C   UNL     1      40.978 -13.497   4.406  1.00  0.00     0.066 C 
HETATM   10  H   UNL     1      39.497 -16.326   3.174  1.00  0.00     0.161 HD
ENDROOT
BRANCH   6  11
HETATM   11  C   UNL     1      43.245 -18.650   6.228  1.00  0.00     0.272 C 
HETATM   12  N   UNL     1      43.836 -19.562   5.383  1.00  0.00    -0.353 N 
HETATM   13  H   UNL     1      43.606 -19.453   4.396  1.00  0.00     0.162 HD
HETATM   14  O   UNL     1      43.243 -18.760   7.450  1.00  0.00    -0.266 OA
BRANCH  12  15
HETATM   15  C   UNL     1      44.295 -20.852   5.852  1.00  0.00     0.155 C 
BRANCH  15  16
HETATM   16  C   UNL     1      45.269 -21.497   4.859  1.00  0.00     0.139 C 
HETATM   17  O   UNL     1      45.534 -20.560   3.791  1.00  0.00    -0.384 OA
HETATM   18  C   UNL     1      44.938 -21.054   2.582  1.00  0.00     0.168 C 
HETATM   19  C   UNL     1      44.008 -22.179   2.978  1.00  0.00     0.029 C 
HETATM   20  C   UNL     1      44.693 -22.740   4.198  1.00  0.00     0.035 C 
ENDBRANCH  15  16
ENDBRANCH  12  15
ENDBRANCH   6  11
BRANCH   8  21
HETATM   21  C   UNL     1      43.213 -13.969   3.302  1.00  0.00     0.409 C 
HETATM   22  F   UNL     1      43.301 -15.088   2.549  1.00  0.00    -0.169 F 
HETATM   23  F   UNL     1      42.794 -12.970   2.501  1.00  0.00    -0.169 F 
HETATM   24  F   UNL     1      44.485 -13.662   3.675  1.00  0.00    -0.169 F 
ENDBRANCH   8  21
BRANCH   1  25
HETATM   25  C   UNL     1      39.142 -13.749   2.656  1.00  0.00    -0.035 A 
HETATM   26  C   UNL     1      38.983 -12.353   2.605  1.00  0.00     0.010 A 
HETATM   27  C   UNL     1      38.341 -11.746   1.523  1.00  0.00     0.019 A 
HETATM   28  C   UNL     1      37.858 -12.529   0.477  1.00  0.00     0.011 A 
HETATM   29  C   UNL     1      38.012 -13.912   0.504  1.00  0.00     0.019 A 
HETATM   30 BR   UNL     1      36.985 -11.708  -0.984  1.00  0.00    -0.051 Br
HETATM   31  C   UNL     1      38.650 -14.519   1.589  1.00  0.00     0.010 A 
ENDBRANCH   1  25
TORSDOF 5
ENDMDL
MODEL 10
REMARK VINA RESULT:      -7.7      5.776      8.586
REMARK  5 active torsions:
REMARK  status: ('A' for Active; 'I' for Inactive)
REMARK    1  A    between atoms: C_2  and  C_3 
REMARK    2  A    between atoms: C_8  and  C_9 
REMARK       I    between atoms: C_9  and  N_10 
REMARK    3  A    between atoms: N_10  and  C_11 
REMARK    4  A    between atoms: C_11  and  C_12 
REMARK    5  A    between atoms: C_19  and  C_20 
ROOT
HETATM    1  C   UNL     1      43.210 -16.966   2.839  1.00  0.00     0.118 C 
HETATM    2  N   UNL     1      41.904 -17.124   2.193  1.00  0.00    -0.366 N 
HETATM    3  C   UNL     1      41.148 -16.023   2.000  1.00  0.00     0.123 A 
HETATM    4  N   UNL     1      41.156 -15.027   2.927  1.00  0.00    -0.240 N 
HETATM    5  N   UNL     1      40.421 -13.954   2.594  1.00  0.00    -0.165 NA
HETATM    6  C   UNL     1      39.839 -14.329   1.430  1.00  0.00     0.148 A 
HETATM    7  C   UNL     1      40.263 -15.630   1.034  1.00  0.00     0.088 A 
HETATM    8  C   UNL     1      41.914 -15.112   4.155  1.00  0.00     0.221 C 
HETATM    9  C   UNL     1      43.238 -15.865   3.927  1.00  0.00     0.066 C 
HETATM   10  H   UNL     1      41.916 -17.830   1.455  1.00  0.00     0.161 HD
ENDROOT
BRANCH   6  11
HETATM   11  C   UNL     1      38.891 -13.463   0.710  1.00  0.00     0.272 C 
HETATM   12  N   UNL     1      39.252 -13.213  -0.594  1.00  0.00    -0.353 N 
HETATM   13  H   UNL     1      40.195 -13.503  -0.847  1.00  0.00     0.162 HD
HETATM   14  O   UNL     1      37.885 -12.998   1.237  1.00  0.00    -0.266 OA
BRANCH  12  15
HETATM   15  C   UNL     1      38.605 -12.186  -1.382  1.00  0.00     0.155 C 
BRANCH  15  16
HETATM   16  C   UNL     1      38.779 -12.438  -2.885  1.00  0.00     0.139 C 
HETATM   17  O   UNL     1      38.610 -11.188  -3.590  1.00  0.00    -0.384 OA
HETATM   18  C   UNL     1      37.393 -11.243  -4.346  1.00  0.00     0.168 C 
HETATM   19  C   UNL     1      36.621 -12.447  -3.852  1.00  0.00     0.029 C 
HETATM   20  C   UNL     1      37.728 -13.385  -3.444  1.00  0.00     0.035 C 
ENDBRANCH  15  16
ENDBRANCH  12  15
ENDBRANCH   6  11
BRANCH   8  21
HETATM   21  C   UNL     1      41.070 -15.745   5.239  1.00  0.00     0.409 C 
HETATM   22  F   UNL     1      39.912 -15.078   5.444  1.00  0.00    -0.169 F 
HETATM   23  F   UNL     1      40.762 -17.037   5.009  1.00  0.00    -0.169 F 
HETATM   24  F   UNL     1      41.743 -15.710   6.421  1.00  0.00    -0.169 F 
ENDBRANCH   8  21
BRANCH   1  25
HETATM   25  C   UNL     1      43.704 -18.306   3.355  1.00  0.00    -0.035 A 
HETATM   26  C   UNL     1      43.853 -18.509   4.738  1.00  0.00     0.010 A 
HETATM   27  C   UNL     1      44.307 -19.733   5.236  1.00  0.00     0.019 A 
HETATM   28  C   UNL     1      44.610 -20.768   4.355  1.00  0.00     0.011 A 
HETATM   29  C   UNL     1      44.462 -20.591   2.983  1.00  0.00     0.019 A 
HETATM   30 BR   UNL     1      45.229 -22.422   5.028  1.00  0.00    -0.051 Br
HETATM   31  C   UNL     1      44.012 -19.364   2.486  1.00  0.00     0.010 A 
ENDBRANCH   1  25
TORSDOF 5
ENDMDL
