MODEL 1
REMARK VINA RESULT:      -9.6      0.000      0.000
REMARK  6 active torsions:
REMARK  status: ('A' for Active; 'I' for Inactive)
REMARK    1  A    between atoms: C_5  and  N_6 
REMARK    2  A    between atoms: C_8  and  C_9 
REMARK    3  A    between atoms: C_16  and  C_17 
REMARK    4  A    between atoms: C_17  and  N_18 
REMARK    5  A    between atoms: C_22  and  N_23 
REMARK    6  A    between atoms: C_26  and  O_27 
ROOT
HETATM    1  N   UNL     1      43.024 -14.587   5.596  1.00  0.00    -0.244 N 
HETATM    2  N   UNL     1      43.646 -15.757   5.333  1.00  0.00    -0.167 NA
HETATM    3  C   UNL     1      42.972 -16.331   4.335  1.00  0.00     0.097 A 
HETATM    4  C   UNL     1      41.796 -15.594   4.025  1.00  0.00     0.016 A 
HETATM    5  C   UNL     1      41.892 -14.461   4.813  1.00  0.00     0.130 A 
ENDROOT
BRANCH   4   6
HETATM    6  C   UNL     1      40.714 -15.936   3.073  1.00  0.00     0.277 C 
BRANCH   6   7
HETATM    7  N   UNL     1      40.247 -14.763   2.181  1.00  0.00    -0.067 N 
HETATM    8  H   UNL     1      40.309 -13.943   2.809  1.00  0.00     0.280 HD
HETATM    9  C   UNL     1      41.182 -14.520   1.027  1.00  0.00     0.237 C 
HETATM   10  C   UNL     1      40.661 -13.409   0.141  1.00  0.00     0.061 C 
HETATM   11  C   UNL     1      39.250 -13.653  -0.390  1.00  0.00     0.191 C 
HETATM   12  C   UNL     1      38.303 -13.947   0.778  1.00  0.00     0.061 C 
HETATM   13  C   UNL     1      38.804 -14.966   1.801  1.00  0.00     0.237 C 
BRANCH  11  14
HETATM   14  N   UNL     1      39.143 -14.645  -1.571  1.00  0.00    -0.064 N 
HETATM   15  H   UNL     1      38.846 -15.528  -1.121  1.00  0.00     0.280 HD
HETATM   16  C   UNL     1      37.977 -14.326  -2.516  1.00  0.00     0.266 C 
HETATM   17  C   UNL     1      37.715 -15.437  -3.544  1.00  0.00     0.144 C 
HETATM   18  C   UNL     1      38.991 -15.808  -4.287  1.00  0.00     0.035 C 
HETATM   19  C   UNL     1      40.099 -16.165  -3.312  1.00  0.00     0.030 C 
HETATM   20  C   UNL     1      40.388 -15.028  -2.340  1.00  0.00     0.235 C 
BRANCH  17  21
HETATM   21  O   UNL     1      36.764 -14.945  -4.475  1.00  0.00    -0.394 OA
HETATM   22  H   UNL     1      36.045 -14.490  -3.994  1.00  0.00     0.210 HD
ENDBRANCH  17  21
ENDBRANCH  11  14
ENDBRANCH   6   7
ENDBRANCH   4   6
BRANCH   3  23
HETATM   23  C   UNL     1      43.442 -17.579   3.744  1.00  0.00    -0.005 A 
HETATM   24  C   UNL     1      43.871 -18.630   4.566  1.00  0.00     0.017 A 
HETATM   25  C   UNL     1      44.312 -19.828   4.001  1.00  0.00     0.043 A 
HETATM   26  C   UNL     1      44.330 -19.969   2.618  1.00  0.00     0.116 A 
HETATM   27  F   UNL     1      44.746 -21.120   2.076  1.00  0.00    -0.206 F 
HETATM   28  C   UNL     1      43.932 -18.928   1.787  1.00  0.00     0.043 A 
HETATM   29  C   UNL     1      43.493 -17.727   2.348  1.00  0.00     0.017 A 
ENDBRANCH   3  23
BRANCH   1  30
HETATM   30  C   UNL     1      43.499 -13.697   6.595  1.00  0.00     0.058 A 
HETATM   31  C   UNL     1      44.731 -13.948   7.211  1.00  0.00     0.032 A 
HETATM   32  C   UNL     1      45.213 -13.091   8.206  1.00  0.00     0.009 A 
HETATM   33  C   UNL     1      44.467 -11.978   8.606  1.00  0.00    -0.062 A 
HETATM   34  C   UNL     1      44.984 -11.041   9.660  1.00  0.00     0.048 C 
HETATM   35  C   UNL     1      43.240 -11.722   7.984  1.00  0.00     0.009 A 
HETATM   36  C   UNL     1      42.754 -12.573   6.985  1.00  0.00     0.032 A 
ENDBRANCH   1  30
TORSDOF 6
ENDMDL
MODEL 2
REMARK VINA RESULT:      -9.6      3.598      7.894
REMARK  6 active torsions:
REMARK  status: ('A' for Active; 'I' for Inactive)
REMARK    1  A    between atoms: C_5  and  N_6 
REMARK    2  A    between atoms: C_8  and  C_9 
REMARK    3  A    between atoms: C_16  and  C_17 
REMARK    4  A    between atoms: C_17  and  N_18 
REMARK    5  A    between atoms: C_22  and  N_23 
REMARK    6  A    between atoms: C_26  and  O_27 
ROOT
HETATM    1  N   UNL     1      42.186 -17.554   2.041  1.00  0.00    -0.244 N 
HETATM    2  N   UNL     1      42.293 -17.110   0.770  1.00  0.00    -0.167 NA
HETATM    3  C   UNL     1      41.503 -16.040   0.672  1.00  0.00     0.097 A 
HETATM    4  C   UNL     1      40.748 -15.854   1.862  1.00  0.00     0.016 A 
HETATM    5  C   UNL     1      41.250 -16.806   2.731  1.00  0.00     0.130 A 
ENDROOT
BRANCH   4   6
HETATM    6  C   UNL     1      39.679 -14.866   2.135  1.00  0.00     0.277 C 
BRANCH   6   7
HETATM    7  N   UNL     1      40.027 -13.822   3.220  1.00  0.00    -0.067 N 
HETATM    8  H   UNL     1      39.417 -13.020   2.987  1.00  0.00     0.280 HD
HETATM    9  C   UNL     1      39.650 -14.291   4.600  1.00  0.00     0.237 C 
HETATM   10  C   UNL     1      40.063 -13.273   5.641  1.00  0.00     0.061 C 
HETATM   11  C   UNL     1      41.551 -12.925   5.610  1.00  0.00     0.191 C 
HETATM   12  C   UNL     1      41.949 -12.492   4.196  1.00  0.00     0.061 C 
HETATM   13  C   UNL     1      41.462 -13.394   3.062  1.00  0.00     0.237 C 
BRANCH  11  14
HETATM   14  N   UNL     1      42.494 -13.967   6.254  1.00  0.00    -0.064 N 
HETATM   15  H   UNL     1      42.445 -13.748   7.264  1.00  0.00     0.280 HD
HETATM   16  C   UNL     1      41.942 -15.397   6.180  1.00  0.00     0.266 C 
HETATM   17  C   UNL     1      42.747 -16.395   7.025  1.00  0.00     0.144 C 
HETATM   18  C   UNL     1      44.233 -16.319   6.698  1.00  0.00     0.035 C 
HETATM   19  C   UNL     1      44.742 -14.895   6.835  1.00  0.00     0.030 C 
HETATM   20  C   UNL     1      43.973 -13.929   5.943  1.00  0.00     0.235 C 
BRANCH  17  21
HETATM   21  O   UNL     1      42.274 -17.698   6.719  1.00  0.00    -0.394 OA
HETATM   22  H   UNL     1      42.652 -18.337   7.354  1.00  0.00     0.210 HD
ENDBRANCH  17  21
ENDBRANCH  11  14
ENDBRANCH   6   7
ENDBRANCH   4   6
BRANCH   3  23
HETATM   23  C   UNL     1      41.459 -15.260  -0.560  1.00  0.00    -0.005 A 
HETATM   24  C   UNL     1      41.829 -13.908  -0.551  1.00  0.00     0.017 A 
HETATM   25  C   UNL     1      41.796 -13.163  -1.732  1.00  0.00     0.043 A 
HETATM   26  C   UNL     1      41.387 -13.769  -2.914  1.00  0.00     0.116 A 
HETATM   27  F   UNL     1      41.363 -13.058  -4.047  1.00  0.00    -0.206 F 
HETATM   28  C   UNL     1      40.993 -15.102  -2.937  1.00  0.00     0.043 A 
HETATM   29  C   UNL     1      41.022 -15.849  -1.757  1.00  0.00     0.017 A 
ENDBRANCH   3  23
BRANCH   1  30
HETATM   30  C   UNL     1      42.923 -18.676   2.505  1.00  0.00     0.058 A 
HETATM   31  C   UNL     1      43.578 -18.605   3.741  1.00  0.00     0.032 A 
HETATM   32  C   UNL     1      44.320 -19.694   4.211  1.00  0.00     0.009 A 
HETATM   33  C   UNL     1      44.424 -20.863   3.452  1.00  0.00    -0.062 A 
HETATM   34  C   UNL     1      45.201 -22.045   3.957  1.00  0.00     0.048 C 
HETATM   35  C   UNL     1      43.760 -20.936   2.223  1.00  0.00     0.009 A 
HETATM   36  C   UNL     1      43.014 -19.852   1.747  1.00  0.00     0.032 A 
ENDBRANCH   1  30
TORSDOF 6
ENDMDL
MODEL 3
REMARK VINA RESULT:      -9.4      2.828      5.595
REMARK  6 active torsions:
REMARK  status: ('A' for Active; 'I' for Inactive)
REMARK    1  A    between atoms: C_5  and  N_6 
REMARK    2  A    between atoms: C_8  and  C_9 
REMARK    3  A    between atoms: C_16  and  C_17 
REMARK    4  A    between atoms: C_17  and  N_18 
REMARK    5  A    between atoms: C_22  and  N_23 
REMARK    6  A    between atoms: C_26  and  O_27 
ROOT
HETATM    1  N   UNL     1      43.066 -16.657   4.069  1.00  0.00    -0.244 N 
HETATM    2  N   UNL     1      42.509 -15.909   5.046  1.00  0.00    -0.167 NA
HETATM    3  C   UNL     1      42.112 -14.770   4.474  1.00  0.00     0.097 A 
HETATM    4  C   UNL     1      42.543 -14.704   3.121  1.00  0.00     0.016 A 
HETATM    5  C   UNL     1      43.100 -15.947   2.884  1.00  0.00     0.130 A 
ENDROOT
BRANCH   4   6
HETATM    6  C   UNL     1      42.420 -13.579   2.165  1.00  0.00     0.277 C 
BRANCH   6   7
HETATM    7  N   UNL     1      40.977 -13.291   1.692  1.00  0.00    -0.067 N 
HETATM    8  H   UNL     1      40.626 -12.610   2.388  1.00  0.00     0.280 HD
HETATM    9  C   UNL     1      40.945 -12.618   0.346  1.00  0.00     0.237 C 
HETATM   10  C   UNL     1      39.519 -12.409  -0.114  1.00  0.00     0.061 C 
HETATM   11  C   UNL     1      38.692 -13.693  -0.167  1.00  0.00     0.191 C 
HETATM   12  C   UNL     1      38.759 -14.405   1.188  1.00  0.00     0.061 C 
HETATM   13  C   UNL     1      40.154 -14.548   1.796  1.00  0.00     0.237 C 
BRANCH  11  14
HETATM   14  N   UNL     1      38.952 -14.604  -1.388  1.00  0.00    -0.064 N 
HETATM   15  H   UNL     1      38.675 -15.544  -1.054  1.00  0.00     0.280 HD
HETATM   16  C   UNL     1      37.980 -14.344  -2.546  1.00  0.00     0.266 C 
HETATM   17  C   UNL     1      38.072 -15.401  -3.657  1.00  0.00     0.144 C 
HETATM   18  C   UNL     1      39.510 -15.581  -4.124  1.00  0.00     0.035 C 
HETATM   19  C   UNL     1      40.424 -15.887  -2.951  1.00  0.00     0.030 C 
HETATM   20  C   UNL     1      40.367 -14.798  -1.887  1.00  0.00     0.235 C 
BRANCH  17  21
HETATM   21  O   UNL     1      37.286 -14.947  -4.748  1.00  0.00    -0.394 OA
HETATM   22  H   UNL     1      36.360 -14.836  -4.455  1.00  0.00     0.210 HD
ENDBRANCH  17  21
ENDBRANCH  11  14
ENDBRANCH   6   7
ENDBRANCH   4   6
BRANCH   3  23
HETATM   23  C   UNL     1      41.381 -13.769   5.243  1.00  0.00    -0.005 A 
HETATM   24  C   UNL     1      42.056 -12.665   5.782  1.00  0.00     0.017 A 
HETATM   25  C   UNL     1      41.355 -11.701   6.510  1.00  0.00     0.043 A 
HETATM   26  C   UNL     1      39.986 -11.848   6.703  1.00  0.00     0.116 A 
HETATM   27  F   UNL     1      39.313 -10.920   7.393  1.00  0.00    -0.206 F 
HETATM   28  C   UNL     1      39.305 -12.949   6.196  1.00  0.00     0.043 A 
HETATM   29  C   UNL     1      40.003 -13.917   5.470  1.00  0.00     0.017 A 
ENDBRANCH   3  23
BRANCH   1  30
HETATM   30  C   UNL     1      43.575 -17.959   4.324  1.00  0.00     0.058 A 
HETATM   31  C   UNL     1      43.900 -18.793   3.247  1.00  0.00     0.032 A 
HETATM   32  C   UNL     1      44.391 -20.083   3.475  1.00  0.00     0.009 A 
HETATM   33  C   UNL     1      44.556 -20.560   4.779  1.00  0.00    -0.062 A 
HETATM   34  C   UNL     1      45.101 -21.936   5.036  1.00  0.00     0.048 C 
HETATM   35  C   UNL     1      44.240 -19.721   5.854  1.00  0.00     0.009 A 
HETATM   36  C   UNL     1      43.751 -18.429   5.634  1.00  0.00     0.032 A 
ENDBRANCH   1  30
TORSDOF 6
ENDMDL
MODEL 4
REMARK VINA RESULT:      -9.1      4.184      8.467
REMARK  6 active torsions:
REMARK  status: ('A' for Active; 'I' for Inactive)
REMARK    1  A    between atoms: C_5  and  N_6 
REMARK    2  A    between atoms: C_8  and  C_9 
REMARK    3  A    between atoms: C_16  and  C_17 
REMARK    4  A    between atoms: C_17  and  N_18 
REMARK    5  A    between atoms: C_22  and  N_23 
REMARK    6  A    between atoms: C_26  and  O_27 
ROOT
HETATM    1  N   UNL     1      43.019 -17.031   3.758  1.00  0.00    -0.244 N 
HETATM    2  N   UNL     1      41.983 -16.882   2.903  1.00  0.00    -0.167 NA
HETATM    3  C   UNL     1      41.768 -15.570   2.790  1.00  0.00     0.097 A 
HETATM    4  C   UNL     1      42.586 -14.841   3.697  1.00  0.00     0.016 A 
HETATM    5  C   UNL     1      43.407 -15.803   4.258  1.00  0.00     0.130 A 
ENDROOT
BRANCH   4   6
HETATM    6  C   UNL     1      42.584 -13.387   3.981  1.00  0.00     0.277 C 
BRANCH   6   7
HETATM    7  N   UNL     1      41.216 -12.818   4.420  1.00  0.00    -0.067 N 
HETATM    8  H   UNL     1      40.578 -13.109   3.659  1.00  0.00     0.280 HD
HETATM    9  C   UNL     1      40.720 -13.450   5.692  1.00  0.00     0.237 C 
HETATM   10  C   UNL     1      39.412 -12.825   6.126  1.00  0.00     0.061 C 
HETATM   11  C   UNL     1      39.480 -11.309   6.304  1.00  0.00     0.191 C 
HETATM   12  C   UNL     1      40.029 -10.664   5.027  1.00  0.00     0.061 C 
HETATM   13  C   UNL     1      41.282 -11.313   4.439  1.00  0.00     0.237 C 
BRANCH  11  14
HETATM   14  N   UNL     1      40.148 -10.820   7.610  1.00  0.00    -0.064 N 
HETATM   15  H   UNL     1      39.765  -9.867   7.737  1.00  0.00     0.280 HD
HETATM   16  C   UNL     1      39.645 -11.566   8.853  1.00  0.00     0.266 C 
HETATM   17  C   UNL     1      40.115 -10.927  10.168  1.00  0.00     0.144 C 
HETATM   18  C   UNL     1      41.625 -10.727  10.172  1.00  0.00     0.035 C 
HETATM   19  C   UNL     1      42.067  -9.940   8.950  1.00  0.00     0.030 C 
HETATM   20  C   UNL     1      41.646 -10.620   7.654  1.00  0.00     0.235 C 
BRANCH  17  21
HETATM   21  O   UNL     1      39.764 -11.809  11.224  1.00  0.00    -0.394 OA
HETATM   22  H   UNL     1      40.316 -12.613  11.170  1.00  0.00     0.210 HD
ENDBRANCH  17  21
ENDBRANCH  11  14
ENDBRANCH   6   7
ENDBRANCH   4   6
BRANCH   3  23
HETATM   23  C   UNL     1      40.767 -15.059   1.862  1.00  0.00    -0.005 A 
HETATM   24  C   UNL     1      39.420 -14.988   2.247  1.00  0.00     0.017 A 
HETATM   25  C   UNL     1      38.462 -14.490   1.362  1.00  0.00     0.043 A 
HETATM   26  C   UNL     1      38.850 -14.072   0.094  1.00  0.00     0.116 A 
HETATM   27  F   UNL     1      37.933 -13.587  -0.751  1.00  0.00    -0.206 F 
HETATM   28  C   UNL     1      40.176 -14.157  -0.313  1.00  0.00     0.043 A 
HETATM   29  C   UNL     1      41.138 -14.658   0.568  1.00  0.00     0.017 A 
ENDBRANCH   3  23
BRANCH   1  30
HETATM   30  C   UNL     1      43.535 -18.312   4.087  1.00  0.00     0.058 A 
HETATM   31  C   UNL     1      43.616 -18.696   5.432  1.00  0.00     0.032 A 
HETATM   32  C   UNL     1      44.133 -19.949   5.780  1.00  0.00     0.009 A 
HETATM   33  C   UNL     1      44.584 -20.830   4.793  1.00  0.00    -0.062 A 
HETATM   34  C   UNL     1      45.123 -22.185   5.154  1.00  0.00     0.048 C 
HETATM   35  C   UNL     1      44.494 -20.449   3.449  1.00  0.00     0.009 A 
HETATM   36  C   UNL     1      43.975 -19.199   3.093  1.00  0.00     0.032 A 
ENDBRANCH   1  30
TORSDOF 6
ENDMDL
MODEL 5
REMARK VINA RESULT:      -9.0      3.447      8.618
REMARK  6 active torsions:
REMARK  status: ('A' for Active; 'I' for Inactive)
REMARK    1  A    between atoms: C_5  and  N_6 
REMARK    2  A    between atoms: C_8  and  C_9 
REMARK    3  A    between atoms: C_16  and  C_17 
REMARK    4  A    between atoms: C_17  and  N_18 
REMARK    5  A    between atoms: C_22  and  N_23 
REMARK    6  A    between atoms: C_26  and  O_27 
ROOT
HETATM    1  N   UNL     1      40.535 -14.525  -0.249  1.00  0.00    -0.244 N 
HETATM    2  N   UNL     1      41.054 -15.768  -0.153  1.00  0.00    -0.167 NA
HETATM    3  C   UNL     1      41.902 -15.748   0.877  1.00  0.00     0.097 A 
HETATM    4  C   UNL     1      42.054 -14.429   1.386  1.00  0.00     0.016 A 
HETATM    5  C   UNL     1      41.126 -13.687   0.677  1.00  0.00     0.130 A 
ENDROOT
BRANCH   4   6
HETATM    6  C   UNL     1      42.975 -13.944   2.439  1.00  0.00     0.277 C 
BRANCH   6   7
HETATM    7  N   UNL     1      42.441 -14.094   3.881  1.00  0.00    -0.067 N 
HETATM    8  H   UNL     1      41.838 -13.262   4.003  1.00  0.00     0.280 HD
HETATM    9  C   UNL     1      41.568 -15.311   4.040  1.00  0.00     0.237 C 
HETATM   10  C   UNL     1      41.115 -15.461   5.476  1.00  0.00     0.061 C 
HETATM   11  C   UNL     1      42.263 -15.524   6.482  1.00  0.00     0.191 C 
HETATM   12  C   UNL     1      43.181 -14.312   6.294  1.00  0.00     0.061 C 
HETATM   13  C   UNL     1      43.587 -14.002   4.853  1.00  0.00     0.237 C 
BRANCH  11  14
HETATM   14  N   UNL     1      42.999 -16.881   6.571  1.00  0.00    -0.064 N 
HETATM   15  H   UNL     1      43.937 -16.675   6.186  1.00  0.00     0.280 HD
HETATM   16  C   UNL     1      43.300 -17.304   8.015  1.00  0.00     0.266 C 
HETATM   17  C   UNL     1      44.237 -18.517   8.103  1.00  0.00     0.144 C 
HETATM   18  C   UNL     1      43.727 -19.668   7.246  1.00  0.00     0.035 C 
HETATM   19  C   UNL     1      43.494 -19.213   5.816  1.00  0.00     0.030 C 
HETATM   20  C   UNL     1      42.513 -18.050   5.743  1.00  0.00     0.235 C 
BRANCH  17  21
HETATM   21  O   UNL     1      44.276 -18.933   9.459  1.00  0.00    -0.394 OA
HETATM   22  H   UNL     1      44.836 -19.730   9.538  1.00  0.00     0.210 HD
ENDBRANCH  17  21
ENDBRANCH  11  14
ENDBRANCH   6   7
ENDBRANCH   4   6
BRANCH   3  23
HETATM   23  C   UNL     1      42.570 -16.970   1.312  1.00  0.00    -0.005 A 
HETATM   24  C   UNL     1      43.970 -17.028   1.358  1.00  0.00     0.017 A 
HETATM   25  C   UNL     1      44.611 -18.194   1.783  1.00  0.00     0.043 A 
HETATM   26  C   UNL     1      43.851 -19.298   2.153  1.00  0.00     0.116 A 
HETATM   27  F   UNL     1      44.465 -20.412   2.568  1.00  0.00    -0.206 F 
HETATM   28  C   UNL     1      42.463 -19.266   2.090  1.00  0.00     0.043 A 
HETATM   29  C   UNL     1      41.819 -18.103   1.662  1.00  0.00     0.017 A 
ENDBRANCH   3  23
BRANCH   1  30
HETATM   30  C   UNL     1      39.564 -14.195  -1.232  1.00  0.00     0.058 A 
HETATM   31  C   UNL     1      39.676 -14.738  -2.518  1.00  0.00     0.032 A 
HETATM   32  C   UNL     1      38.739 -14.417  -3.506  1.00  0.00     0.009 A 
HETATM   33  C   UNL     1      37.683 -13.544  -3.226  1.00  0.00    -0.062 A 
HETATM   34  C   UNL     1      36.660 -13.208  -4.272  1.00  0.00     0.048 C 
HETATM   35  C   UNL     1      37.567 -13.010  -1.938  1.00  0.00     0.009 A 
HETATM   36  C   UNL     1      38.499 -13.329  -0.944  1.00  0.00     0.032 A 
ENDBRANCH   1  30
TORSDOF 6
ENDMDL
MODEL 6
REMARK VINA RESULT:      -8.9      3.156      6.189
REMARK  6 active torsions:
REMARK  status: ('A' for Active; 'I' for Inactive)
REMARK    1  A    between atoms: C_5  and  N_6 
REMARK    2  A    between atoms: C_8  and  C_9 
REMARK    3  A    between atoms: C_16  and  C_17 
REMARK    4  A    between atoms: C_17  and  N_18 
REMARK    5  A    between atoms: C_22  and  N_23 
REMARK    6  A    between atoms: C_26  and  O_27 
ROOT
HETATM    1  N   UNL     1      42.757 -17.211   2.620  1.00  0.00    -0.244 N 
HETATM    2  N   UNL     1      42.464 -16.438   3.688  1.00  0.00    -0.167 NA
HETATM    3  C   UNL     1      41.957 -15.301   3.208  1.00  0.00     0.097 A 
HETATM    4  C   UNL     1      42.047 -15.263   1.790  1.00  0.00     0.016 A 
HETATM    5  C   UNL     1      42.514 -16.519   1.448  1.00  0.00     0.130 A 
ENDROOT
BRANCH   4   6
HETATM    6  C   UNL     1      41.713 -14.150   0.871  1.00  0.00     0.277 C 
BRANCH   6   7
HETATM    7  N   UNL     1      41.911 -14.471  -0.628  1.00  0.00    -0.067 N 
HETATM    8  H   UNL     1      42.803 -14.995  -0.647  1.00  0.00     0.280 HD
HETATM    9  C   UNL     1      40.839 -15.384  -1.159  1.00  0.00     0.237 C 
HETATM   10  C   UNL     1      41.027 -15.625  -2.641  1.00  0.00     0.061 C 
HETATM   11  C   UNL     1      41.065 -14.346  -3.476  1.00  0.00     0.191 C 
HETATM   12  C   UNL     1      42.124 -13.393  -2.910  1.00  0.00     0.061 C 
HETATM   13  C   UNL     1      42.093 -13.188  -1.395  1.00  0.00     0.237 C 
BRANCH  11  14
HETATM   14  N   UNL     1      39.693 -13.691  -3.756  1.00  0.00    -0.064 N 
HETATM   15  H   UNL     1      39.757 -13.408  -4.750  1.00  0.00     0.280 HD
HETATM   16  C   UNL     1      38.538 -14.700  -3.753  1.00  0.00     0.266 C 
HETATM   17  C   UNL     1      37.219 -14.106  -4.268  1.00  0.00     0.144 C 
HETATM   18  C   UNL     1      36.876 -12.816  -3.535  1.00  0.00     0.035 C 
HETATM   19  C   UNL     1      38.028 -11.830  -3.610  1.00  0.00     0.030 C 
HETATM   20  C   UNL     1      39.313 -12.415  -3.038  1.00  0.00     0.235 C 
BRANCH  17  21
HETATM   21  O   UNL     1      36.195 -15.059  -4.029  1.00  0.00    -0.394 OA
HETATM   22  H   UNL     1      36.445 -15.618  -3.267  1.00  0.00     0.210 HD
ENDBRANCH  17  21
ENDBRANCH  11  14
ENDBRANCH   6   7
ENDBRANCH   4   6
BRANCH   3  23
HETATM   23  C   UNL     1      41.448 -14.276   4.112  1.00  0.00    -0.005 A 
HETATM   24  C   UNL     1      42.188 -13.106   4.338  1.00  0.00     0.017 A 
HETATM   25  C   UNL     1      41.697 -12.120   5.196  1.00  0.00     0.043 A 
HETATM   26  C   UNL     1      40.474 -12.308   5.829  1.00  0.00     0.116 A 
HETATM   27  F   UNL     1      39.999 -11.359   6.645  1.00  0.00    -0.206 F 
HETATM   28  C   UNL     1      39.738 -13.471   5.636  1.00  0.00     0.043 A 
HETATM   29  C   UNL     1      40.228 -14.462   4.781  1.00  0.00     0.017 A 
ENDBRANCH   3  23
BRANCH   1  30
HETATM   30  C   UNL     1      43.294 -18.517   2.769  1.00  0.00     0.058 A 
HETATM   31  C   UNL     1      43.095 -19.462   1.754  1.00  0.00     0.032 A 
HETATM   32  C   UNL     1      43.605 -20.758   1.885  1.00  0.00     0.009 A 
HETATM   33  C   UNL     1      44.312 -21.130   3.032  1.00  0.00    -0.062 A 
HETATM   34  C   UNL     1      44.880 -22.513   3.175  1.00  0.00     0.048 C 
HETATM   35  C   UNL     1      44.519 -20.183   4.041  1.00  0.00     0.009 A 
HETATM   36  C   UNL     1      44.015 -18.883   3.916  1.00  0.00     0.032 A 
ENDBRANCH   1  30
TORSDOF 6
ENDMDL
MODEL 7
REMARK VINA RESULT:      -8.7      3.869      9.221
REMARK  6 active torsions:
REMARK  status: ('A' for Active; 'I' for Inactive)
REMARK    1  A    between atoms: C_5  and  N_6 
REMARK    2  A    between atoms: C_8  and  C_9 
REMARK    3  A    between atoms: C_16  and  C_17 
REMARK    4  A    between atoms: C_17  and  N_18 
REMARK    5  A    between atoms: C_22  and  N_23 
REMARK    6  A    between atoms: C_26  and  O_27 
ROOT
HETATM    1  N   UNL     1      40.607 -14.910   2.240  1.00  0.00    -0.244 N 
HETATM    2  N   UNL     1      41.710 -15.552   2.683  1.00  0.00    -0.167 NA
HETATM    3  C   UNL     1      41.633 -15.567   4.015  1.00  0.00     0.097 A 
HETATM    4  C   UNL     1      40.529 -14.795   4.469  1.00  0.00     0.016 A 
HETATM    5  C   UNL     1      39.868 -14.437   3.307  1.00  0.00     0.130 A 
ENDROOT
BRANCH   4   6
HETATM    6  C   UNL     1      40.148 -14.454   5.859  1.00  0.00     0.277 C 
BRANCH   6   7
HETATM    7  N   UNL     1      40.200 -12.945   6.188  1.00  0.00    -0.067 N 
HETATM    8  H   UNL     1      39.727 -12.504   5.380  1.00  0.00     0.280 HD
HETATM    9  C   UNL     1      39.402 -12.604   7.418  1.00  0.00     0.237 C 
HETATM   10  C   UNL     1      39.527 -11.133   7.747  1.00  0.00     0.061 C 
HETATM   11  C   UNL     1      40.969 -10.660   7.930  1.00  0.00     0.191 C 
HETATM   12  C   UNL     1      41.797 -11.046   6.699  1.00  0.00     0.061 C 
HETATM   13  C   UNL     1      41.634 -12.486   6.212  1.00  0.00     0.237 C 
BRANCH  11  14
HETATM   14  N   UNL     1      41.623 -11.020   9.284  1.00  0.00    -0.064 N 
HETATM   15  H   UNL     1      41.461 -12.038   9.370  1.00  0.00     0.280 HD
HETATM   16  C   UNL     1      43.153 -10.909   9.256  1.00  0.00     0.266 C 
HETATM   17  C   UNL     1      43.820 -11.494  10.510  1.00  0.00     0.144 C 
HETATM   18  C   UNL     1      43.210 -10.912  11.778  1.00  0.00     0.035 C 
HETATM   19  C   UNL     1      41.702 -11.091  11.783  1.00  0.00     0.030 C 
HETATM   20  C   UNL     1      41.051 -10.451  10.564  1.00  0.00     0.235 C 
BRANCH  17  21
HETATM   21  O   UNL     1      45.197 -11.155  10.462  1.00  0.00    -0.394 OA
HETATM   22  H   UNL     1      45.733 -11.969  10.530  1.00  0.00     0.210 HD
ENDBRANCH  17  21
ENDBRANCH  11  14
ENDBRANCH   6   7
ENDBRANCH   4   6
BRANCH   3  23
HETATM   23  C   UNL     1      42.632 -16.273   4.808  1.00  0.00    -0.005 A 
HETATM   24  C   UNL     1      43.374 -15.586   5.780  1.00  0.00     0.017 A 
HETATM   25  C   UNL     1      44.324 -16.264   6.547  1.00  0.00     0.043 A 
HETATM   26  C   UNL     1      44.535 -17.621   6.335  1.00  0.00     0.116 A 
HETATM   27  F   UNL     1      45.440 -18.272   7.075  1.00  0.00    -0.206 F 
HETATM   28  C   UNL     1      43.827 -18.313   5.359  1.00  0.00     0.043 A 
HETATM   29  C   UNL     1      42.878 -17.638   4.588  1.00  0.00     0.017 A 
ENDBRANCH   3  23
BRANCH   1  30
HETATM   30  C   UNL     1      40.351 -14.737   0.853  1.00  0.00     0.058 A 
HETATM   31  C   UNL     1      41.232 -15.289  -0.084  1.00  0.00     0.032 A 
HETATM   32  C   UNL     1      41.006 -15.121  -1.454  1.00  0.00     0.009 A 
HETATM   33  C   UNL     1      39.902 -14.392  -1.906  1.00  0.00    -0.062 A 
HETATM   34  C   UNL     1      39.638 -14.221  -3.375  1.00  0.00     0.048 C 
HETATM   35  C   UNL     1      39.016 -13.848  -0.969  1.00  0.00     0.009 A 
HETATM   36  C   UNL     1      39.235 -14.016   0.403  1.00  0.00     0.032 A 
ENDBRANCH   1  30
TORSDOF 6
ENDMDL
MODEL 8
REMARK VINA RESULT:      -8.6      3.907      6.605
REMARK  6 active torsions:
REMARK  status: ('A' for Active; 'I' for Inactive)
REMARK    1  A    between atoms: C_5  and  N_6 
REMARK    2  A    between atoms: C_8  and  C_9 
REMARK    3  A    between atoms: C_16  and  C_17 
REMARK    4  A    between atoms: C_17  and  N_18 
REMARK    5  A    between atoms: C_22  and  N_23 
REMARK    6  A    between atoms: C_26  and  O_27 
ROOT
HETATM    1  N   UNL     1      41.459 -16.829   3.084  1.00  0.00    -0.244 N 
HETATM    2  N   UNL     1      41.534 -15.744   3.886  1.00  0.00    -0.167 NA
HETATM    3  C   UNL     1      40.542 -14.931   3.520  1.00  0.00     0.097 A 
HETATM    4  C   UNL     1      39.884 -15.421   2.360  1.00  0.00     0.016 A 
HETATM    5  C   UNL     1      40.462 -16.659   2.143  1.00  0.00     0.130 A 
ENDROOT
BRANCH   4   6
HETATM    6  C   UNL     1      38.815 -14.778   1.560  1.00  0.00     0.277 C 
BRANCH   6   7
HETATM    7  N   UNL     1      39.108 -14.691   0.045  1.00  0.00    -0.067 N 
HETATM    8  H   UNL     1      38.759 -15.594  -0.320  1.00  0.00     0.280 HD
HETATM    9  C   UNL     1      38.319 -13.598  -0.623  1.00  0.00     0.237 C 
HETATM   10  C   UNL     1      38.677 -13.500  -2.090  1.00  0.00     0.061 C 
HETATM   11  C   UNL     1      40.167 -13.283  -2.350  1.00  0.00     0.191 C 
HETATM   12  C   UNL     1      40.978 -14.367  -1.632  1.00  0.00     0.061 C 
HETATM   13  C   UNL     1      40.596 -14.628  -0.175  1.00  0.00     0.237 C 
BRANCH  11  14
HETATM   14  N   UNL     1      40.680 -11.841  -2.127  1.00  0.00    -0.064 N 
HETATM   15  H   UNL     1      40.132 -11.510  -1.315  1.00  0.00     0.280 HD
HETATM   16  C   UNL     1      42.126 -11.795  -1.614  1.00  0.00     0.266 C 
HETATM   17  C   UNL     1      42.557 -10.392  -1.161  1.00  0.00     0.144 C 
HETATM   18  C   UNL     1      42.283  -9.357  -2.244  1.00  0.00     0.035 C 
HETATM   19  C   UNL     1      40.830  -9.407  -2.682  1.00  0.00     0.030 C 
HETATM   20  C   UNL     1      40.436 -10.789  -3.186  1.00  0.00     0.235 C 
BRANCH  17  21
HETATM   21  O   UNL     1      43.953 -10.434  -0.905  1.00  0.00    -0.394 OA
HETATM   22  H   UNL     1      44.251  -9.556  -0.595  1.00  0.00     0.210 HD
ENDBRANCH  17  21
ENDBRANCH  11  14
ENDBRANCH   6   7
ENDBRANCH   4   6
BRANCH   3  23
HETATM   23  C   UNL     1      40.283 -13.698   4.256  1.00  0.00    -0.005 A 
HETATM   24  C   UNL     1      39.630 -13.742   5.496  1.00  0.00     0.017 A 
HETATM   25  C   UNL     1      39.391 -12.563   6.205  1.00  0.00     0.043 A 
HETATM   26  C   UNL     1      39.798 -11.346   5.671  1.00  0.00     0.116 A 
HETATM   27  F   UNL     1      39.576 -10.217   6.354  1.00  0.00    -0.206 F 
HETATM   28  C   UNL     1      40.425 -11.281   4.432  1.00  0.00     0.043 A 
HETATM   29  C   UNL     1      40.663 -12.458   3.718  1.00  0.00     0.017 A 
ENDBRANCH   3  23
BRANCH   1  30
HETATM   30  C   UNL     1      42.358 -17.920   3.219  1.00  0.00     0.058 A 
HETATM   31  C   UNL     1      42.917 -18.201   4.472  1.00  0.00     0.032 A 
HETATM   32  C   UNL     1      43.813 -19.263   4.625  1.00  0.00     0.009 A 
HETATM   33  C   UNL     1      44.171 -20.054   3.529  1.00  0.00    -0.062 A 
HETATM   34  C   UNL     1      45.118 -21.209   3.685  1.00  0.00     0.048 C 
HETATM   35  C   UNL     1      43.604 -19.779   2.279  1.00  0.00     0.009 A 
HETATM   36  C   UNL     1      42.704 -18.720   2.119  1.00  0.00     0.032 A 
ENDBRANCH   1  30
TORSDOF 6
ENDMDL
MODEL 9
REMARK VINA RESULT:      -8.5      3.235      6.354
REMARK  6 active torsions:
REMARK  status: ('A' for Active; 'I' for Inactive)
REMARK    1  A    between atoms: C_5  and  N_6 
REMARK    2  A    between atoms: C_8  and  C_9 
REMARK    3  A    between atoms: C_16  and  C_17 
REMARK    4  A    between atoms: C_17  and  N_18 
REMARK    5  A    between atoms: C_22  and  N_23 
REMARK    6  A    between atoms: C_26  and  O_27 
ROOT
HETATM    1  N   UNL     1      42.798 -17.302   2.826  1.00  0.00    -0.244 N 
HETATM    2  N   UNL     1      42.498 -16.575   3.924  1.00  0.00    -0.167 NA
HETATM    3  C   UNL     1      42.019 -15.408   3.490  1.00  0.00     0.097 A 
HETATM    4  C   UNL     1      42.135 -15.306   2.077  1.00  0.00     0.016 A 
HETATM    5  C   UNL     1      42.586 -16.553   1.684  1.00  0.00     0.130 A 
ENDROOT
BRANCH   4   6
HETATM    6  C   UNL     1      41.835 -14.146   1.205  1.00  0.00     0.277 C 
BRANCH   6   7
HETATM    7  N   UNL     1      40.751 -14.408   0.135  1.00  0.00    -0.067 N 
HETATM    8  H   UNL     1      40.289 -15.273   0.466  1.00  0.00     0.280 HD
HETATM    9  C   UNL     1      39.709 -13.322   0.105  1.00  0.00     0.237 C 
HETATM   10  C   UNL     1      38.701 -13.578  -0.995  1.00  0.00     0.061 C 
HETATM   11  C   UNL     1      39.324 -13.724  -2.382  1.00  0.00     0.191 C 
HETATM   12  C   UNL     1      40.418 -14.796  -2.346  1.00  0.00     0.061 C 
HETATM   13  C   UNL     1      41.411 -14.694  -1.188  1.00  0.00     0.237 C 
BRANCH  11  14
HETATM   14  N   UNL     1      39.740 -12.402  -3.069  1.00  0.00    -0.064 N 
HETATM   15  H   UNL     1      39.983 -11.782  -2.277  1.00  0.00     0.280 HD
HETATM   16  C   UNL     1      41.062 -12.520  -3.839  1.00  0.00     0.266 C 
HETATM   17  C   UNL     1      41.603 -11.164  -4.315  1.00  0.00     0.144 C 
HETATM   18  C   UNL     1      40.540 -10.389  -5.084  1.00  0.00     0.035 C 
HETATM   19  C   UNL     1      39.271 -10.255  -4.262  1.00  0.00     0.030 C 
HETATM   20  C   UNL     1      38.714 -11.612  -3.851  1.00  0.00     0.235 C 
BRANCH  17  21
HETATM   21  O   UNL     1      42.702 -11.417  -5.176  1.00  0.00    -0.394 OA
HETATM   22  H   UNL     1      42.382 -11.491  -6.097  1.00  0.00     0.210 HD
ENDBRANCH  17  21
ENDBRANCH  11  14
ENDBRANCH   6   7
ENDBRANCH   4   6
BRANCH   3  23
HETATM   23  C   UNL     1      41.511 -14.417   4.432  1.00  0.00    -0.005 A 
HETATM   24  C   UNL     1      42.362 -13.423   4.934  1.00  0.00     0.017 A 
HETATM   25  C   UNL     1      41.875 -12.468   5.829  1.00  0.00     0.043 A 
HETATM   26  C   UNL     1      40.543 -12.514   6.223  1.00  0.00     0.116 A 
HETATM   27  F   UNL     1      40.073 -11.595   7.074  1.00  0.00    -0.206 F 
HETATM   28  C   UNL     1      39.691 -13.507   5.755  1.00  0.00     0.043 A 
HETATM   29  C   UNL     1      40.176 -14.466   4.862  1.00  0.00     0.017 A 
ENDBRANCH   3  23
BRANCH   1  30
HETATM   30  C   UNL     1      43.310 -18.623   2.922  1.00  0.00     0.058 A 
HETATM   31  C   UNL     1      44.003 -19.010   4.076  1.00  0.00     0.032 A 
HETATM   32  C   UNL     1      44.526 -20.302   4.188  1.00  0.00     0.009 A 
HETATM   33  C   UNL     1      44.374 -21.222   3.146  1.00  0.00    -0.062 A 
HETATM   34  C   UNL     1      44.915 -22.618   3.263  1.00  0.00     0.048 C 
HETATM   35  C   UNL     1      43.673 -20.838   1.997  1.00  0.00     0.009 A 
HETATM   36  C   UNL     1      43.143 -19.548   1.880  1.00  0.00     0.032 A 
ENDBRANCH   1  30
TORSDOF 6
ENDMDL
MODEL 10
REMARK VINA RESULT:      -8.4      4.008      8.825
REMARK  6 active torsions:
REMARK  status: ('A' for Active; 'I' for Inactive)
REMARK    1  A    between atoms: C_5  and  N_6 
REMARK    2  A    between atoms: C_8  and  C_9 
REMARK    3  A    between atoms: C_16  and  C_17 
REMARK    4  A    between atoms: C_17  and  N_18 
REMARK    5  A    between atoms: C_22  and  N_23 
REMARK    6  A    between atoms: C_26  and  O_27 
ROOT
HETATM    1  N   UNL     1      40.733 -14.669   2.711  1.00  0.00    -0.244 N 
HETATM    2  N   UNL     1      40.601 -13.442   3.259  1.00  0.00    -0.167 NA
HETATM    3  C   UNL     1      40.645 -13.608   4.582  1.00  0.00     0.097 A 
HETATM    4  C   UNL     1      40.663 -14.988   4.920  1.00  0.00     0.016 A 
HETATM    5  C   UNL     1      40.772 -15.633   3.701  1.00  0.00     0.130 A 
ENDROOT
BRANCH   4   6
HETATM    6  C   UNL     1      40.595 -15.613   6.262  1.00  0.00     0.277 C 
BRANCH   6   7
HETATM    7  N   UNL     1      41.951 -16.113   6.809  1.00  0.00    -0.067 N 
HETATM    8  H   UNL     1      42.003 -15.687   7.751  1.00  0.00     0.280 HD
HETATM    9  C   UNL     1      41.975 -17.608   6.986  1.00  0.00     0.237 C 
HETATM   10  C   UNL     1      43.336 -18.068   7.462  1.00  0.00     0.061 C 
HETATM   11  C   UNL     1      44.486 -17.645   6.548  1.00  0.00     0.191 C 
HETATM   12  C   UNL     1      44.438 -16.130   6.326  1.00  0.00     0.061 C 
HETATM   13  C   UNL     1      43.068 -15.553   5.968  1.00  0.00     0.237 C 
BRANCH  11  14
HETATM   14  N   UNL     1      44.653 -18.480   5.257  1.00  0.00    -0.064 N 
HETATM   15  H   UNL     1      45.641 -18.323   4.992  1.00  0.00     0.280 HD
HETATM   16  C   UNL     1      44.597 -19.992   5.512  1.00  0.00     0.266 C 
HETATM   17  C   UNL     1      45.004 -20.823   4.287  1.00  0.00     0.144 C 
HETATM   18  C   UNL     1      44.215 -20.404   3.053  1.00  0.00     0.035 C 
HETATM   19  C   UNL     1      44.344 -18.910   2.813  1.00  0.00     0.030 C 
HETATM   20  C   UNL     1      43.877 -18.100   4.016  1.00  0.00     0.235 C 
BRANCH  17  21
HETATM   21  O   UNL     1      44.719 -22.183   4.576  1.00  0.00    -0.394 OA
HETATM   22  H   UNL     1      44.901 -22.727   3.785  1.00  0.00     0.210 HD
ENDBRANCH  17  21
ENDBRANCH  11  14
ENDBRANCH   6   7
ENDBRANCH   4   6
BRANCH   3  23
HETATM   23  C   UNL     1      40.622 -12.456   5.476  1.00  0.00    -0.005 A 
HETATM   24  C   UNL     1      39.432 -11.740   5.671  1.00  0.00     0.017 A 
HETATM   25  C   UNL     1      39.406 -10.643   6.534  1.00  0.00     0.043 A 
HETATM   26  C   UNL     1      40.570 -10.260   7.192  1.00  0.00     0.116 A 
HETATM   27  F   UNL     1      40.544  -9.213   8.025  1.00  0.00    -0.206 F 
HETATM   28  C   UNL     1      41.764 -10.943   6.991  1.00  0.00     0.043 A 
HETATM   29  C   UNL     1      41.794 -12.039   6.126  1.00  0.00     0.017 A 
ENDBRANCH   3  23
BRANCH   1  30
HETATM   30  C   UNL     1      40.757 -14.860   1.304  1.00  0.00     0.058 A 
HETATM   31  C   UNL     1      41.358 -16.010   0.776  1.00  0.00     0.032 A 
HETATM   32  C   UNL     1      41.404 -16.213  -0.607  1.00  0.00     0.009 A 
HETATM   33  C   UNL     1      40.860 -15.268  -1.481  1.00  0.00    -0.062 A 
HETATM   34  C   UNL     1      40.887 -15.484  -2.967  1.00  0.00     0.048 C 
HETATM   35  C   UNL     1      40.251 -14.124  -0.953  1.00  0.00     0.009 A 
HETATM   36  C   UNL     1      40.198 -13.916   0.430  1.00  0.00     0.032 A 
ENDBRANCH   1  30
TORSDOF 6
ENDMDL
