MODEL 1
REMARK VINA RESULT:      -9.5      0.000      0.000
REMARK  4 active torsions:
REMARK  status: ('A' for Active; 'I' for Inactive)
REMARK    1  A    between atoms: C_8  and  C_9 
REMARK    2  A    between atoms: C_9  and  C_10 
REMARK       I    between atoms: C_10  and  N_11 
REMARK    3  A    between atoms: N_11  and  C_12 
REMARK    4  A    between atoms: C_14  and  C_15 
ROOT
HETATM    1  C   UNL     1      42.368 -17.457   1.157  1.00  0.00     0.226 C 
HETATM    2  N   UNL     1      42.653 -16.259   0.506  1.00  0.00    -0.327 N 
HETATM    3  O   UNL     1      41.261 -17.826   1.534  1.00  0.00    -0.273 OA
HETATM    4  H   UNL     1      43.630 -16.019   0.406  1.00  0.00     0.169 HD
ENDROOT
BRANCH   1   5
HETATM    5  C   UNL     1      43.633 -18.256   1.413  1.00  0.00     0.144 C 
BRANCH   5   6
HETATM    6  C   UNL     1      43.863 -18.811   2.791  1.00  0.00    -0.021 A 
HETATM    7  C   UNL     1      44.162 -20.147   3.276  1.00  0.00     0.005 A 
HETATM    8  C   UNL     1      44.284 -21.456   2.717  1.00  0.00    -0.049 A 
HETATM    9  C   UNL     1      44.396 -20.019   4.655  1.00  0.00     0.043 A 
HETATM   10  C   UNL     1      44.067 -21.810   1.272  1.00  0.00     0.049 C 
HETATM   11  C   UNL     1      44.594 -22.535   3.582  1.00  0.00     0.007 A 
HETATM   12  C   UNL     1      44.824 -22.353   4.938  1.00  0.00     0.003 A 
HETATM   13  C   UNL     1      44.734 -21.086   5.497  1.00  0.00     0.030 A 
HETATM   14  N   UNL     1      44.240 -18.699   4.992  1.00  0.00    -0.365 N 
HETATM   15  H   UNL     1      44.360 -18.330   5.925  1.00  0.00     0.165 HD
HETATM   16  C   UNL     1      43.926 -17.967   3.890  1.00  0.00     0.097 A 
ENDBRANCH   5   6
ENDBRANCH   1   5
BRANCH   2  17
HETATM   17  C   UNL     1      41.751 -15.348  -0.079  1.00  0.00     0.035 A 
HETATM   18  C   UNL     1      40.926 -15.648  -1.165  1.00  0.00     0.042 A 
HETATM   19  C   UNL     1      40.108 -14.662  -1.748  1.00  0.00    -0.021 A 
HETATM   20  C   UNL     1      40.122 -13.368  -1.205  1.00  0.00     0.012 A 
HETATM   21  C   UNL     1      40.935 -13.064  -0.115  1.00  0.00     0.003 A 
HETATM   22  C   UNL     1      41.748 -14.049   0.441  1.00  0.00     0.029 A 
BRANCH  19  23
HETATM   23  C   UNL     1      39.280 -14.951  -2.910  1.00  0.00     0.010 A 
HETATM   24  C   UNL     1      39.333 -16.021  -3.842  1.00  0.00     0.152 A 
HETATM   25  N   UNL     1      38.386 -15.943  -4.782  1.00  0.00    -0.187 NA
HETATM   26  N   UNL     1      37.718 -14.826  -4.457  1.00  0.00    -0.289 N 
HETATM   27  H   UNL     1      36.932 -14.549  -5.035  1.00  0.00     0.188 HD
HETATM   28  C   UNL     1      38.213 -14.198  -3.351  1.00  0.00     0.123 A 
ENDBRANCH  19  23
ENDBRANCH   2  17
TORSDOF 4
ENDMDL
MODEL 2
REMARK VINA RESULT:      -9.0      1.962      2.605
REMARK  4 active torsions:
REMARK  status: ('A' for Active; 'I' for Inactive)
REMARK    1  A    between atoms: C_8  and  C_9 
REMARK    2  A    between atoms: C_9  and  C_10 
REMARK       I    between atoms: C_10  and  N_11 
REMARK    3  A    between atoms: N_11  and  C_12 
REMARK    4  A    between atoms: C_14  and  C_15 
ROOT
HETATM    1  C   UNL     1      42.170 -16.923   4.129  1.00  0.00     0.226 C 
HETATM    2  N   UNL     1      42.378 -15.818   3.306  1.00  0.00    -0.327 N 
HETATM    3  O   UNL     1      41.104 -17.506   4.296  1.00  0.00    -0.273 OA
HETATM    4  H   UNL     1      43.267 -15.346   3.398  1.00  0.00     0.169 HD
ENDROOT
BRANCH   1   5
HETATM    5  C   UNL     1      43.440 -17.301   4.870  1.00  0.00     0.144 C 
BRANCH   5   6
HETATM    6  C   UNL     1      43.773 -18.758   5.021  1.00  0.00    -0.021 A 
HETATM    7  C   UNL     1      43.995 -19.822   4.057  1.00  0.00     0.005 A 
HETATM    8  C   UNL     1      43.922 -19.975   2.638  1.00  0.00    -0.049 A 
HETATM    9  C   UNL     1      44.399 -20.944   4.798  1.00  0.00     0.043 A 
HETATM   10  C   UNL     1      43.505 -18.906   1.667  1.00  0.00     0.049 C 
HETATM   11  C   UNL     1      44.224 -21.241   2.078  1.00  0.00     0.007 A 
HETATM   12  C   UNL     1      44.627 -22.317   2.856  1.00  0.00     0.003 A 
HETATM   13  C   UNL     1      44.727 -22.183   4.233  1.00  0.00     0.030 A 
HETATM   14  N   UNL     1      44.413 -20.595   6.125  1.00  0.00    -0.365 N 
HETATM   15  H   UNL     1      44.676 -21.217   6.876  1.00  0.00     0.165 HD
HETATM   16  C   UNL     1      44.046 -19.295   6.272  1.00  0.00     0.097 A 
ENDBRANCH   5   6
ENDBRANCH   1   5
BRANCH   2  17
HETATM   17  C   UNL     1      41.520 -15.292   2.320  1.00  0.00     0.035 A 
HETATM   18  C   UNL     1      41.792 -15.314   0.950  1.00  0.00     0.042 A 
HETATM   19  C   UNL     1      40.927 -14.696   0.029  1.00  0.00    -0.021 A 
HETATM   20  C   UNL     1      39.768 -14.069   0.510  1.00  0.00     0.012 A 
HETATM   21  C   UNL     1      39.484 -14.051   1.874  1.00  0.00     0.003 A 
HETATM   22  C   UNL     1      40.359 -14.656   2.774  1.00  0.00     0.029 A 
BRANCH  19  23
HETATM   23  C   UNL     1      41.225 -14.672  -1.397  1.00  0.00     0.010 A 
HETATM   24  C   UNL     1      40.895 -15.591  -2.428  1.00  0.00     0.152 A 
HETATM   25  N   UNL     1      41.348 -15.214  -3.627  1.00  0.00    -0.187 NA
HETATM   26  N   UNL     1      41.965 -14.050  -3.375  1.00  0.00    -0.289 N 
HETATM   27  H   UNL     1      42.397 -13.556  -4.148  1.00  0.00     0.188 HD
HETATM   28  C   UNL     1      41.922 -13.685  -2.060  1.00  0.00     0.123 A 
ENDBRANCH  19  23
ENDBRANCH   2  17
TORSDOF 4
ENDMDL
MODEL 3
REMARK VINA RESULT:      -8.7      2.166      2.838
REMARK  4 active torsions:
REMARK  status: ('A' for Active; 'I' for Inactive)
REMARK    1  A    between atoms: C_8  and  C_9 
REMARK    2  A    between atoms: C_9  and  C_10 
REMARK       I    between atoms: C_10  and  N_11 
REMARK    3  A    between atoms: N_11  and  C_12 
REMARK    4  A    between atoms: C_14  and  C_15 
ROOT
HETATM    1  C   UNL     1      42.265 -17.521   1.049  1.00  0.00     0.226 C 
HETATM    2  N   UNL     1      42.441 -16.353   0.309  1.00  0.00    -0.327 N 
HETATM    3  O   UNL     1      41.198 -17.946   1.479  1.00  0.00    -0.273 OA
HETATM    4  H   UNL     1      43.394 -16.046   0.168  1.00  0.00     0.169 HD
ENDROOT
BRANCH   1   5
HETATM    5  C   UNL     1      43.593 -18.200   1.326  1.00  0.00     0.144 C 
BRANCH   5   6
HETATM    6  C   UNL     1      43.840 -18.756   2.700  1.00  0.00    -0.021 A 
HETATM    7  C   UNL     1      44.140 -20.094   3.181  1.00  0.00     0.005 A 
HETATM    8  C   UNL     1      44.248 -21.404   2.620  1.00  0.00    -0.049 A 
HETATM    9  C   UNL     1      44.394 -19.967   4.556  1.00  0.00     0.043 A 
HETATM   10  C   UNL     1      44.008 -21.757   1.179  1.00  0.00     0.049 C 
HETATM   11  C   UNL     1      44.565 -22.483   3.481  1.00  0.00     0.007 A 
HETATM   12  C   UNL     1      44.815 -22.303   4.834  1.00  0.00     0.003 A 
HETATM   13  C   UNL     1      44.739 -21.036   5.393  1.00  0.00     0.030 A 
HETATM   14  N   UNL     1      44.249 -18.646   4.895  1.00  0.00    -0.365 N 
HETATM   15  H   UNL     1      44.384 -18.278   5.827  1.00  0.00     0.165 HD
HETATM   16  C   UNL     1      43.923 -17.913   3.799  1.00  0.00     0.097 A 
ENDBRANCH   5   6
ENDBRANCH   1   5
BRANCH   2  17
HETATM   17  C   UNL     1      41.459 -15.557  -0.313  1.00  0.00     0.035 A 
HETATM   18  C   UNL     1      40.620 -14.671   0.367  1.00  0.00     0.042 A 
HETATM   19  C   UNL     1      39.606 -13.969  -0.311  1.00  0.00    -0.021 A 
HETATM   20  C   UNL     1      39.463 -14.160  -1.693  1.00  0.00     0.012 A 
HETATM   21  C   UNL     1      40.302 -15.035  -2.380  1.00  0.00     0.003 A 
HETATM   22  C   UNL     1      41.292 -15.732  -1.691  1.00  0.00     0.029 A 
BRANCH  19  23
HETATM   23  C   UNL     1      38.695 -13.079   0.397  1.00  0.00     0.010 A 
HETATM   24  C   UNL     1      38.887 -11.765   0.898  1.00  0.00     0.152 A 
HETATM   25  N   UNL     1      37.798 -11.268   1.492  1.00  0.00    -0.187 NA
HETATM   26  N   UNL     1      36.900 -12.257   1.370  1.00  0.00    -0.289 N 
HETATM   27  H   UNL     1      35.970 -12.114   1.751  1.00  0.00     0.188 HD
HETATM   28  C   UNL     1      37.386 -13.359   0.727  1.00  0.00     0.123 A 
ENDBRANCH  19  23
ENDBRANCH   2  17
TORSDOF 4
ENDMDL
MODEL 4
REMARK VINA RESULT:      -8.5      2.757      3.825
REMARK  4 active torsions:
REMARK  status: ('A' for Active; 'I' for Inactive)
REMARK    1  A    between atoms: C_8  and  C_9 
REMARK    2  A    between atoms: C_9  and  C_10 
REMARK       I    between atoms: C_10  and  N_11 
REMARK    3  A    between atoms: N_11  and  C_12 
REMARK    4  A    between atoms: C_14  and  C_15 
ROOT
HETATM    1  C   UNL     1      41.739 -16.716   0.730  1.00  0.00     0.226 C 
HETATM    2  N   UNL     1      40.840 -16.066  -0.113  1.00  0.00    -0.327 N 
HETATM    3  O   UNL     1      42.947 -16.822   0.549  1.00  0.00    -0.273 OA
HETATM    4  H   UNL     1      39.857 -16.203   0.080  1.00  0.00     0.169 HD
ENDROOT
BRANCH   1   5
HETATM    5  C   UNL     1      41.024 -17.355   1.906  1.00  0.00     0.144 C 
BRANCH   5   6
HETATM    6  C   UNL     1      41.731 -17.407   3.231  1.00  0.00    -0.021 A 
HETATM    7  C   UNL     1      42.815 -18.232   3.735  1.00  0.00     0.005 A 
HETATM    8  C   UNL     1      43.590 -19.337   3.266  1.00  0.00    -0.049 A 
HETATM    9  C   UNL     1      43.131 -17.728   5.008  1.00  0.00     0.043 A 
HETATM   10  C   UNL     1      43.410 -20.028   1.944  1.00  0.00     0.049 C 
HETATM   11  C   UNL     1      44.590 -19.871   4.117  1.00  0.00     0.007 A 
HETATM   12  C   UNL     1      44.867 -19.330   5.364  1.00  0.00     0.003 A 
HETATM   13  C   UNL     1      44.143 -18.242   5.828  1.00  0.00     0.030 A 
HETATM   14  N   UNL     1      42.289 -16.676   5.269  1.00  0.00    -0.365 N 
HETATM   15  H   UNL     1      42.308 -16.127   6.117  1.00  0.00     0.165 HD
HETATM   16  C   UNL     1      41.453 -16.472   4.217  1.00  0.00     0.097 A 
ENDBRANCH   5   6
ENDBRANCH   1   5
BRANCH   2  17
HETATM   17  C   UNL     1      41.122 -15.195  -1.184  1.00  0.00     0.035 A 
HETATM   18  C   UNL     1      41.700 -13.932  -1.039  1.00  0.00     0.042 A 
HETATM   19  C   UNL     1      41.877 -13.084  -2.148  1.00  0.00    -0.021 A 
HETATM   20  C   UNL     1      41.479 -13.538  -3.414  1.00  0.00     0.012 A 
HETATM   21  C   UNL     1      40.911 -14.802  -3.569  1.00  0.00     0.003 A 
HETATM   22  C   UNL     1      40.730 -15.623  -2.458  1.00  0.00     0.029 A 
BRANCH  19  23
HETATM   23  C   UNL     1      42.435 -11.747  -2.000  1.00  0.00     0.010 A 
HETATM   24  C   UNL     1      42.986 -11.093  -0.867  1.00  0.00     0.152 A 
HETATM   25  N   UNL     1      43.404  -9.852  -1.132  1.00  0.00    -0.187 NA
HETATM   26  N   UNL     1      43.129  -9.703  -2.437  1.00  0.00    -0.289 N 
HETATM   27  H   UNL     1      43.363  -8.822  -2.882  1.00  0.00     0.188 HD
HETATM   28  C   UNL     1      42.548 -10.803  -2.999  1.00  0.00     0.123 A 
ENDBRANCH  19  23
ENDBRANCH   2  17
TORSDOF 4
ENDMDL
MODEL 5
REMARK VINA RESULT:      -8.4      3.202      8.919
REMARK  4 active torsions:
REMARK  status: ('A' for Active; 'I' for Inactive)
REMARK    1  A    between atoms: C_8  and  C_9 
REMARK    2  A    between atoms: C_9  and  C_10 
REMARK       I    between atoms: C_10  and  N_11 
REMARK    3  A    between atoms: N_11  and  C_12 
REMARK    4  A    between atoms: C_14  and  C_15 
ROOT
HETATM    1  C   UNL     1      42.276 -15.042   4.186  1.00  0.00     0.226 C 
HETATM    2  N   UNL     1      42.166 -16.254   4.864  1.00  0.00    -0.327 N 
HETATM    3  O   UNL     1      43.299 -14.592   3.679  1.00  0.00    -0.273 OA
HETATM    4  H   UNL     1      41.304 -16.413   5.369  1.00  0.00     0.169 HD
ENDROOT
BRANCH   1   5
HETATM    5  C   UNL     1      40.961 -14.285   4.196  1.00  0.00     0.144 C 
BRANCH   5   6
HETATM    6  C   UNL     1      40.025 -14.461   3.033  1.00  0.00    -0.021 A 
HETATM    7  C   UNL     1      39.132 -13.547   2.343  1.00  0.00     0.005 A 
HETATM    8  C   UNL     1      38.707 -12.190   2.493  1.00  0.00    -0.049 A 
HETATM    9  C   UNL     1      38.612 -14.259   1.249  1.00  0.00     0.043 A 
HETATM   10  C   UNL     1      39.134 -11.261   3.595  1.00  0.00     0.049 C 
HETATM   11  C   UNL     1      37.774 -11.667   1.564  1.00  0.00     0.007 A 
HETATM   12  C   UNL     1      37.296 -12.412   0.496  1.00  0.00     0.003 A 
HETATM   13  C   UNL     1      37.714 -13.723   0.317  1.00  0.00     0.030 A 
HETATM   14  N   UNL     1      39.141 -15.524   1.276  1.00  0.00    -0.365 N 
HETATM   15  H   UNL     1      38.938 -16.242   0.594  1.00  0.00     0.165 HD
HETATM   16  C   UNL     1      39.988 -15.657   2.331  1.00  0.00     0.097 A 
ENDBRANCH   5   6
ENDBRANCH   1   5
BRANCH   2  17
HETATM   17  C   UNL     1      43.088 -17.318   4.906  1.00  0.00     0.035 A 
HETATM   18  C   UNL     1      43.148 -18.342   3.958  1.00  0.00     0.042 A 
HETATM   19  C   UNL     1      44.043 -19.417   4.108  1.00  0.00    -0.021 A 
HETATM   20  C   UNL     1      44.892 -19.435   5.224  1.00  0.00     0.012 A 
HETATM   21  C   UNL     1      44.845 -18.412   6.170  1.00  0.00     0.003 A 
HETATM   22  C   UNL     1      43.944 -17.362   6.012  1.00  0.00     0.029 A 
BRANCH  19  23
HETATM   23  C   UNL     1      44.081 -20.514   3.151  1.00  0.00     0.010 A 
HETATM   24  C   UNL     1      44.658 -21.808   3.246  1.00  0.00     0.152 A 
HETATM   25  N   UNL     1      44.478 -22.543   2.145  1.00  0.00    -0.187 NA
HETATM   26  N   UNL     1      43.781 -21.728   1.339  1.00  0.00    -0.289 N 
HETATM   27  H   UNL     1      43.514 -22.070   0.422  1.00  0.00     0.188 HD
HETATM   28  C   UNL     1      43.521 -20.507   1.891  1.00  0.00     0.123 A 
ENDBRANCH  19  23
ENDBRANCH   2  17
TORSDOF 4
ENDMDL
MODEL 6
REMARK VINA RESULT:      -8.3      2.108      2.669
REMARK  4 active torsions:
REMARK  status: ('A' for Active; 'I' for Inactive)
REMARK    1  A    between atoms: C_8  and  C_9 
REMARK    2  A    between atoms: C_9  and  C_10 
REMARK       I    between atoms: C_10  and  N_11 
REMARK    3  A    between atoms: N_11  and  C_12 
REMARK    4  A    between atoms: C_14  and  C_15 
ROOT
HETATM    1  C   UNL     1      41.465 -15.866   3.782  1.00  0.00     0.226 C 
HETATM    2  N   UNL     1      40.269 -15.744   3.077  1.00  0.00    -0.327 N 
HETATM    3  O   UNL     1      42.519 -15.300   3.513  1.00  0.00    -0.273 OA
HETATM    4  H   UNL     1      39.534 -16.395   3.317  1.00  0.00     0.169 HD
ENDROOT
BRANCH   1   5
HETATM    5  C   UNL     1      41.330 -16.857   4.923  1.00  0.00     0.144 C 
BRANCH   5   6
HETATM    6  C   UNL     1      42.396 -17.903   5.092  1.00  0.00    -0.021 A 
HETATM    7  C   UNL     1      43.111 -18.741   4.145  1.00  0.00     0.005 A 
HETATM    8  C   UNL     1      43.073 -18.992   2.739  1.00  0.00    -0.049 A 
HETATM    9  C   UNL     1      44.082 -19.431   4.889  1.00  0.00     0.043 A 
HETATM   10  C   UNL     1      42.109 -18.368   1.768  1.00  0.00     0.049 C 
HETATM   11  C   UNL     1      43.980 -19.935   2.196  1.00  0.00     0.007 A 
HETATM   12  C   UNL     1      44.927 -20.585   2.974  1.00  0.00     0.003 A 
HETATM   13  C   UNL     1      44.997 -20.337   4.337  1.00  0.00     0.030 A 
HETATM   14  N   UNL     1      43.962 -19.051   6.201  1.00  0.00    -0.365 N 
HETATM   15  H   UNL     1      44.548 -19.392   6.950  1.00  0.00     0.165 HD
HETATM   16  C   UNL     1      42.964 -18.138   6.336  1.00  0.00     0.097 A 
ENDBRANCH   5   6
ENDBRANCH   1   5
BRANCH   2  17
HETATM   17  C   UNL     1      39.929 -14.794   2.094  1.00  0.00     0.035 A 
HETATM   18  C   UNL     1      40.101 -14.988   0.721  1.00  0.00     0.042 A 
HETATM   19  C   UNL     1      39.814 -13.961  -0.198  1.00  0.00    -0.021 A 
HETATM   20  C   UNL     1      39.330 -12.738   0.289  1.00  0.00     0.012 A 
HETATM   21  C   UNL     1      39.146 -12.540   1.656  1.00  0.00     0.003 A 
HETATM   22  C   UNL     1      39.448 -13.562   2.553  1.00  0.00     0.029 A 
BRANCH  19  23
HETATM   23  C   UNL     1      40.035 -14.137  -1.626  1.00  0.00     0.010 A 
HETATM   24  C   UNL     1      40.831 -15.077  -2.332  1.00  0.00     0.152 A 
HETATM   25  N   UNL     1      40.772 -14.921  -3.657  1.00  0.00    -0.187 NA
HETATM   26  N   UNL     1      39.934 -13.885  -3.811  1.00  0.00    -0.289 N 
HETATM   27  H   UNL     1      39.723 -13.571  -4.753  1.00  0.00     0.188 HD
HETATM   28  C   UNL     1      39.469 -13.381  -2.631  1.00  0.00     0.123 A 
ENDBRANCH  19  23
ENDBRANCH   2  17
TORSDOF 4
ENDMDL
MODEL 7
REMARK VINA RESULT:      -8.3      2.711      8.748
REMARK  4 active torsions:
REMARK  status: ('A' for Active; 'I' for Inactive)
REMARK    1  A    between atoms: C_8  and  C_9 
REMARK    2  A    between atoms: C_9  and  C_10 
REMARK       I    between atoms: C_10  and  N_11 
REMARK    3  A    between atoms: N_11  and  C_12 
REMARK    4  A    between atoms: C_14  and  C_15 
ROOT
HETATM    1  C   UNL     1      40.793 -15.799   1.255  1.00  0.00     0.226 C 
HETATM    2  N   UNL     1      42.105 -16.268   1.247  1.00  0.00    -0.327 N 
HETATM    3  O   UNL     1      39.901 -16.172   2.010  1.00  0.00    -0.273 OA
HETATM    4  H   UNL     1      42.680 -15.990   0.463  1.00  0.00     0.169 HD
ENDROOT
BRANCH   1   5
HETATM    5  C   UNL     1      40.566 -14.785   0.149  1.00  0.00     0.144 C 
BRANCH   5   6
HETATM    6  C   UNL     1      41.289 -13.470   0.225  1.00  0.00    -0.021 A 
HETATM    7  C   UNL     1      41.847 -12.595  -0.792  1.00  0.00     0.005 A 
HETATM    8  C   UNL     1      42.020 -12.621  -2.210  1.00  0.00    -0.049 A 
HETATM    9  C   UNL     1      42.287 -11.444  -0.118  1.00  0.00     0.043 A 
HETATM   10  C   UNL     1      41.628 -13.756  -3.114  1.00  0.00     0.049 C 
HETATM   11  C   UNL     1      42.648 -11.515  -2.835  1.00  0.00     0.007 A 
HETATM   12  C   UNL     1      43.058 -10.397  -2.123  1.00  0.00     0.003 A 
HETATM   13  C   UNL     1      42.878 -10.341  -0.749  1.00  0.00     0.030 A 
HETATM   14  N   UNL     1      42.028 -11.609   1.219  1.00  0.00    -0.365 N 
HETATM   15  H   UNL     1      42.239 -10.922   1.930  1.00  0.00     0.165 HD
HETATM   16  C   UNL     1      41.430 -12.810   1.437  1.00  0.00     0.097 A 
ENDBRANCH   5   6
ENDBRANCH   1   5
BRANCH   2  17
HETATM   17  C   UNL     1      42.758 -17.052   2.218  1.00  0.00     0.035 A 
HETATM   18  C   UNL     1      43.151 -18.378   2.023  1.00  0.00     0.042 A 
HETATM   19  C   UNL     1      43.726 -19.125   3.068  1.00  0.00    -0.021 A 
HETATM   20  C   UNL     1      43.916 -18.507   4.312  1.00  0.00     0.012 A 
HETATM   21  C   UNL     1      43.536 -17.181   4.513  1.00  0.00     0.003 A 
HETATM   22  C   UNL     1      42.955 -16.460   3.471  1.00  0.00     0.029 A 
BRANCH  19  23
HETATM   23  C   UNL     1      44.096 -20.523   2.888  1.00  0.00     0.010 A 
HETATM   24  C   UNL     1      44.062 -21.349   1.734  1.00  0.00     0.152 A 
HETATM   25  N   UNL     1      44.492 -22.592   1.969  1.00  0.00    -0.187 NA
HETATM   26  N   UNL     1      44.809 -22.570   3.273  1.00  0.00    -0.289 N 
HETATM   27  H   UNL     1      45.171 -23.418   3.696  1.00  0.00     0.188 HD
HETATM   28  C   UNL     1      44.589 -21.360   3.866  1.00  0.00     0.123 A 
ENDBRANCH  19  23
ENDBRANCH   2  17
TORSDOF 4
ENDMDL
MODEL 8
REMARK VINA RESULT:      -8.3      1.573      2.362
REMARK  4 active torsions:
REMARK  status: ('A' for Active; 'I' for Inactive)
REMARK    1  A    between atoms: C_8  and  C_9 
REMARK    2  A    between atoms: C_9  and  C_10 
REMARK       I    between atoms: C_10  and  N_11 
REMARK    3  A    between atoms: N_11  and  C_12 
REMARK    4  A    between atoms: C_14  and  C_15 
ROOT
HETATM    1  C   UNL     1      42.179 -16.054   3.363  1.00  0.00     0.226 C 
HETATM    2  N   UNL     1      42.766 -15.176   2.456  1.00  0.00    -0.327 N 
HETATM    3  O   UNL     1      40.990 -16.091   3.663  1.00  0.00    -0.273 OA
HETATM    4  H   UNL     1      43.777 -15.153   2.436  1.00  0.00     0.169 HD
ENDROOT
BRANCH   1   5
HETATM    5  C   UNL     1      43.218 -16.952   4.009  1.00  0.00     0.144 C 
BRANCH   5   6
HETATM    6  C   UNL     1      43.558 -18.253   3.336  1.00  0.00    -0.021 A 
HETATM    7  C   UNL     1      44.005 -19.536   3.848  1.00  0.00     0.005 A 
HETATM    8  C   UNL     1      44.377 -20.083   5.115  1.00  0.00    -0.049 A 
HETATM    9  C   UNL     1      44.032 -20.408   2.746  1.00  0.00     0.043 A 
HETATM   10  C   UNL     1      44.424 -19.322   6.410  1.00  0.00     0.049 C 
HETATM   11  C   UNL     1      44.777 -21.440   5.174  1.00  0.00     0.007 A 
HETATM   12  C   UNL     1      44.779 -22.262   4.056  1.00  0.00     0.003 A 
HETATM   13  C   UNL     1      44.398 -21.758   2.821  1.00  0.00     0.030 A 
HETATM   14  N   UNL     1      43.639 -19.703   1.637  1.00  0.00    -0.365 N 
HETATM   15  H   UNL     1      43.563 -20.096   0.709  1.00  0.00     0.165 HD
HETATM   16  C   UNL     1      43.350 -18.419   1.975  1.00  0.00     0.097 A 
ENDBRANCH   5   6
ENDBRANCH   1   5
BRANCH   2  17
HETATM   17  C   UNL     1      42.132 -14.335   1.519  1.00  0.00     0.035 A 
HETATM   18  C   UNL     1      41.630 -14.767   0.290  1.00  0.00     0.042 A 
HETATM   19  C   UNL     1      41.081 -13.855  -0.631  1.00  0.00    -0.021 A 
HETATM   20  C   UNL     1      41.029 -12.497  -0.283  1.00  0.00     0.012 A 
HETATM   21  C   UNL     1      41.518 -12.059   0.947  1.00  0.00     0.003 A 
HETATM   22  C   UNL     1      42.070 -12.974   1.840  1.00  0.00     0.029 A 
BRANCH  19  23
HETATM   23  C   UNL     1      40.599 -14.288  -1.935  1.00  0.00     0.010 A 
HETATM   24  C   UNL     1      40.909 -15.443  -2.700  1.00  0.00     0.152 A 
HETATM   25  N   UNL     1      40.250 -15.492  -3.861  1.00  0.00    -0.187 NA
HETATM   26  N   UNL     1      39.511 -14.373  -3.847  1.00  0.00    -0.289 N 
HETATM   27  H   UNL     1      38.907 -14.183  -4.640  1.00  0.00     0.188 HD
HETATM   28  C   UNL     1      39.685 -13.620  -2.721  1.00  0.00     0.123 A 
ENDBRANCH  19  23
ENDBRANCH   2  17
TORSDOF 4
ENDMDL
MODEL 9
REMARK VINA RESULT:      -8.1      2.686      3.689
REMARK  4 active torsions:
REMARK  status: ('A' for Active; 'I' for Inactive)
REMARK    1  A    between atoms: C_8  and  C_9 
REMARK    2  A    between atoms: C_9  and  C_10 
REMARK       I    between atoms: C_10  and  N_11 
REMARK    3  A    between atoms: N_11  and  C_12 
REMARK    4  A    between atoms: C_14  and  C_15 
ROOT
HETATM    1  C   UNL     1      42.384 -16.189   5.310  1.00  0.00     0.226 C 
HETATM    2  N   UNL     1      42.420 -15.021   4.551  1.00  0.00    -0.327 N 
HETATM    3  O   UNL     1      41.384 -16.686   5.817  1.00  0.00    -0.273 OA
HETATM    4  H   UNL     1      43.335 -14.646   4.340  1.00  0.00     0.169 HD
ENDROOT
BRANCH   1   5
HETATM    5  C   UNL     1      43.776 -16.763   5.498  1.00  0.00     0.144 C 
BRANCH   5   6
HETATM    6  C   UNL     1      43.990 -18.225   5.221  1.00  0.00    -0.021 A 
HETATM    7  C   UNL     1      43.972 -19.006   3.997  1.00  0.00     0.005 A 
HETATM    8  C   UNL     1      43.684 -18.775   2.616  1.00  0.00    -0.049 A 
HETATM    9  C   UNL     1      44.371 -20.304   4.355  1.00  0.00     0.043 A 
HETATM   10  C   UNL     1      43.234 -17.468   2.027  1.00  0.00     0.049 C 
HETATM   11  C   UNL     1      43.784 -19.863   1.714  1.00  0.00     0.007 A 
HETATM   12  C   UNL     1      44.191 -21.126   2.119  1.00  0.00     0.003 A 
HETATM   13  C   UNL     1      44.498 -21.366   3.450  1.00  0.00     0.030 A 
HETATM   14  N   UNL     1      44.606 -20.318   5.707  1.00  0.00    -0.365 N 
HETATM   15  H   UNL     1      44.915 -21.130   6.224  1.00  0.00     0.165 HD
HETATM   16  C   UNL     1      44.387 -19.085   6.234  1.00  0.00     0.097 A 
ENDBRANCH   5   6
ENDBRANCH   1   5
BRANCH   2  17
HETATM   17  C   UNL     1      41.339 -14.309   3.993  1.00  0.00     0.035 A 
HETATM   18  C   UNL     1      40.827 -14.535   2.713  1.00  0.00     0.042 A 
HETATM   19  C   UNL     1      39.798 -13.729   2.192  1.00  0.00    -0.021 A 
HETATM   20  C   UNL     1      39.278 -12.700   2.990  1.00  0.00     0.012 A 
HETATM   21  C   UNL     1      39.777 -12.475   4.272  1.00  0.00     0.003 A 
HETATM   22  C   UNL     1      40.806 -13.273   4.768  1.00  0.00     0.029 A 
BRANCH  19  23
HETATM   23  C   UNL     1      39.290 -13.926   0.841  1.00  0.00     0.010 A 
HETATM   24  C   UNL     1      37.982 -13.769   0.312  1.00  0.00     0.152 A 
HETATM   25  N   UNL     1      37.911 -14.042  -0.994  1.00  0.00    -0.187 NA
HETATM   26  N   UNL     1      39.172 -14.370  -1.312  1.00  0.00    -0.289 N 
HETATM   27  H   UNL     1      39.378 -14.621  -2.274  1.00  0.00     0.188 HD
HETATM   28  C   UNL     1      40.031 -14.319  -0.253  1.00  0.00     0.123 A 
ENDBRANCH  19  23
ENDBRANCH   2  17
TORSDOF 4
ENDMDL
MODEL 10
REMARK VINA RESULT:      -8.1      2.467      9.372
REMARK  4 active torsions:
REMARK  status: ('A' for Active; 'I' for Inactive)
REMARK    1  A    between atoms: C_8  and  C_9 
REMARK    2  A    between atoms: C_9  and  C_10 
REMARK       I    between atoms: C_10  and  N_11 
REMARK    3  A    between atoms: N_11  and  C_12 
REMARK    4  A    between atoms: C_14  and  C_15 
ROOT
HETATM    1  C   UNL     1      42.737 -16.963   1.246  1.00  0.00     0.226 C 
HETATM    2  N   UNL     1      42.245 -17.867   2.185  1.00  0.00    -0.327 N 
HETATM    3  O   UNL     1      43.826 -16.403   1.289  1.00  0.00    -0.273 OA
HETATM    4  H   UNL     1      41.269 -18.119   2.104  1.00  0.00     0.169 HD
ENDROOT
BRANCH   1   5
HETATM    5  C   UNL     1      41.714 -16.693   0.157  1.00  0.00     0.144 C 
BRANCH   5   6
HETATM    6  C   UNL     1      40.917 -15.421   0.224  1.00  0.00    -0.021 A 
HETATM    7  C   UNL     1      40.325 -14.577  -0.799  1.00  0.00     0.005 A 
HETATM    8  C   UNL     1      40.300 -14.530  -2.227  1.00  0.00    -0.049 A 
HETATM    9  C   UNL     1      39.590 -13.593  -0.117  1.00  0.00     0.043 A 
HETATM   10  C   UNL     1      41.023 -15.478  -3.142  1.00  0.00     0.049 C 
HETATM   11  C   UNL     1      39.576 -13.488  -2.857  1.00  0.00     0.007 A 
HETATM   12  C   UNL     1      38.859 -12.543  -2.136  1.00  0.00     0.003 A 
HETATM   13  C   UNL     1      38.850 -12.586  -0.749  1.00  0.00     0.030 A 
HETATM   14  N   UNL     1      39.732 -13.814   1.229  1.00  0.00    -0.365 N 
HETATM   15  H   UNL     1      39.298 -13.252   1.948  1.00  0.00     0.165 HD
HETATM   16  C   UNL     1      40.517 -14.901   1.447  1.00  0.00     0.097 A 
ENDBRANCH   5   6
ENDBRANCH   1   5
BRANCH   2  17
HETATM   17  C   UNL     1      42.946 -18.520   3.219  1.00  0.00     0.035 A 
HETATM   18  C   UNL     1      42.913 -18.127   4.559  1.00  0.00     0.042 A 
HETATM   19  C   UNL     1      43.704 -18.778   5.524  1.00  0.00    -0.021 A 
HETATM   20  C   UNL     1      44.517 -19.846   5.120  1.00  0.00     0.012 A 
HETATM   21  C   UNL     1      44.547 -20.251   3.786  1.00  0.00     0.003 A 
HETATM   22  C   UNL     1      43.769 -19.587   2.841  1.00  0.00     0.029 A 
BRANCH  19  23
HETATM   23  C   UNL     1      43.714 -18.346   6.915  1.00  0.00     0.010 A 
HETATM   24  C   UNL     1      43.395 -17.091   7.498  1.00  0.00     0.152 A 
HETATM   25  N   UNL     1      43.521 -17.086   8.828  1.00  0.00    -0.187 NA
HETATM   26  N   UNL     1      43.915 -18.337   9.108  1.00  0.00    -0.289 N 
HETATM   27  H   UNL     1      44.077 -18.586  10.078  1.00  0.00     0.188 HD
HETATM   28  C   UNL     1      44.047 -19.126   8.002  1.00  0.00     0.123 A 
ENDBRANCH  19  23
ENDBRANCH   2  17
TORSDOF 4
ENDMDL
