MODEL 1
REMARK VINA RESULT:      -9.4      0.000      0.000
REMARK  5 active torsions:
REMARK  status: ('A' for Active; 'I' for Inactive)
REMARK    1  A    between atoms: C_4  and  C_5 
REMARK    2  A    between atoms: C_5  and  C_6 
REMARK    3  A    between atoms: C_12  and  S_13 
REMARK    4  A    between atoms: S_13  and  C_14 
REMARK    5  A    between atoms: C_14  and  C_15 
ROOT
HETATM    1  C   UNL     1      42.167 -16.416   0.415  1.00  0.00     0.283 C 
HETATM    2  O   UNL     1      42.413 -15.124   0.942  1.00  0.00    -0.303 OA
HETATM    3  C   UNL     1      41.264 -14.602   1.474  1.00  0.00     0.201 A 
HETATM    4  C   UNL     1      40.276 -14.102   0.645  1.00  0.00     0.144 A 
HETATM    5  N   UNL     1      39.205 -13.517   1.215  1.00  0.00    -0.142 NA
HETATM    6  N   UNL     1      39.136 -13.454   2.580  1.00  0.00    -0.122 NA
HETATM    7  C   UNL     1      40.135 -13.969   3.332  1.00  0.00     0.212 A 
HETATM    8  N   UNL     1      41.235 -14.544   2.820  1.00  0.00    -0.195 NA
HETATM    9  C   UNL     1      40.343 -14.176  -0.813  1.00  0.00     0.020 A 
HETATM   10  C   UNL     1      40.921 -15.286  -1.468  1.00  0.00     0.023 A 
HETATM   11  N   UNL     1      41.350 -16.452  -0.820  1.00  0.00    -0.259 NA
HETATM   12  C   UNL     1      39.818 -13.125  -1.595  1.00  0.00     0.016 A 
HETATM   13  C   UNL     1      39.843 -13.171  -2.989  1.00  0.00     0.001 A 
HETATM   14  C   UNL     1      40.375 -14.283  -3.629  1.00  0.00     0.002 A 
HETATM   15  C   UNL     1      40.890 -15.334  -2.872  1.00  0.00     0.024 A 
HETATM   16  H   UNL     1      40.539 -17.060  -0.653  1.00  0.00     0.130 HD
ENDROOT
BRANCH   7  17
HETATM   17  S   UNL     1      40.029 -13.874   5.098  1.00  0.00    -0.084 SA
BRANCH  17  18
HETATM   18  C   UNL     1      41.797 -13.708   5.493  1.00  0.00     0.121 C 
BRANCH  18  19
HETATM   19  C   UNL     1      42.342 -14.974   6.112  1.00  0.00    -0.048 A 
HETATM   20  C   UNL     1      41.497 -16.068   6.352  1.00  0.00     0.009 A 
HETATM   21  C   UNL     1      41.998 -17.235   6.934  1.00  0.00     0.024 A 
HETATM   22  C   UNL     1      43.343 -17.312   7.285  1.00  0.00     0.034 A 
HETATM   23 CL   UNL     1      43.959 -18.749   8.004  1.00  0.00    -0.084 Cl
HETATM   24  C   UNL     1      44.194 -16.232   7.061  1.00  0.00     0.024 A 
HETATM   25  C   UNL     1      43.693 -15.065   6.478  1.00  0.00     0.009 A 
ENDBRANCH  18  19
ENDBRANCH  17  18
ENDBRANCH   7  17
BRANCH   1  26
HETATM   26  C   UNL     1      41.631 -17.471   1.424  1.00  0.00     0.203 C 
HETATM   27  O   UNL     1      40.419 -17.670   1.551  1.00  0.00    -0.288 OA
BRANCH  26  28
HETATM   28  C   UNL     1      42.604 -18.280   2.223  1.00  0.00     0.014 A 
HETATM   29  C   UNL     1      43.132 -17.844   3.445  1.00  0.00     0.015 A 
HETATM   30  C   UNL     1      44.057 -18.634   4.134  1.00  0.00     0.001 A 
HETATM   31  C   UNL     1      44.460 -19.860   3.610  1.00  0.00     0.000 A 
HETATM   32  C   UNL     1      43.937 -20.305   2.399  1.00  0.00     0.001 A 
HETATM   33  C   UNL     1      43.013 -19.519   1.707  1.00  0.00     0.015 A 
ENDBRANCH  26  28
ENDBRANCH   1  26
TORSDOF 5
ENDMDL
MODEL 2
REMARK VINA RESULT:      -9.1      3.120      6.645
REMARK  5 active torsions:
REMARK  status: ('A' for Active; 'I' for Inactive)
REMARK    1  A    between atoms: C_4  and  C_5 
REMARK    2  A    between atoms: C_5  and  C_6 
REMARK    3  A    between atoms: C_12  and  S_13 
REMARK    4  A    between atoms: S_13  and  C_14 
REMARK    5  A    between atoms: C_14  and  C_15 
ROOT
HETATM    1  C   UNL     1      42.324 -18.342   2.423  1.00  0.00     0.283 C 
HETATM    2  O   UNL     1      41.983 -18.492   3.790  1.00  0.00    -0.303 OA
HETATM    3  C   UNL     1      43.031 -18.112   4.586  1.00  0.00     0.201 A 
HETATM    4  C   UNL     1      44.125 -18.945   4.743  1.00  0.00     0.144 A 
HETATM    5  N   UNL     1      45.089 -18.569   5.604  1.00  0.00    -0.142 NA
HETATM    6  N   UNL     1      44.952 -17.385   6.274  1.00  0.00    -0.122 NA
HETATM    7  C   UNL     1      43.858 -16.615   6.069  1.00  0.00     0.212 A 
HETATM    8  N   UNL     1      42.857 -16.947   5.238  1.00  0.00    -0.195 NA
HETATM    9  C   UNL     1      44.279 -20.207   4.022  1.00  0.00     0.020 A 
HETATM   10  C   UNL     1      43.821 -20.356   2.693  1.00  0.00     0.023 A 
HETATM   11  N   UNL     1      43.318 -19.312   1.907  1.00  0.00    -0.259 NA
HETATM   12  C   UNL     1      44.900 -21.306   4.653  1.00  0.00     0.016 A 
HETATM   13  C   UNL     1      45.084 -22.519   3.989  1.00  0.00     0.001 A 
HETATM   14  C   UNL     1      44.671 -22.648   2.670  1.00  0.00     0.002 A 
HETATM   15  C   UNL     1      44.064 -21.570   2.028  1.00  0.00     0.024 A 
HETATM   16  H   UNL     1      44.103 -18.786   1.506  1.00  0.00     0.130 HD
ENDROOT
BRANCH   7  17
HETATM   17  S   UNL     1      43.697 -15.085   6.948  1.00  0.00    -0.084 SA
BRANCH  17  18
HETATM   18  C   UNL     1      43.965 -13.924   5.574  1.00  0.00     0.121 C 
BRANCH  18  19
HETATM   19  C   UNL     1      42.655 -13.427   5.012  1.00  0.00    -0.048 A 
HETATM   20  C   UNL     1      42.597 -12.879   3.721  1.00  0.00     0.009 A 
HETATM   21  C   UNL     1      41.387 -12.409   3.205  1.00  0.00     0.024 A 
HETATM   22  C   UNL     1      40.230 -12.478   3.978  1.00  0.00     0.034 A 
HETATM   23 CL   UNL     1      38.741 -11.897   3.341  1.00  0.00    -0.084 Cl
HETATM   24  C   UNL     1      40.272 -13.012   5.264  1.00  0.00     0.024 A 
HETATM   25  C   UNL     1      41.482 -13.483   5.780  1.00  0.00     0.009 A 
ENDBRANCH  18  19
ENDBRANCH  17  18
ENDBRANCH   7  17
BRANCH   1  26
HETATM   26  C   UNL     1      42.717 -16.906   1.976  1.00  0.00     0.203 C 
HETATM   27  O   UNL     1      43.895 -16.533   1.998  1.00  0.00    -0.288 OA
BRANCH  26  28
HETATM   28  C   UNL     1      41.655 -15.979   1.475  1.00  0.00     0.014 A 
HETATM   29  C   UNL     1      41.864 -15.088   0.414  1.00  0.00     0.015 A 
HETATM   30  C   UNL     1      40.840 -14.228   0.007  1.00  0.00     0.001 A 
HETATM   31  C   UNL     1      39.605 -14.250   0.652  1.00  0.00     0.000 A 
HETATM   32  C   UNL     1      39.387 -15.136   1.704  1.00  0.00     0.001 A 
HETATM   33  C   UNL     1      40.407 -15.997   2.114  1.00  0.00     0.015 A 
ENDBRANCH  26  28
ENDBRANCH   1  26
TORSDOF 5
ENDMDL
MODEL 3
REMARK VINA RESULT:      -9.1      3.053      6.713
REMARK  5 active torsions:
REMARK  status: ('A' for Active; 'I' for Inactive)
REMARK    1  A    between atoms: C_4  and  C_5 
REMARK    2  A    between atoms: C_5  and  C_6 
REMARK    3  A    between atoms: C_12  and  S_13 
REMARK    4  A    between atoms: S_13  and  C_14 
REMARK    5  A    between atoms: C_14  and  C_15 
ROOT
HETATM    1  C   UNL     1      41.288 -17.232   1.880  1.00  0.00     0.283 C 
HETATM    2  O   UNL     1      40.853 -17.203   3.228  1.00  0.00    -0.303 OA
HETATM    3  C   UNL     1      41.717 -16.462   3.990  1.00  0.00     0.201 A 
HETATM    4  C   UNL     1      42.937 -16.990   4.371  1.00  0.00     0.144 A 
HETATM    5  N   UNL     1      43.715 -16.260   5.194  1.00  0.00    -0.142 NA
HETATM    6  N   UNL     1      43.272 -15.033   5.606  1.00  0.00    -0.122 NA
HETATM    7  C   UNL     1      42.068 -14.575   5.190  1.00  0.00     0.212 A 
HETATM    8  N   UNL     1      41.243 -15.266   4.387  1.00  0.00    -0.195 NA
HETATM    9  C   UNL     1      43.418 -18.297   3.926  1.00  0.00     0.020 A 
HETATM   10  C   UNL     1      43.134 -18.782   2.630  1.00  0.00     0.023 A 
HETATM   11  N   UNL     1      42.506 -18.036   1.625  1.00  0.00    -0.259 NA
HETATM   12  C   UNL     1      44.187 -19.097   4.797  1.00  0.00     0.016 A 
HETATM   13  C   UNL     1      44.682 -20.339   4.399  1.00  0.00     0.001 A 
HETATM   14  C   UNL     1      44.435 -20.795   3.112  1.00  0.00     0.002 A 
HETATM   15  C   UNL     1      43.686 -20.013   2.234  1.00  0.00     0.024 A 
HETATM   16  H   UNL     1      43.201 -17.432   1.171  1.00  0.00     0.130 HD
ENDROOT
BRANCH   7  17
HETATM   17  S   UNL     1      41.510 -12.985   5.737  1.00  0.00    -0.084 SA
BRANCH  17  18
HETATM   18  C   UNL     1      39.832 -13.002   5.034  1.00  0.00     0.121 C 
BRANCH  18  19
HETATM   19  C   UNL     1      39.761 -12.186   3.765  1.00  0.00    -0.048 A 
HETATM   20  C   UNL     1      38.566 -11.551   3.394  1.00  0.00     0.009 A 
HETATM   21  C   UNL     1      38.496 -10.806   2.214  1.00  0.00     0.024 A 
HETATM   22  C   UNL     1      39.619 -10.696   1.397  1.00  0.00     0.034 A 
HETATM   23 CL   UNL     1      39.531  -9.778  -0.056  1.00  0.00    -0.084 Cl
HETATM   24  C   UNL     1      40.811 -11.326   1.747  1.00  0.00     0.024 A 
HETATM   25  C   UNL     1      40.881 -12.071   2.926  1.00  0.00     0.009 A 
ENDBRANCH  18  19
ENDBRANCH  17  18
ENDBRANCH   7  17
BRANCH   1  26
HETATM   26  C   UNL     1      41.419 -15.851   1.179  1.00  0.00     0.203 C 
HETATM   27  O   UNL     1      42.527 -15.383   0.899  1.00  0.00    -0.288 OA
BRANCH  26  28
HETATM   28  C   UNL     1      40.180 -15.100   0.805  1.00  0.00     0.014 A 
HETATM   29  C   UNL     1      39.032 -15.081   1.608  1.00  0.00     0.015 A 
HETATM   30  C   UNL     1      37.896 -14.380   1.193  1.00  0.00     0.001 A 
HETATM   31  C   UNL     1      37.897 -13.695  -0.020  1.00  0.00     0.000 A 
HETATM   32  C   UNL     1      39.035 -13.703  -0.822  1.00  0.00     0.001 A 
HETATM   33  C   UNL     1      40.173 -14.402  -0.411  1.00  0.00     0.015 A 
ENDBRANCH  26  28
ENDBRANCH   1  26
TORSDOF 5
ENDMDL
MODEL 4
REMARK VINA RESULT:      -9.0      2.611      5.110
REMARK  5 active torsions:
REMARK  status: ('A' for Active; 'I' for Inactive)
REMARK    1  A    between atoms: C_4  and  C_5 
REMARK    2  A    between atoms: C_5  and  C_6 
REMARK    3  A    between atoms: C_12  and  S_13 
REMARK    4  A    between atoms: S_13  and  C_14 
REMARK    5  A    between atoms: C_14  and  C_15 
ROOT
HETATM    1  C   UNL     1      40.359 -13.532   4.946  1.00  0.00     0.283 C 
HETATM    2  O   UNL     1      39.545 -14.504   4.314  1.00  0.00    -0.303 OA
HETATM    3  C   UNL     1      39.913 -14.651   3.002  1.00  0.00     0.201 A 
HETATM    4  C   UNL     1      39.548 -13.701   2.066  1.00  0.00     0.144 A 
HETATM    5  N   UNL     1      39.855 -13.933   0.775  1.00  0.00    -0.142 NA
HETATM    6  N   UNL     1      40.519 -15.084   0.450  1.00  0.00    -0.122 NA
HETATM    7  C   UNL     1      40.851 -15.968   1.418  1.00  0.00     0.212 A 
HETATM    8  N   UNL     1      40.554 -15.800   2.717  1.00  0.00    -0.195 NA
HETATM    9  C   UNL     1      38.847 -12.466   2.410  1.00  0.00     0.020 A 
HETATM   10  C   UNL     1      39.106 -11.787   3.622  1.00  0.00     0.023 A 
HETATM   11  N   UNL     1      40.121 -12.133   4.523  1.00  0.00    -0.259 NA
HETATM   12  C   UNL     1      37.893 -11.927   1.521  1.00  0.00     0.016 A 
HETATM   13  C   UNL     1      37.220 -10.739   1.806  1.00  0.00     0.001 A 
HETATM   14  C   UNL     1      37.507 -10.053   2.978  1.00  0.00     0.002 A 
HETATM   15  C   UNL     1      38.454 -10.565   3.864  1.00  0.00     0.024 A 
HETATM   16  H   UNL     1      41.011 -11.741   4.192  1.00  0.00     0.130 HD
ENDROOT
BRANCH   7  17
HETATM   17  S   UNL     1      41.708 -17.455   0.977  1.00  0.00    -0.084 SA
BRANCH  17  18
HETATM   18  C   UNL     1      43.297 -17.137   1.802  1.00  0.00     0.121 C 
BRANCH  18  19
HETATM   19  C   UNL     1      43.738 -18.327   2.621  1.00  0.00    -0.048 A 
HETATM   20  C   UNL     1      43.982 -18.192   3.997  1.00  0.00     0.009 A 
HETATM   21  C   UNL     1      44.400 -19.290   4.753  1.00  0.00     0.024 A 
HETATM   22  C   UNL     1      44.582 -20.526   4.138  1.00  0.00     0.034 A 
HETATM   23 CL   UNL     1      45.099 -21.877   5.071  1.00  0.00    -0.084 Cl
HETATM   24  C   UNL     1      44.352 -20.675   2.773  1.00  0.00     0.024 A 
HETATM   25  C   UNL     1      43.933 -19.578   2.016  1.00  0.00     0.009 A 
ENDBRANCH  18  19
ENDBRANCH  17  18
ENDBRANCH   7  17
BRANCH   1  26
HETATM   26  C   UNL     1      41.886 -13.823   4.949  1.00  0.00     0.203 C 
HETATM   27  O   UNL     1      42.664 -13.138   4.277  1.00  0.00    -0.288 OA
BRANCH  26  28
HETATM   28  C   UNL     1      42.420 -14.925   5.809  1.00  0.00     0.014 A 
HETATM   29  C   UNL     1      41.637 -16.007   6.230  1.00  0.00     0.015 A 
HETATM   30  C   UNL     1      42.186 -16.994   7.054  1.00  0.00     0.001 A 
HETATM   31  C   UNL     1      43.516 -16.910   7.461  1.00  0.00     0.000 A 
HETATM   32  C   UNL     1      44.304 -15.841   7.043  1.00  0.00     0.001 A 
HETATM   33  C   UNL     1      43.760 -14.852   6.219  1.00  0.00     0.015 A 
ENDBRANCH  26  28
ENDBRANCH   1  26
TORSDOF 5
ENDMDL
MODEL 5
REMARK VINA RESULT:      -8.6      3.398      7.101
REMARK  5 active torsions:
REMARK  status: ('A' for Active; 'I' for Inactive)
REMARK    1  A    between atoms: C_4  and  C_5 
REMARK    2  A    between atoms: C_5  and  C_6 
REMARK    3  A    between atoms: C_12  and  S_13 
REMARK    4  A    between atoms: S_13  and  C_14 
REMARK    5  A    between atoms: C_14  and  C_15 
ROOT
HETATM    1  C   UNL     1      42.908 -16.394   5.267  1.00  0.00     0.283 C 
HETATM    2  O   UNL     1      43.403 -15.950   4.016  1.00  0.00    -0.303 OA
HETATM    3  C   UNL     1      42.598 -16.396   3.002  1.00  0.00     0.201 A 
HETATM    4  C   UNL     1      42.665 -17.714   2.587  1.00  0.00     0.144 A 
HETATM    5  N   UNL     1      41.920 -18.085   1.528  1.00  0.00    -0.142 NA
HETATM    6  N   UNL     1      41.127 -17.151   0.919  1.00  0.00    -0.122 NA
HETATM    7  C   UNL     1      41.105 -15.880   1.380  1.00  0.00     0.212 A 
HETATM    8  N   UNL     1      41.840 -15.449   2.418  1.00  0.00    -0.195 NA
HETATM    9  C   UNL     1      43.504 -18.717   3.241  1.00  0.00     0.020 A 
HETATM   10  C   UNL     1      43.715 -18.702   4.638  1.00  0.00     0.023 A 
HETATM   11  N   UNL     1      43.056 -17.845   5.529  1.00  0.00    -0.259 NA
HETATM   12  C   UNL     1      44.119 -19.728   2.473  1.00  0.00     0.016 A 
HETATM   13  C   UNL     1      44.908 -20.715   3.065  1.00  0.00     0.001 A 
HETATM   14  C   UNL     1      45.079 -20.721   4.442  1.00  0.00     0.002 A 
HETATM   15  C   UNL     1      44.471 -19.735   5.218  1.00  0.00     0.024 A 
HETATM   16  H   UNL     1      42.128 -18.230   5.741  1.00  0.00     0.130 HD
ENDROOT
BRANCH   7  17
HETATM   17  S   UNL     1      40.074 -14.683   0.577  1.00  0.00    -0.084 SA
BRANCH  17  18
HETATM   18  C   UNL     1      39.130 -14.092   2.014  1.00  0.00     0.121 C 
BRANCH  18  19
HETATM   19  C   UNL     1      39.384 -12.625   2.272  1.00  0.00    -0.048 A 
HETATM   20  C   UNL     1      40.689 -12.111   2.219  1.00  0.00     0.009 A 
HETATM   21  C   UNL     1      40.926 -10.756   2.468  1.00  0.00     0.024 A 
HETATM   22  C   UNL     1      39.862  -9.912   2.776  1.00  0.00     0.034 A 
HETATM   23 CL   UNL     1      40.157  -8.244   3.084  1.00  0.00    -0.084 Cl
HETATM   24  C   UNL     1      38.563 -10.409   2.840  1.00  0.00     0.024 A 
HETATM   25  C   UNL     1      38.324 -11.762   2.590  1.00  0.00     0.009 A 
ENDBRANCH  18  19
ENDBRANCH  17  18
ENDBRANCH   7  17
BRANCH   1  26
HETATM   26  C   UNL     1      41.463 -15.946   5.624  1.00  0.00     0.203 C 
HETATM   27  O   UNL     1      40.578 -16.777   5.854  1.00  0.00    -0.288 OA
BRANCH  26  28
HETATM   28  C   UNL     1      41.154 -14.486   5.726  1.00  0.00     0.014 A 
HETATM   29  C   UNL     1      42.148 -13.499   5.755  1.00  0.00     0.015 A 
HETATM   30  C   UNL     1      41.798 -12.151   5.877  1.00  0.00     0.001 A 
HETATM   31  C   UNL     1      40.458 -11.779   5.970  1.00  0.00     0.000 A 
HETATM   32  C   UNL     1      39.463 -12.752   5.937  1.00  0.00     0.001 A 
HETATM   33  C   UNL     1      39.808 -14.100   5.815  1.00  0.00     0.015 A 
ENDBRANCH  26  28
ENDBRANCH   1  26
TORSDOF 5
ENDMDL
MODEL 6
REMARK VINA RESULT:      -8.4      3.304      7.505
REMARK  5 active torsions:
REMARK  status: ('A' for Active; 'I' for Inactive)
REMARK    1  A    between atoms: C_4  and  C_5 
REMARK    2  A    between atoms: C_5  and  C_6 
REMARK    3  A    between atoms: C_12  and  S_13 
REMARK    4  A    between atoms: S_13  and  C_14 
REMARK    5  A    between atoms: C_14  and  C_15 
ROOT
HETATM    1  C   UNL     1      42.930 -16.410   5.293  1.00  0.00     0.283 C 
HETATM    2  O   UNL     1      43.373 -15.985   4.016  1.00  0.00    -0.303 OA
HETATM    3  C   UNL     1      42.519 -16.434   3.044  1.00  0.00     0.201 A 
HETATM    4  C   UNL     1      42.555 -17.756   2.641  1.00  0.00     0.144 A 
HETATM    5  N   UNL     1      41.759 -18.131   1.621  1.00  0.00    -0.142 NA
HETATM    6  N   UNL     1      40.949 -17.196   1.037  1.00  0.00    -0.122 NA
HETATM    7  C   UNL     1      40.960 -15.919   1.485  1.00  0.00     0.212 A 
HETATM    8  N   UNL     1      41.744 -15.485   2.484  1.00  0.00    -0.195 NA
HETATM    9  C   UNL     1      43.413 -18.760   3.268  1.00  0.00     0.020 A 
HETATM   10  C   UNL     1      43.686 -18.733   4.654  1.00  0.00     0.023 A 
HETATM   11  N   UNL     1      43.076 -17.859   5.564  1.00  0.00    -0.259 NA
HETATM   12  C   UNL     1      43.982 -19.786   2.485  1.00  0.00     0.016 A 
HETATM   13  C   UNL     1      44.788 -20.774   3.052  1.00  0.00     0.001 A 
HETATM   14  C   UNL     1      45.020 -20.767   4.420  1.00  0.00     0.002 A 
HETATM   15  C   UNL     1      44.457 -19.767   5.211  1.00  0.00     0.024 A 
HETATM   16  H   UNL     1      42.155 -18.233   5.822  1.00  0.00     0.130 HD
ENDROOT
BRANCH   7  17
HETATM   17  S   UNL     1      39.905 -14.721   0.715  1.00  0.00    -0.084 SA
BRANCH  17  18
HETATM   18  C   UNL     1      40.704 -14.628  -0.917  1.00  0.00     0.121 C 
BRANCH  18  19
HETATM   19  C   UNL     1      41.511 -13.360  -1.060  1.00  0.00    -0.048 A 
HETATM   20  C   UNL     1      42.089 -13.021  -2.294  1.00  0.00     0.009 A 
HETATM   21  C   UNL     1      42.845 -11.853  -2.425  1.00  0.00     0.024 A 
HETATM   22  C   UNL     1      43.033 -11.022  -1.323  1.00  0.00     0.034 A 
HETATM   23 CL   UNL     1      43.966  -9.585  -1.485  1.00  0.00    -0.084 Cl
HETATM   24  C   UNL     1      42.473 -11.349  -0.090  1.00  0.00     0.024 A 
HETATM   25  C   UNL     1      41.716 -12.515   0.042  1.00  0.00     0.009 A 
ENDBRANCH  18  19
ENDBRANCH  17  18
ENDBRANCH   7  17
BRANCH   1  26
HETATM   26  C   UNL     1      41.507 -15.944   5.709  1.00  0.00     0.203 C 
HETATM   27  O   UNL     1      40.668 -16.752   6.120  1.00  0.00    -0.288 OA
BRANCH  26  28
HETATM   28  C   UNL     1      41.165 -14.488   5.644  1.00  0.00     0.014 A 
HETATM   29  C   UNL     1      42.105 -13.477   5.883  1.00  0.00     0.015 A 
HETATM   30  C   UNL     1      41.720 -12.134   5.832  1.00  0.00     0.001 A 
HETATM   31  C   UNL     1      40.401 -11.791   5.543  1.00  0.00     0.000 A 
HETATM   32  C   UNL     1      39.461 -12.789   5.299  1.00  0.00     0.001 A 
HETATM   33  C   UNL     1      39.841 -14.133   5.348  1.00  0.00     0.015 A 
ENDBRANCH  26  28
ENDBRANCH   1  26
TORSDOF 5
ENDMDL
MODEL 7
REMARK VINA RESULT:      -8.4      3.397      7.752
REMARK  5 active torsions:
REMARK  status: ('A' for Active; 'I' for Inactive)
REMARK    1  A    between atoms: C_4  and  C_5 
REMARK    2  A    between atoms: C_5  and  C_6 
REMARK    3  A    between atoms: C_12  and  S_13 
REMARK    4  A    between atoms: S_13  and  C_14 
REMARK    5  A    between atoms: C_14  and  C_15 
ROOT
HETATM    1  C   UNL     1      44.099 -17.767   4.898  1.00  0.00     0.283 C 
HETATM    2  O   UNL     1      44.400 -17.280   3.602  1.00  0.00    -0.303 OA
HETATM    3  C   UNL     1      43.291 -17.344   2.801  1.00  0.00     0.201 A 
HETATM    4  C   UNL     1      42.879 -18.556   2.276  1.00  0.00     0.144 A 
HETATM    5  N   UNL     1      41.837 -18.557   1.423  1.00  0.00    -0.142 NA
HETATM    6  N   UNL     1      41.229 -17.369   1.122  1.00  0.00    -0.122 NA
HETATM    7  C   UNL     1      41.680 -16.220   1.676  1.00  0.00     0.212 A 
HETATM    8  N   UNL     1      42.725 -16.156   2.516  1.00  0.00    -0.195 NA
HETATM    9  C   UNL     1      43.521 -19.829   2.602  1.00  0.00     0.020 A 
HETATM   10  C   UNL     1      44.041 -20.081   3.892  1.00  0.00     0.023 A 
HETATM   11  N   UNL     1      43.880 -19.229   4.991  1.00  0.00    -0.259 NA
HETATM   12  C   UNL     1      43.626 -20.835   1.620  1.00  0.00     0.016 A 
HETATM   13  C   UNL     1      44.212 -22.070   1.900  1.00  0.00     0.001 A 
HETATM   14  C   UNL     1      44.684 -22.329   3.179  1.00  0.00     0.002 A 
HETATM   15  C   UNL     1      44.580 -21.350   4.166  1.00  0.00     0.024 A 
HETATM   16  H   UNL     1      42.954 -19.390   5.407  1.00  0.00     0.130 HD
ENDROOT
BRANCH   7  17
HETATM   17  S   UNL     1      40.881 -14.691   1.272  1.00  0.00    -0.084 SA
BRANCH  17  18
HETATM   18  C   UNL     1      41.466 -14.493  -0.439  1.00  0.00     0.121 C 
BRANCH  18  19
HETATM   19  C   UNL     1      40.322 -14.561  -1.421  1.00  0.00    -0.048 A 
HETATM   20  C   UNL     1      40.465 -15.256  -2.633  1.00  0.00     0.009 A 
HETATM   21  C   UNL     1      39.410 -15.310  -3.547  1.00  0.00     0.024 A 
HETATM   22  C   UNL     1      38.209 -14.666  -3.259  1.00  0.00     0.034 A 
HETATM   23 CL   UNL     1      36.911 -14.732  -4.386  1.00  0.00    -0.084 Cl
HETATM   24  C   UNL     1      38.054 -13.965  -2.064  1.00  0.00     0.024 A 
HETATM   25  C   UNL     1      39.108 -13.911  -1.149  1.00  0.00     0.009 A 
ENDBRANCH  18  19
ENDBRANCH  17  18
ENDBRANCH   7  17
BRANCH   1  26
HETATM   26  C   UNL     1      42.966 -17.020   5.657  1.00  0.00     0.203 C 
HETATM   27  O   UNL     1      41.900 -17.586   5.924  1.00  0.00    -0.288 OA
BRANCH  26  28
HETATM   28  C   UNL     1      43.188 -15.609   6.101  1.00  0.00     0.014 A 
HETATM   29  C   UNL     1      42.374 -14.546   5.689  1.00  0.00     0.015 A 
HETATM   30  C   UNL     1      42.646 -13.244   6.119  1.00  0.00     0.001 A 
HETATM   31  C   UNL     1      43.729 -12.994   6.959  1.00  0.00     0.000 A 
HETATM   32  C   UNL     1      44.541 -14.044   7.378  1.00  0.00     0.001 A 
HETATM   33  C   UNL     1      44.272 -15.347   6.952  1.00  0.00     0.015 A 
ENDBRANCH  26  28
ENDBRANCH   1  26
TORSDOF 5
ENDMDL
MODEL 8
REMARK VINA RESULT:      -8.1      2.948      5.788
REMARK  5 active torsions:
REMARK  status: ('A' for Active; 'I' for Inactive)
REMARK    1  A    between atoms: C_4  and  C_5 
REMARK    2  A    between atoms: C_5  and  C_6 
REMARK    3  A    between atoms: C_12  and  S_13 
REMARK    4  A    between atoms: S_13  and  C_14 
REMARK    5  A    between atoms: C_14  and  C_15 
ROOT
HETATM    1  C   UNL     1      38.841 -13.494  -0.718  1.00  0.00     0.283 C 
HETATM    2  O   UNL     1      39.934 -14.394  -0.662  1.00  0.00    -0.303 OA
HETATM    3  C   UNL     1      40.726 -14.112   0.419  1.00  0.00     0.201 A 
HETATM    4  C   UNL     1      41.588 -13.031   0.388  1.00  0.00     0.144 A 
HETATM    5  N   UNL     1      42.411 -12.845   1.438  1.00  0.00    -0.142 NA
HETATM    6  N   UNL     1      42.353 -13.723   2.486  1.00  0.00    -0.122 NA
HETATM    7  C   UNL     1      41.481 -14.757   2.453  1.00  0.00     0.212 A 
HETATM    8  N   UNL     1      40.652 -15.002   1.427  1.00  0.00    -0.195 NA
HETATM    9  C   UNL     1      41.647 -12.086  -0.726  1.00  0.00     0.020 A 
HETATM   10  C   UNL     1      40.486 -11.722  -1.444  1.00  0.00     0.023 A 
HETATM   11  N   UNL     1      39.185 -12.102  -1.091  1.00  0.00    -0.259 NA
HETATM   12  C   UNL     1      42.882 -11.516  -1.099  1.00  0.00     0.016 A 
HETATM   13  C   UNL     1      42.974 -10.594  -2.142  1.00  0.00     0.001 A 
HETATM   14  C   UNL     1      41.825 -10.207  -2.818  1.00  0.00     0.002 A 
HETATM   15  C   UNL     1      40.594 -10.753  -2.456  1.00  0.00     0.024 A 
HETATM   16  H   UNL     1      38.842 -11.477  -0.351  1.00  0.00     0.130 HD
ENDROOT
BRANCH   7  17
HETATM   17  S   UNL     1      41.422 -15.885   3.819  1.00  0.00    -0.084 SA
BRANCH  17  18
HETATM   18  C   UNL     1      43.192 -16.279   3.955  1.00  0.00     0.121 C 
BRANCH  18  19
HETATM   19  C   UNL     1      43.480 -17.682   3.475  1.00  0.00    -0.048 A 
HETATM   20  C   UNL     1      44.111 -18.607   4.321  1.00  0.00     0.009 A 
HETATM   21  C   UNL     1      44.387 -19.902   3.875  1.00  0.00     0.024 A 
HETATM   22  C   UNL     1      44.040 -20.277   2.579  1.00  0.00     0.034 A 
HETATM   23 CL   UNL     1      44.383 -21.871   2.030  1.00  0.00    -0.084 Cl
HETATM   24  C   UNL     1      43.420 -19.368   1.724  1.00  0.00     0.024 A 
HETATM   25  C   UNL     1      43.143 -18.074   2.170  1.00  0.00     0.009 A 
ENDBRANCH  18  19
ENDBRANCH  17  18
ENDBRANCH   7  17
BRANCH   1  26
HETATM   26  C   UNL     1      37.905 -13.485   0.522  1.00  0.00     0.203 C 
HETATM   27  O   UNL     1      37.307 -14.508   0.874  1.00  0.00    -0.288 OA
BRANCH  26  28
HETATM   28  C   UNL     1      37.758 -12.228   1.320  1.00  0.00     0.014 A 
HETATM   29  C   UNL     1      38.606 -11.902   2.387  1.00  0.00     0.015 A 
HETATM   30  C   UNL     1      38.403 -10.724   3.111  1.00  0.00     0.001 A 
HETATM   31  C   UNL     1      37.358  -9.865   2.778  1.00  0.00     0.000 A 
HETATM   32  C   UNL     1      36.514 -10.178   1.716  1.00  0.00     0.001 A 
HETATM   33  C   UNL     1      36.712 -11.354   0.989  1.00  0.00     0.015 A 
ENDBRANCH  26  28
ENDBRANCH   1  26
TORSDOF 5
ENDMDL
MODEL 9
REMARK VINA RESULT:      -8.1      3.376      7.955
REMARK  5 active torsions:
REMARK  status: ('A' for Active; 'I' for Inactive)
REMARK    1  A    between atoms: C_4  and  C_5 
REMARK    2  A    between atoms: C_5  and  C_6 
REMARK    3  A    between atoms: C_12  and  S_13 
REMARK    4  A    between atoms: S_13  and  C_14 
REMARK    5  A    between atoms: C_14  and  C_15 
ROOT
HETATM    1  C   UNL     1      42.018 -14.458   5.440  1.00  0.00     0.283 C 
HETATM    2  O   UNL     1      42.998 -14.702   4.446  1.00  0.00    -0.303 OA
HETATM    3  C   UNL     1      42.637 -15.777   3.677  1.00  0.00     0.201 A 
HETATM    4  C   UNL     1      42.778 -17.063   4.166  1.00  0.00     0.144 A 
HETATM    5  N   UNL     1      42.495 -18.089   3.342  1.00  0.00    -0.142 NA
HETATM    6  N   UNL     1      42.072 -17.818   2.069  1.00  0.00    -0.122 NA
HETATM    7  C   UNL     1      41.951 -16.535   1.657  1.00  0.00     0.212 A 
HETATM    8  N   UNL     1      42.237 -15.473   2.427  1.00  0.00    -0.195 NA
HETATM    9  C   UNL     1      43.221 -17.357   5.528  1.00  0.00     0.020 A 
HETATM   10  C   UNL     1      42.858 -16.529   6.614  1.00  0.00     0.023 A 
HETATM   11  N   UNL     1      41.956 -15.461   6.529  1.00  0.00    -0.259 NA
HETATM   12  C   UNL     1      44.024 -18.489   5.777  1.00  0.00     0.016 A 
HETATM   13  C   UNL     1      44.447 -18.814   7.066  1.00  0.00     0.001 A 
HETATM   14  C   UNL     1      44.054 -18.022   8.136  1.00  0.00     0.002 A 
HETATM   15  C   UNL     1      43.252 -16.904   7.910  1.00  0.00     0.024 A 
HETATM   16  H   UNL     1      40.997 -15.827   6.575  1.00  0.00     0.130 HD
ENDROOT
BRANCH   7  17
HETATM   17  S   UNL     1      41.405 -16.203   0.005  1.00  0.00    -0.084 SA
BRANCH  17  18
HETATM   18  C   UNL     1      41.551 -14.390   0.003  1.00  0.00     0.121 C 
BRANCH  18  19
HETATM   19  C   UNL     1      40.200 -13.731   0.149  1.00  0.00    -0.048 A 
HETATM   20  C   UNL     1      39.941 -12.496  -0.466  1.00  0.00     0.009 A 
HETATM   21  C   UNL     1      38.695 -11.880  -0.322  1.00  0.00     0.024 A 
HETATM   22  C   UNL     1      37.704 -12.492   0.442  1.00  0.00     0.034 A 
HETATM   23 CL   UNL     1      36.171 -11.732   0.619  1.00  0.00    -0.084 Cl
HETATM   24  C   UNL     1      37.947 -13.714   1.065  1.00  0.00     0.024 A 
HETATM   25  C   UNL     1      39.193 -14.330   0.921  1.00  0.00     0.009 A 
ENDBRANCH  18  19
ENDBRANCH  17  18
ENDBRANCH   7  17
BRANCH   1  26
HETATM   26  C   UNL     1      40.583 -14.164   4.920  1.00  0.00     0.203 C 
HETATM   27  O   UNL     1      39.669 -14.979   5.081  1.00  0.00    -0.288 OA
BRANCH  26  28
HETATM   28  C   UNL     1      40.300 -12.856   4.250  1.00  0.00     0.014 A 
HETATM   29  C   UNL     1      39.082 -12.178   4.390  1.00  0.00     0.015 A 
HETATM   30  C   UNL     1      38.869 -10.971   3.719  1.00  0.00     0.001 A 
HETATM   31  C   UNL     1      39.864 -10.432   2.906  1.00  0.00     0.000 A 
HETATM   32  C   UNL     1      41.080 -11.096   2.765  1.00  0.00     0.001 A 
HETATM   33  C   UNL     1      41.298 -12.303   3.434  1.00  0.00     0.015 A 
ENDBRANCH  26  28
ENDBRANCH   1  26
TORSDOF 5
ENDMDL
MODEL 10
REMARK VINA RESULT:      -8.1      3.222      6.392
REMARK  5 active torsions:
REMARK  status: ('A' for Active; 'I' for Inactive)
REMARK    1  A    between atoms: C_4  and  C_5 
REMARK    2  A    between atoms: C_5  and  C_6 
REMARK    3  A    between atoms: C_12  and  S_13 
REMARK    4  A    between atoms: S_13  and  C_14 
REMARK    5  A    between atoms: C_14  and  C_15 
ROOT
HETATM    1  C   UNL     1      41.519 -17.461   2.236  1.00  0.00     0.283 C 
HETATM    2  O   UNL     1      41.244 -17.517   3.625  1.00  0.00    -0.303 OA
HETATM    3  C   UNL     1      42.265 -16.942   4.334  1.00  0.00     0.201 A 
HETATM    4  C   UNL     1      43.454 -17.624   4.519  1.00  0.00     0.144 A 
HETATM    5  N   UNL     1      44.395 -17.057   5.299  1.00  0.00    -0.142 NA
HETATM    6  N   UNL     1      44.140 -15.836   5.861  1.00  0.00    -0.122 NA
HETATM    7  C   UNL     1      42.956 -15.223   5.634  1.00  0.00     0.212 A 
HETATM    8  N   UNL     1      41.975 -15.747   4.883  1.00  0.00    -0.195 NA
HETATM    9  C   UNL     1      43.734 -18.924   3.913  1.00  0.00     0.020 A 
HETATM   10  C   UNL     1      43.254 -19.254   2.625  1.00  0.00     0.023 A 
HETATM   11  N   UNL     1      42.604 -18.356   1.769  1.00  0.00    -0.259 NA
HETATM   12  C   UNL     1      44.502 -19.877   4.615  1.00  0.00     0.016 A 
HETATM   13  C   UNL     1      44.808 -21.119   4.059  1.00  0.00     0.001 A 
HETATM   14  C   UNL     1      44.370 -21.423   2.778  1.00  0.00     0.002 A 
HETATM   15  C   UNL     1      43.618 -20.490   2.065  1.00  0.00     0.024 A 
HETATM   16  H   UNL     1      43.307 -17.784   1.286  1.00  0.00     0.130 HD
ENDROOT
BRANCH   7  17
HETATM   17  S   UNL     1      42.642 -13.643   6.374  1.00  0.00    -0.084 SA
BRANCH  17  18
HETATM   18  C   UNL     1      44.289 -13.310   7.071  1.00  0.00     0.121 C 
BRANCH  18  19
HETATM   19  C   UNL     1      44.193 -12.481   8.330  1.00  0.00    -0.048 A 
HETATM   20  C   UNL     1      43.173 -11.528   8.478  1.00  0.00     0.009 A 
HETATM   21  C   UNL     1      43.091 -10.754   9.638  1.00  0.00     0.024 A 
HETATM   22  C   UNL     1      44.030 -10.923  10.653  1.00  0.00     0.034 A 
HETATM   23 CL   UNL     1      43.928  -9.967  12.080  1.00  0.00    -0.084 Cl
HETATM   24  C   UNL     1      45.053 -11.859  10.518  1.00  0.00     0.024 A 
HETATM   25  C   UNL     1      45.136 -12.635   9.359  1.00  0.00     0.009 A 
ENDBRANCH  18  19
ENDBRANCH  17  18
ENDBRANCH   7  17
BRANCH   1  26
HETATM   26  C   UNL     1      41.724 -16.040   1.640  1.00  0.00     0.203 C 
HETATM   27  O   UNL     1      42.851 -15.541   1.558  1.00  0.00    -0.288 OA
BRANCH  26  28
HETATM   28  C   UNL     1      40.539 -15.285   1.124  1.00  0.00     0.014 A 
HETATM   29  C   UNL     1      39.346 -15.157   1.848  1.00  0.00     0.015 A 
HETATM   30  C   UNL     1      38.265 -14.460   1.303  1.00  0.00     0.001 A 
HETATM   31  C   UNL     1      38.364 -13.887   0.037  1.00  0.00     0.000 A 
HETATM   32  C   UNL     1      39.547 -14.004  -0.688  1.00  0.00     0.001 A 
HETATM   33  C   UNL     1      40.631 -14.700  -0.147  1.00  0.00     0.015 A 
ENDBRANCH  26  28
ENDBRANCH   1  26
TORSDOF 5
ENDMDL
