MODEL 1
REMARK VINA RESULT:      -8.2      0.000      0.000
REMARK  9 active torsions:
REMARK  status: ('A' for Active; 'I' for Inactive)
REMARK    1  A    between atoms: C_2  and  N_3 
REMARK       I    between atoms: N_3  and  C_4 
REMARK    2  A    between atoms: C_4  and  C_5 
REMARK    3  A    between atoms: C_5  and  S_6 
REMARK    4  A    between atoms: S_6  and  C_7 
REMARK    5  A    between atoms: N_8  and  C_9 
REMARK    6  A    between atoms: C_9  and  C_10 
REMARK    7  A    between atoms: C_10  and  C_11 
REMARK    8  A    between atoms: C_17  and  C_18 
REMARK    9  A    between atoms: C_19  and  O_20 
ROOT
HETATM    1  C   UNL     1      41.467 -16.188   1.874  1.00  0.00     0.192 A 
HETATM    2  N   UNL     1      42.397 -16.618   2.783  1.00  0.00    -0.307 N 
HETATM    3  C   UNL     1      41.871 -16.299   4.023  1.00  0.00     0.167 A 
HETATM    4  N   UNL     1      40.666 -15.781   3.845  1.00  0.00    -0.128 NA
HETATM    5  N   UNL     1      40.412 -15.723   2.502  1.00  0.00    -0.122 NA
ENDROOT
BRANCH   1   6
HETATM    6  S   UNL     1      41.684 -16.211   0.160  1.00  0.00    -0.081 SA
BRANCH   6   7
HETATM    7  C   UNL     1      40.957 -14.622  -0.323  1.00  0.00     0.185 C 
BRANCH   7   8
HETATM    8  C   UNL     1      40.777 -14.525  -1.830  1.00  0.00     0.227 C 
HETATM    9  N   UNL     1      39.538 -14.935  -2.280  1.00  0.00    -0.361 N 
HETATM   10  H   UNL     1      38.777 -14.899  -1.599  1.00  0.00     0.162 HD
HETATM   11  O   UNL     1      41.675 -14.139  -2.576  1.00  0.00    -0.273 OA
BRANCH   9  12
HETATM   12  C   UNL     1      39.165 -14.870  -3.675  1.00  0.00     0.118 C 
HETATM   13  C   UNL     1      38.927 -16.249  -4.263  1.00  0.00     0.026 C 
ENDBRANCH   9  12
ENDBRANCH   7   8
ENDBRANCH   6   7
ENDBRANCH   1   6
BRANCH   2  14
HETATM   14  C   UNL     1      43.668 -17.262   2.519  1.00  0.00     0.137 C 
BRANCH  14  15
HETATM   15  C   UNL     1      43.575 -18.616   1.807  1.00  0.00     0.059 C 
BRANCH  15  16
HETATM   16  C   UNL     1      44.002 -19.784   2.661  1.00  0.00    -0.057 A 
HETATM   17  C   UNL     1      44.003 -21.084   2.142  1.00  0.00     0.007 A 
HETATM   18  C   UNL     1      44.407 -22.161   2.934  1.00  0.00     0.001 A 
HETATM   19  C   UNL     1      44.806 -21.948   4.252  1.00  0.00     0.000 A 
HETATM   20  C   UNL     1      44.801 -20.658   4.781  1.00  0.00     0.001 A 
HETATM   21  C   UNL     1      44.400 -19.581   3.989  1.00  0.00     0.007 A 
ENDBRANCH  15  16
ENDBRANCH  14  15
ENDBRANCH   2  14
BRANCH   3  22
HETATM   22  C   UNL     1      42.510 -16.518   5.319  1.00  0.00     0.045 A 
HETATM   23  C   UNL     1      43.378 -15.563   5.869  1.00  0.00     0.082 A 
HETATM   24  C   UNL     1      43.956 -15.758   7.127  1.00  0.00     0.038 A 
HETATM   25  C   UNL     1      43.706 -16.934   7.830  1.00  0.00     0.003 A 
HETATM   26  C   UNL     1      42.878 -17.911   7.279  1.00  0.00     0.001 A 
HETATM   27  C   UNL     1      42.288 -17.707   6.029  1.00  0.00     0.018 A 
BRANCH  23  28
HETATM   28  O   UNL     1      43.603 -14.373   5.222  1.00  0.00    -0.355 OA
HETATM   29  C   UNL     1      42.773 -13.349   5.774  1.00  0.00     0.210 C 
ENDBRANCH  23  28
ENDBRANCH   3  22
TORSDOF 9
ENDMDL
MODEL 2
REMARK VINA RESULT:      -7.9      1.491      1.627
REMARK  9 active torsions:
REMARK  status: ('A' for Active; 'I' for Inactive)
REMARK    1  A    between atoms: C_2  and  N_3 
REMARK       I    between atoms: N_3  and  C_4 
REMARK    2  A    between atoms: C_4  and  C_5 
REMARK    3  A    between atoms: C_5  and  S_6 
REMARK    4  A    between atoms: S_6  and  C_7 
REMARK    5  A    between atoms: N_8  and  C_9 
REMARK    6  A    between atoms: C_9  and  C_10 
REMARK    7  A    between atoms: C_10  and  C_11 
REMARK    8  A    between atoms: C_17  and  C_18 
REMARK    9  A    between atoms: C_19  and  O_20 
ROOT
HETATM    1  C   UNL     1      41.537 -13.915   2.495  1.00  0.00     0.192 A 
HETATM    2  N   UNL     1      42.166 -14.929   3.167  1.00  0.00    -0.307 N 
HETATM    3  C   UNL     1      41.865 -14.725   4.503  1.00  0.00     0.167 A 
HETATM    4  N   UNL     1      41.044 -13.691   4.592  1.00  0.00    -0.128 NA
HETATM    5  N   UNL     1      40.831 -13.194   3.335  1.00  0.00    -0.122 NA
ENDROOT
BRANCH   1   6
HETATM    6  S   UNL     1      41.698 -13.610   0.802  1.00  0.00    -0.081 SA
BRANCH   6   7
HETATM    7  C   UNL     1      40.498 -14.776   0.104  1.00  0.00     0.185 C 
BRANCH   7   8
HETATM    8  C   UNL     1      39.971 -14.297  -1.239  1.00  0.00     0.227 C 
HETATM    9  N   UNL     1      38.603 -14.412  -1.385  1.00  0.00    -0.361 N 
HETATM   10  H   UNL     1      38.058 -14.436  -0.519  1.00  0.00     0.162 HD
HETATM   11  O   UNL     1      40.711 -13.872  -2.123  1.00  0.00    -0.273 OA
BRANCH   9  12
HETATM   12  C   UNL     1      37.913 -13.964  -2.573  1.00  0.00     0.118 C 
HETATM   13  C   UNL     1      37.497 -15.124  -3.459  1.00  0.00     0.026 C 
ENDBRANCH   9  12
ENDBRANCH   7   8
ENDBRANCH   6   7
ENDBRANCH   1   6
BRANCH   2  14
HETATM   14  C   UNL     1      42.982 -15.991   2.613  1.00  0.00     0.137 C 
BRANCH  14  15
HETATM   15  C   UNL     1      42.268 -17.336   2.439  1.00  0.00     0.059 C 
BRANCH  15  16
HETATM   16  C   UNL     1      43.109 -18.527   2.824  1.00  0.00    -0.057 A 
HETATM   17  C   UNL     1      43.261 -19.608   1.946  1.00  0.00     0.007 A 
HETATM   18  C   UNL     1      44.046 -20.705   2.305  1.00  0.00     0.001 A 
HETATM   19  C   UNL     1      44.682 -20.734   3.544  1.00  0.00     0.000 A 
HETATM   20  C   UNL     1      44.530 -19.668   4.429  1.00  0.00     0.001 A 
HETATM   21  C   UNL     1      43.748 -18.570   4.071  1.00  0.00     0.007 A 
ENDBRANCH  15  16
ENDBRANCH  14  15
ENDBRANCH   2  14
BRANCH   3  22
HETATM   22  C   UNL     1      42.342 -15.522   5.631  1.00  0.00     0.045 A 
HETATM   23  C   UNL     1      43.565 -15.235   6.256  1.00  0.00     0.082 A 
HETATM   24  C   UNL     1      43.998 -15.975   7.360  1.00  0.00     0.038 A 
HETATM   25  C   UNL     1      43.231 -17.040   7.825  1.00  0.00     0.003 A 
HETATM   26  C   UNL     1      42.033 -17.363   7.189  1.00  0.00     0.001 A 
HETATM   27  C   UNL     1      41.593 -16.613   6.096  1.00  0.00     0.018 A 
BRANCH  23  28
HETATM   28  O   UNL     1      44.317 -14.161   5.852  1.00  0.00    -0.355 OA
HETATM   29  C   UNL     1      45.226 -13.780   6.887  1.00  0.00     0.210 C 
ENDBRANCH  23  28
ENDBRANCH   3  22
TORSDOF 9
ENDMDL
MODEL 3
REMARK VINA RESULT:      -7.9      3.620      7.321
REMARK  9 active torsions:
REMARK  status: ('A' for Active; 'I' for Inactive)
REMARK    1  A    between atoms: C_2  and  N_3 
REMARK       I    between atoms: N_3  and  C_4 
REMARK    2  A    between atoms: C_4  and  C_5 
REMARK    3  A    between atoms: C_5  and  S_6 
REMARK    4  A    between atoms: S_6  and  C_7 
REMARK    5  A    between atoms: N_8  and  C_9 
REMARK    6  A    between atoms: C_9  and  C_10 
REMARK    7  A    between atoms: C_10  and  C_11 
REMARK    8  A    between atoms: C_17  and  C_18 
REMARK    9  A    between atoms: C_19  and  O_20 
ROOT
HETATM    1  C   UNL     1      43.994 -14.415   6.081  1.00  0.00     0.192 A 
HETATM    2  N   UNL     1      43.557 -15.577   5.501  1.00  0.00    -0.307 N 
HETATM    3  C   UNL     1      43.305 -15.252   4.179  1.00  0.00     0.167 A 
HETATM    4  N   UNL     1      43.649 -13.989   3.986  1.00  0.00    -0.128 NA
HETATM    5  N   UNL     1      44.090 -13.472   5.173  1.00  0.00    -0.122 NA
ENDROOT
BRANCH   1   6
HETATM    6  S   UNL     1      44.317 -14.221   7.767  1.00  0.00    -0.081 SA
BRANCH   6   7
HETATM    7  C   UNL     1      45.532 -12.875   7.754  1.00  0.00     0.185 C 
BRANCH   7   8
HETATM    8  C   UNL     1      45.184 -11.798   8.770  1.00  0.00     0.227 C 
HETATM    9  N   UNL     1      43.913 -11.908   9.299  1.00  0.00    -0.361 N 
HETATM   10  H   UNL     1      43.492 -12.839   9.268  1.00  0.00     0.162 HD
HETATM   11  O   UNL     1      45.964 -10.896   9.067  1.00  0.00    -0.273 OA
BRANCH   9  12
HETATM   12  C   UNL     1      43.420 -11.005  10.314  1.00  0.00     0.118 C 
HETATM   13  C   UNL     1      43.611 -11.565  11.712  1.00  0.00     0.026 C 
ENDBRANCH   9  12
ENDBRANCH   7   8
ENDBRANCH   6   7
ENDBRANCH   1   6
BRANCH   2  14
HETATM   14  C   UNL     1      43.382 -16.873   6.125  1.00  0.00     0.137 C 
BRANCH  14  15
HETATM   15  C   UNL     1      44.676 -17.659   6.363  1.00  0.00     0.059 C 
BRANCH  15  16
HETATM   16  C   UNL     1      44.556 -19.133   6.072  1.00  0.00    -0.057 A 
HETATM   17  C   UNL     1      45.089 -19.674   4.895  1.00  0.00     0.007 A 
HETATM   18  C   UNL     1      44.981 -21.041   4.633  1.00  0.00     0.001 A 
HETATM   19  C   UNL     1      44.335 -21.878   5.541  1.00  0.00     0.000 A 
HETATM   20  C   UNL     1      43.794 -21.348   6.711  1.00  0.00     0.001 A 
HETATM   21  C   UNL     1      43.903 -19.983   6.975  1.00  0.00     0.007 A 
ENDBRANCH  15  16
ENDBRANCH  14  15
ENDBRANCH   2  14
BRANCH   3  22
HETATM   22  C   UNL     1      42.776 -16.147   3.152  1.00  0.00     0.045 A 
HETATM   23  C   UNL     1      41.397 -16.232   2.906  1.00  0.00     0.082 A 
HETATM   24  C   UNL     1      40.898 -17.060   1.895  1.00  0.00     0.038 A 
HETATM   25  C   UNL     1      41.773 -17.845   1.148  1.00  0.00     0.003 A 
HETATM   26  C   UNL     1      43.141 -17.802   1.408  1.00  0.00     0.001 A 
HETATM   27  C   UNL     1      43.640 -16.962   2.407  1.00  0.00     0.018 A 
BRANCH  23  28
HETATM   28  O   UNL     1      40.517 -15.433   3.592  1.00  0.00    -0.355 OA
HETATM   29  C   UNL     1      39.628 -14.786   2.679  1.00  0.00     0.210 C 
ENDBRANCH  23  28
ENDBRANCH   3  22
TORSDOF 9
ENDMDL
MODEL 4
REMARK VINA RESULT:      -7.8      3.520      6.728
REMARK  9 active torsions:
REMARK  status: ('A' for Active; 'I' for Inactive)
REMARK    1  A    between atoms: C_2  and  N_3 
REMARK       I    between atoms: N_3  and  C_4 
REMARK    2  A    between atoms: C_4  and  C_5 
REMARK    3  A    between atoms: C_5  and  S_6 
REMARK    4  A    between atoms: S_6  and  C_7 
REMARK    5  A    between atoms: N_8  and  C_9 
REMARK    6  A    between atoms: C_9  and  C_10 
REMARK    7  A    between atoms: C_10  and  C_11 
REMARK    8  A    between atoms: C_17  and  C_18 
REMARK    9  A    between atoms: C_19  and  O_20 
ROOT
HETATM    1  C   UNL     1      43.454 -16.090   6.918  1.00  0.00     0.192 A 
HETATM    2  N   UNL     1      42.585 -15.881   5.880  1.00  0.00    -0.307 N 
HETATM    3  C   UNL     1      42.849 -14.598   5.434  1.00  0.00     0.167 A 
HETATM    4  N   UNL     1      43.869 -14.116   6.127  1.00  0.00    -0.128 NA
HETATM    5  N   UNL     1      44.252 -15.055   7.046  1.00  0.00    -0.122 NA
ENDROOT
BRANCH   1   6
HETATM    6  S   UNL     1      43.456 -17.488   7.932  1.00  0.00    -0.081 SA
BRANCH   6   7
HETATM    7  C   UNL     1      44.844 -18.435   7.249  1.00  0.00     0.185 C 
BRANCH   7   8
HETATM    8  C   UNL     1      44.361 -19.588   6.384  1.00  0.00     0.227 C 
HETATM    9  N   UNL     1      45.020 -19.705   5.177  1.00  0.00    -0.361 N 
HETATM   10  H   UNL     1      45.956 -19.295   5.132  1.00  0.00     0.162 HD
HETATM   11  O   UNL     1      43.443 -20.330   6.729  1.00  0.00    -0.273 OA
BRANCH   9  12
HETATM   12  C   UNL     1      44.733 -20.770   4.242  1.00  0.00     0.118 C 
HETATM   13  C   UNL     1      44.598 -20.255   2.821  1.00  0.00     0.026 C 
ENDBRANCH   9  12
ENDBRANCH   7   8
ENDBRANCH   6   7
ENDBRANCH   1   6
BRANCH   2  14
HETATM   14  C   UNL     1      41.591 -16.796   5.355  1.00  0.00     0.137 C 
BRANCH  14  15
HETATM   15  C   UNL     1      42.083 -17.719   4.235  1.00  0.00     0.059 C 
BRANCH  15  16
HETATM   16  C   UNL     1      41.843 -17.178   2.849  1.00  0.00    -0.057 A 
HETATM   17  C   UNL     1      40.600 -16.635   2.500  1.00  0.00     0.007 A 
HETATM   18  C   UNL     1      40.386 -16.128   1.216  1.00  0.00     0.001 A 
HETATM   19  C   UNL     1      41.408 -16.164   0.271  1.00  0.00     0.000 A 
HETATM   20  C   UNL     1      42.646 -16.710   0.605  1.00  0.00     0.001 A 
HETATM   21  C   UNL     1      42.863 -17.214   1.888  1.00  0.00     0.007 A 
ENDBRANCH  15  16
ENDBRANCH  14  15
ENDBRANCH   2  14
BRANCH   3  22
HETATM   22  C   UNL     1      42.151 -13.892   4.362  1.00  0.00     0.045 A 
HETATM   23  C   UNL     1      40.824 -13.462   4.522  1.00  0.00     0.082 A 
HETATM   24  C   UNL     1      40.174 -12.751   3.509  1.00  0.00     0.038 A 
HETATM   25  C   UNL     1      40.829 -12.500   2.307  1.00  0.00     0.003 A 
HETATM   26  C   UNL     1      42.133 -12.955   2.118  1.00  0.00     0.001 A 
HETATM   27  C   UNL     1      42.789 -13.651   3.137  1.00  0.00     0.018 A 
BRANCH  23  28
HETATM   28  O   UNL     1      40.171 -13.651   5.713  1.00  0.00    -0.355 OA
HETATM   29  C   UNL     1      39.641 -12.411   6.185  1.00  0.00     0.210 C 
ENDBRANCH  23  28
ENDBRANCH   3  22
TORSDOF 9
ENDMDL
MODEL 5
REMARK VINA RESULT:      -7.6      2.061      4.732
REMARK  9 active torsions:
REMARK  status: ('A' for Active; 'I' for Inactive)
REMARK    1  A    between atoms: C_2  and  N_3 
REMARK       I    between atoms: N_3  and  C_4 
REMARK    2  A    between atoms: C_4  and  C_5 
REMARK    3  A    between atoms: C_5  and  S_6 
REMARK    4  A    between atoms: S_6  and  C_7 
REMARK    5  A    between atoms: N_8  and  C_9 
REMARK    6  A    between atoms: C_9  and  C_10 
REMARK    7  A    between atoms: C_10  and  C_11 
REMARK    8  A    between atoms: C_17  and  C_18 
REMARK    9  A    between atoms: C_19  and  O_20 
ROOT
HETATM    1  C   UNL     1      41.924 -16.355   1.513  1.00  0.00     0.192 A 
HETATM    2  N   UNL     1      42.068 -17.180   2.598  1.00  0.00    -0.307 N 
HETATM    3  C   UNL     1      43.297 -17.794   2.430  1.00  0.00     0.167 A 
HETATM    4  N   UNL     1      43.868 -17.297   1.344  1.00  0.00    -0.128 NA
HETATM    5  N   UNL     1      43.013 -16.390   0.780  1.00  0.00    -0.122 NA
ENDROOT
BRANCH   1   6
HETATM    6  S   UNL     1      40.498 -15.452   1.148  1.00  0.00    -0.081 SA
BRANCH   6   7
HETATM    7  C   UNL     1      40.986 -13.779   1.651  1.00  0.00     0.185 C 
BRANCH   7   8
HETATM    8  C   UNL     1      41.797 -13.084   0.568  1.00  0.00     0.227 C 
HETATM    9  N   UNL     1      41.651 -13.634  -0.690  1.00  0.00    -0.361 N 
HETATM   10  H   UNL     1      40.790 -14.161  -0.854  1.00  0.00     0.162 HD
HETATM   11  O   UNL     1      42.537 -12.133   0.809  1.00  0.00    -0.273 OA
BRANCH   9  12
HETATM   12  C   UNL     1      42.305 -13.080  -1.853  1.00  0.00     0.118 C 
HETATM   13  C   UNL     1      41.776 -13.683  -3.142  1.00  0.00     0.026 C 
ENDBRANCH   9  12
ENDBRANCH   7   8
ENDBRANCH   6   7
ENDBRANCH   1   6
BRANCH   2  14
HETATM   14  C   UNL     1      41.138 -17.381   3.691  1.00  0.00     0.137 C 
BRANCH  14  15
HETATM   15  C   UNL     1      41.015 -16.204   4.665  1.00  0.00     0.059 C 
BRANCH  15  16
HETATM   16  C   UNL     1      42.050 -16.209   5.761  1.00  0.00    -0.057 A 
HETATM   17  C   UNL     1      41.977 -17.136   6.808  1.00  0.00     0.007 A 
HETATM   18  C   UNL     1      42.942 -17.140   7.817  1.00  0.00     0.001 A 
HETATM   19  C   UNL     1      43.984 -16.216   7.791  1.00  0.00     0.000 A 
HETATM   20  C   UNL     1      44.061 -15.283   6.758  1.00  0.00     0.001 A 
HETATM   21  C   UNL     1      43.099 -15.279   5.748  1.00  0.00     0.007 A 
ENDBRANCH  15  16
ENDBRANCH  14  15
ENDBRANCH   2  14
BRANCH   3  22
HETATM   22  C   UNL     1      43.890 -18.802   3.307  1.00  0.00     0.045 A 
HETATM   23  C   UNL     1      43.963 -20.148   2.918  1.00  0.00     0.082 A 
HETATM   24  C   UNL     1      44.568 -21.101   3.743  1.00  0.00     0.038 A 
HETATM   25  C   UNL     1      45.066 -20.724   4.988  1.00  0.00     0.003 A 
HETATM   26  C   UNL     1      44.965 -19.398   5.405  1.00  0.00     0.001 A 
HETATM   27  C   UNL     1      44.375 -18.443   4.573  1.00  0.00     0.018 A 
BRANCH  23  28
HETATM   28  O   UNL     1      43.526 -20.539   1.678  1.00  0.00    -0.355 OA
HETATM   29  C   UNL     1      43.952 -21.875   1.405  1.00  0.00     0.210 C 
ENDBRANCH  23  28
ENDBRANCH   3  22
TORSDOF 9
ENDMDL
MODEL 6
REMARK VINA RESULT:      -7.5      3.242      7.185
REMARK  9 active torsions:
REMARK  status: ('A' for Active; 'I' for Inactive)
REMARK    1  A    between atoms: C_2  and  N_3 
REMARK       I    between atoms: N_3  and  C_4 
REMARK    2  A    between atoms: C_4  and  C_5 
REMARK    3  A    between atoms: C_5  and  S_6 
REMARK    4  A    between atoms: S_6  and  C_7 
REMARK    5  A    between atoms: N_8  and  C_9 
REMARK    6  A    between atoms: C_9  and  C_10 
REMARK    7  A    between atoms: C_10  and  C_11 
REMARK    8  A    between atoms: C_17  and  C_18 
REMARK    9  A    between atoms: C_19  and  O_20 
ROOT
HETATM    1  C   UNL     1      43.053 -14.163   5.848  1.00  0.00     0.192 A 
HETATM    2  N   UNL     1      42.658 -14.701   4.651  1.00  0.00    -0.307 N 
HETATM    3  C   UNL     1      41.640 -13.879   4.199  1.00  0.00     0.167 A 
HETATM    4  N   UNL     1      41.503 -12.876   5.052  1.00  0.00    -0.128 NA
HETATM    5  N   UNL     1      42.395 -13.050   6.075  1.00  0.00    -0.122 NA
ENDROOT
BRANCH   1   6
HETATM    6  S   UNL     1      44.207 -14.880   6.914  1.00  0.00    -0.081 SA
BRANCH   6   7
HETATM    7  C   UNL     1      45.567 -13.683   6.840  1.00  0.00     0.185 C 
BRANCH   7   8
HETATM    8  C   UNL     1      45.527 -12.718   8.014  1.00  0.00     0.227 C 
HETATM    9  N   UNL     1      44.304 -12.652   8.651  1.00  0.00    -0.361 N 
HETATM   10  H   UNL     1      43.696 -13.468   8.546  1.00  0.00     0.162 HD
HETATM   11  O   UNL     1      46.498 -12.040   8.342  1.00  0.00    -0.273 OA
BRANCH   9  12
HETATM   12  C   UNL     1      44.086 -11.827   9.818  1.00  0.00     0.118 C 
HETATM   13  C   UNL     1      44.360 -12.583  11.106  1.00  0.00     0.026 C 
ENDBRANCH   9  12
ENDBRANCH   7   8
ENDBRANCH   6   7
ENDBRANCH   1   6
BRANCH   2  14
HETATM   14  C   UNL     1      43.180 -15.881   3.991  1.00  0.00     0.137 C 
BRANCH  14  15
HETATM   15  C   UNL     1      42.562 -17.207   4.447  1.00  0.00     0.059 C 
BRANCH  15  16
HETATM   16  C   UNL     1      43.217 -18.424   3.843  1.00  0.00    -0.057 A 
HETATM   17  C   UNL     1      42.922 -18.817   2.532  1.00  0.00     0.007 A 
HETATM   18  C   UNL     1      43.537 -19.940   1.976  1.00  0.00     0.001 A 
HETATM   19  C   UNL     1      44.447 -20.682   2.725  1.00  0.00     0.000 A 
HETATM   20  C   UNL     1      44.741 -20.305   4.034  1.00  0.00     0.001 A 
HETATM   21  C   UNL     1      44.130 -19.181   4.591  1.00  0.00     0.007 A 
ENDBRANCH  15  16
ENDBRANCH  14  15
ENDBRANCH   2  14
BRANCH   3  22
HETATM   22  C   UNL     1      40.859 -14.059   2.978  1.00  0.00     0.045 A 
HETATM   23  C   UNL     1      41.200 -13.387   1.794  1.00  0.00     0.082 A 
HETATM   24  C   UNL     1      40.474 -13.593   0.617  1.00  0.00     0.038 A 
HETATM   25  C   UNL     1      39.370 -14.442   0.623  1.00  0.00     0.003 A 
HETATM   26  C   UNL     1      38.994 -15.086   1.800  1.00  0.00     0.001 A 
HETATM   27  C   UNL     1      39.731 -14.892   2.972  1.00  0.00     0.018 A 
BRANCH  23  28
HETATM   28  O   UNL     1      42.311 -12.584   1.746  1.00  0.00    -0.355 OA
HETATM   29  C   UNL     1      42.260 -11.743   0.591  1.00  0.00     0.210 C 
ENDBRANCH  23  28
ENDBRANCH   3  22
TORSDOF 9
ENDMDL
MODEL 7
REMARK VINA RESULT:      -7.5      2.340      6.672
REMARK  9 active torsions:
REMARK  status: ('A' for Active; 'I' for Inactive)
REMARK    1  A    between atoms: C_2  and  N_3 
REMARK       I    between atoms: N_3  and  C_4 
REMARK    2  A    between atoms: C_4  and  C_5 
REMARK    3  A    between atoms: C_5  and  S_6 
REMARK    4  A    between atoms: S_6  and  C_7 
REMARK    5  A    between atoms: N_8  and  C_9 
REMARK    6  A    between atoms: C_9  and  C_10 
REMARK    7  A    between atoms: C_10  and  C_11 
REMARK    8  A    between atoms: C_17  and  C_18 
REMARK    9  A    between atoms: C_19  and  O_20 
ROOT
HETATM    1  C   UNL     1      41.269 -15.598   3.548  1.00  0.00     0.192 A 
HETATM    2  N   UNL     1      42.026 -16.442   2.779  1.00  0.00    -0.307 N 
HETATM    3  C   UNL     1      42.255 -17.553   3.573  1.00  0.00     0.167 A 
HETATM    4  N   UNL     1      41.602 -17.393   4.713  1.00  0.00    -0.128 NA
HETATM    5  N   UNL     1      40.977 -16.177   4.690  1.00  0.00    -0.122 NA
ENDROOT
BRANCH   1   6
HETATM    6  S   UNL     1      40.815 -13.995   3.092  1.00  0.00    -0.081 SA
BRANCH   6   7
HETATM    7  C   UNL     1      41.509 -13.017   4.452  1.00  0.00     0.185 C 
BRANCH   7   8
HETATM    8  C   UNL     1      42.885 -13.521   4.856  1.00  0.00     0.227 C 
HETATM    9  N   UNL     1      42.956 -14.000   6.149  1.00  0.00    -0.361 N 
HETATM   10  H   UNL     1      42.075 -14.316   6.561  1.00  0.00     0.162 HD
HETATM   11  O   UNL     1      43.852 -13.476   4.098  1.00  0.00    -0.273 OA
BRANCH   9  12
HETATM   12  C   UNL     1      44.168 -14.565   6.697  1.00  0.00     0.118 C 
HETATM   13  C   UNL     1      43.900 -15.847   7.464  1.00  0.00     0.026 C 
ENDBRANCH   9  12
ENDBRANCH   7   8
ENDBRANCH   6   7
ENDBRANCH   1   6
BRANCH   2  14
HETATM   14  C   UNL     1      42.501 -16.228   1.426  1.00  0.00     0.137 C 
BRANCH  14  15
HETATM   15  C   UNL     1      41.497 -16.578   0.323  1.00  0.00     0.059 C 
BRANCH  15  16
HETATM   16  C   UNL     1      41.407 -15.542  -0.770  1.00  0.00    -0.057 A 
HETATM   17  C   UNL     1      40.977 -15.895  -2.055  1.00  0.00     0.007 A 
HETATM   18  C   UNL     1      40.889 -14.931  -3.060  1.00  0.00     0.001 A 
HETATM   19  C   UNL     1      41.234 -13.608  -2.793  1.00  0.00     0.000 A 
HETATM   20  C   UNL     1      41.672 -13.248  -1.520  1.00  0.00     0.001 A 
HETATM   21  C   UNL     1      41.758 -14.210  -0.513  1.00  0.00     0.007 A 
ENDBRANCH  15  16
ENDBRANCH  14  15
ENDBRANCH   2  14
BRANCH   3  22
HETATM   22  C   UNL     1      43.056 -18.722   3.217  1.00  0.00     0.045 A 
HETATM   23  C   UNL     1      44.185 -19.084   3.967  1.00  0.00     0.082 A 
HETATM   24  C   UNL     1      44.924 -20.227   3.647  1.00  0.00     0.038 A 
HETATM   25  C   UNL     1      44.566 -20.997   2.544  1.00  0.00     0.003 A 
HETATM   26  C   UNL     1      43.470 -20.629   1.764  1.00  0.00     0.001 A 
HETATM   27  C   UNL     1      42.723 -19.495   2.095  1.00  0.00     0.018 A 
BRANCH  23  28
HETATM   28  O   UNL     1      44.531 -18.373   5.089  1.00  0.00    -0.355 OA
HETATM   29  C   UNL     1      44.436 -19.205   6.247  1.00  0.00     0.210 C 
ENDBRANCH  23  28
ENDBRANCH   3  22
TORSDOF 9
ENDMDL
MODEL 8
REMARK VINA RESULT:      -7.5      1.861      6.830
REMARK  9 active torsions:
REMARK  status: ('A' for Active; 'I' for Inactive)
REMARK    1  A    between atoms: C_2  and  N_3 
REMARK       I    between atoms: N_3  and  C_4 
REMARK    2  A    between atoms: C_4  and  C_5 
REMARK    3  A    between atoms: C_5  and  S_6 
REMARK    4  A    between atoms: S_6  and  C_7 
REMARK    5  A    between atoms: N_8  and  C_9 
REMARK    6  A    between atoms: C_9  and  C_10 
REMARK    7  A    between atoms: C_10  and  C_11 
REMARK    8  A    between atoms: C_17  and  C_18 
REMARK    9  A    between atoms: C_19  and  O_20 
ROOT
HETATM    1  C   UNL     1      40.918 -15.384   3.121  1.00  0.00     0.192 A 
HETATM    2  N   UNL     1      41.614 -15.463   1.943  1.00  0.00    -0.307 N 
HETATM    3  C   UNL     1      40.814 -14.835   1.004  1.00  0.00     0.167 A 
HETATM    4  N   UNL     1      39.747 -14.351   1.620  1.00  0.00    -0.128 NA
HETATM    5  N   UNL     1      39.821 -14.686   2.944  1.00  0.00    -0.122 NA
ENDROOT
BRANCH   1   6
HETATM    6  S   UNL     1      41.400 -16.139   4.598  1.00  0.00    -0.081 SA
BRANCH   6   7
HETATM    7  C   UNL     1      42.714 -15.026   5.167  1.00  0.00     0.185 C 
BRANCH   7   8
HETATM    8  C   UNL     1      43.384 -15.552   6.427  1.00  0.00     0.227 C 
HETATM    9  N   UNL     1      42.737 -16.623   7.008  1.00  0.00    -0.361 N 
HETATM   10  H   UNL     1      42.140 -17.178   6.391  1.00  0.00     0.162 HD
HETATM   11  O   UNL     1      44.400 -15.041   6.893  1.00  0.00    -0.273 OA
BRANCH   9  12
HETATM   12  C   UNL     1      43.250 -17.288   8.184  1.00  0.00     0.118 C 
HETATM   13  C   UNL     1      44.076 -18.511   7.829  1.00  0.00     0.026 C 
ENDBRANCH   9  12
ENDBRANCH   7   8
ENDBRANCH   6   7
ENDBRANCH   1   6
BRANCH   2  14
HETATM   14  C   UNL     1      42.907 -16.076   1.713  1.00  0.00     0.137 C 
BRANCH  14  15
HETATM   15  C   UNL     1      42.859 -17.514   1.184  1.00  0.00     0.059 C 
BRANCH  15  16
HETATM   16  C   UNL     1      43.470 -18.528   2.118  1.00  0.00    -0.057 A 
HETATM   17  C   UNL     1      43.926 -18.146   3.386  1.00  0.00     0.007 A 
HETATM   18  C   UNL     1      44.484 -19.090   4.250  1.00  0.00     0.001 A 
HETATM   19  C   UNL     1      44.596 -20.421   3.853  1.00  0.00     0.000 A 
HETATM   20  C   UNL     1      44.153 -20.810   2.590  1.00  0.00     0.001 A 
HETATM   21  C   UNL     1      43.592 -19.868   1.727  1.00  0.00     0.007 A 
ENDBRANCH  15  16
ENDBRANCH  14  15
ENDBRANCH   2  14
BRANCH   3  22
HETATM   22  C   UNL     1      41.099 -14.695  -0.422  1.00  0.00     0.045 A 
HETATM   23  C   UNL     1      41.720 -13.543  -0.928  1.00  0.00     0.082 A 
HETATM   24  C   UNL     1      42.028 -13.432  -2.288  1.00  0.00     0.038 A 
HETATM   25  C   UNL     1      41.676 -14.455  -3.164  1.00  0.00     0.003 A 
HETATM   26  C   UNL     1      41.022 -15.589  -2.684  1.00  0.00     0.001 A 
HETATM   27  C   UNL     1      40.731 -15.706  -1.322  1.00  0.00     0.018 A 
BRANCH  23  28
HETATM   28  O   UNL     1      42.123 -12.541  -0.082  1.00  0.00    -0.355 OA
HETATM   29  C   UNL     1      42.580 -11.416  -0.835  1.00  0.00     0.210 C 
ENDBRANCH  23  28
ENDBRANCH   3  22
TORSDOF 9
ENDMDL
MODEL 9
REMARK VINA RESULT:      -7.5      3.543      7.526
REMARK  9 active torsions:
REMARK  status: ('A' for Active; 'I' for Inactive)
REMARK    1  A    between atoms: C_2  and  N_3 
REMARK       I    between atoms: N_3  and  C_4 
REMARK    2  A    between atoms: C_4  and  C_5 
REMARK    3  A    between atoms: C_5  and  S_6 
REMARK    4  A    between atoms: S_6  and  C_7 
REMARK    5  A    between atoms: N_8  and  C_9 
REMARK    6  A    between atoms: C_9  and  C_10 
REMARK    7  A    between atoms: C_10  and  C_11 
REMARK    8  A    between atoms: C_17  and  C_18 
REMARK    9  A    between atoms: C_19  and  O_20 
ROOT
HETATM    1  C   UNL     1      41.838 -13.292   5.870  1.00  0.00     0.192 A 
HETATM    2  N   UNL     1      41.622 -14.448   5.167  1.00  0.00    -0.307 N 
HETATM    3  C   UNL     1      42.876 -15.004   4.983  1.00  0.00     0.167 A 
HETATM    4  N   UNL     1      43.764 -14.249   5.611  1.00  0.00    -0.128 NA
HETATM    5  N   UNL     1      43.111 -13.187   6.174  1.00  0.00    -0.122 NA
ENDROOT
BRANCH   1   6
HETATM    6  S   UNL     1      40.618 -12.129   6.249  1.00  0.00    -0.081 SA
BRANCH   6   7
HETATM    7  C   UNL     1      41.616 -10.698   6.743  1.00  0.00     0.185 C 
BRANCH   7   8
HETATM    8  C   UNL     1      41.822 -10.654   8.248  1.00  0.00     0.227 C 
HETATM    9  N   UNL     1      42.978 -11.273   8.680  1.00  0.00    -0.361 N 
HETATM   10  H   UNL     1      43.729 -11.357   7.991  1.00  0.00     0.162 HD
HETATM   11  O   UNL     1      41.009 -10.132   9.008  1.00  0.00    -0.273 OA
BRANCH   9  12
HETATM   12  C   UNL     1      43.369 -11.291  10.072  1.00  0.00     0.118 C 
HETATM   13  C   UNL     1      44.705 -10.607  10.294  1.00  0.00     0.026 C 
ENDBRANCH   9  12
ENDBRANCH   7   8
ENDBRANCH   6   7
ENDBRANCH   1   6
BRANCH   2  14
HETATM   14  C   UNL     1      40.358 -14.982   4.701  1.00  0.00     0.137 C 
BRANCH  14  15
HETATM   15  C   UNL     1      39.865 -14.417   3.365  1.00  0.00     0.059 C 
BRANCH  15  16
HETATM   16  C   UNL     1      40.393 -15.154   2.160  1.00  0.00    -0.057 A 
HETATM   17  C   UNL     1      41.016 -14.460   1.116  1.00  0.00     0.007 A 
HETATM   18  C   UNL     1      41.510 -15.148   0.006  1.00  0.00     0.001 A 
HETATM   19  C   UNL     1      41.379 -16.533  -0.073  1.00  0.00     0.000 A 
HETATM   20  C   UNL     1      40.752 -17.232   0.956  1.00  0.00     0.001 A 
HETATM   21  C   UNL     1      40.261 -16.546   2.068  1.00  0.00     0.007 A 
ENDBRANCH  15  16
ENDBRANCH  14  15
ENDBRANCH   2  14
BRANCH   3  22
HETATM   22  C   UNL     1      43.181 -16.229   4.247  1.00  0.00     0.045 A 
HETATM   23  C   UNL     1      42.937 -17.491   4.809  1.00  0.00     0.082 A 
HETATM   24  C   UNL     1      43.193 -18.660   4.086  1.00  0.00     0.038 A 
HETATM   25  C   UNL     1      43.739 -18.579   2.807  1.00  0.00     0.003 A 
HETATM   26  C   UNL     1      44.024 -17.333   2.251  1.00  0.00     0.001 A 
HETATM   27  C   UNL     1      43.753 -16.165   2.968  1.00  0.00     0.018 A 
BRANCH  23  28
HETATM   28  O   UNL     1      42.354 -17.601   6.046  1.00  0.00    -0.355 OA
HETATM   29  C   UNL     1      43.268 -18.198   6.968  1.00  0.00     0.210 C 
ENDBRANCH  23  28
ENDBRANCH   3  22
TORSDOF 9
ENDMDL
MODEL 10
REMARK VINA RESULT:      -7.3      2.360      7.201
REMARK  9 active torsions:
REMARK  status: ('A' for Active; 'I' for Inactive)
REMARK    1  A    between atoms: C_2  and  N_3 
REMARK       I    between atoms: N_3  and  C_4 
REMARK    2  A    between atoms: C_4  and  C_5 
REMARK    3  A    between atoms: C_5  and  S_6 
REMARK    4  A    between atoms: S_6  and  C_7 
REMARK    5  A    between atoms: N_8  and  C_9 
REMARK    6  A    between atoms: C_9  and  C_10 
REMARK    7  A    between atoms: C_10  and  C_11 
REMARK    8  A    between atoms: C_17  and  C_18 
REMARK    9  A    between atoms: C_19  and  O_20 
ROOT
HETATM    1  C   UNL     1      41.928 -13.968   3.215  1.00  0.00     0.192 A 
HETATM    2  N   UNL     1      41.097 -14.552   2.294  1.00  0.00    -0.307 N 
HETATM    3  C   UNL     1      41.401 -13.942   1.089  1.00  0.00     0.167 A 
HETATM    4  N   UNL     1      42.406 -13.104   1.287  1.00  0.00    -0.128 NA
HETATM    5  N   UNL     1      42.741 -13.131   2.613  1.00  0.00    -0.122 NA
ENDROOT
BRANCH   1   6
HETATM    6  S   UNL     1      41.869 -14.261   4.916  1.00  0.00    -0.081 SA
BRANCH   6   7
HETATM    7  C   UNL     1      43.599 -13.997   5.393  1.00  0.00     0.185 C 
BRANCH   7   8
HETATM    8  C   UNL     1      43.955 -14.772   6.652  1.00  0.00     0.227 C 
HETATM    9  N   UNL     1      43.139 -15.858   6.899  1.00  0.00    -0.361 N 
HETATM   10  H   UNL     1      42.657 -16.253   6.088  1.00  0.00     0.162 HD
HETATM   11  O   UNL     1      44.875 -14.436   7.393  1.00  0.00    -0.273 OA
BRANCH   9  12
HETATM   12  C   UNL     1      43.352 -16.743   8.021  1.00  0.00     0.118 C 
HETATM   13  C   UNL     1      44.081 -18.011   7.614  1.00  0.00     0.026 C 
ENDBRANCH   9  12
ENDBRANCH   7   8
ENDBRANCH   6   7
ENDBRANCH   1   6
BRANCH   2  14
HETATM   14  C   UNL     1      40.103 -15.582   2.520  1.00  0.00     0.137 C 
BRANCH  14  15
HETATM   15  C   UNL     1      40.424 -16.944   1.895  1.00  0.00     0.059 C 
BRANCH  15  16
HETATM   16  C   UNL     1      41.712 -17.552   2.388  1.00  0.00    -0.057 A 
HETATM   17  C   UNL     1      42.741 -17.867   1.492  1.00  0.00     0.007 A 
HETATM   18  C   UNL     1      43.935 -18.424   1.954  1.00  0.00     0.001 A 
HETATM   19  C   UNL     1      44.108 -18.676   3.313  1.00  0.00     0.000 A 
HETATM   20  C   UNL     1      43.087 -18.375   4.212  1.00  0.00     0.001 A 
HETATM   21  C   UNL     1      41.894 -17.816   3.752  1.00  0.00     0.007 A 
ENDBRANCH  15  16
ENDBRANCH  14  15
ENDBRANCH   2  14
BRANCH   3  22
HETATM   22  C   UNL     1      40.752 -14.191  -0.196  1.00  0.00     0.045 A 
HETATM   23  C   UNL     1      39.540 -13.567  -0.529  1.00  0.00     0.082 A 
HETATM   24  C   UNL     1      38.944 -13.776  -1.775  1.00  0.00     0.038 A 
HETATM   25  C   UNL     1      39.532 -14.649  -2.688  1.00  0.00     0.003 A 
HETATM   26  C   UNL     1      40.715 -15.307  -2.357  1.00  0.00     0.001 A 
HETATM   27  C   UNL     1      41.319 -15.084  -1.117  1.00  0.00     0.018 A 
BRANCH  23  28
HETATM   28  O   UNL     1      38.964 -12.664   0.330  1.00  0.00    -0.355 OA
HETATM   29  C   UNL     1      37.955 -11.914  -0.350  1.00  0.00     0.210 C 
ENDBRANCH  23  28
ENDBRANCH   3  22
TORSDOF 9
ENDMDL
