MODEL 1
REMARK VINA RESULT:      -8.3      0.000      0.000
REMARK  9 active torsions:
REMARK  status: ('A' for Active; 'I' for Inactive)
REMARK    1  A    between atoms: C_2  and  O_3 
REMARK    2  A    between atoms: O_3  and  C_4 
REMARK    3  A    between atoms: C_5  and  O_6 
REMARK    4  A    between atoms: O_6  and  C_7 
REMARK    5  A    between atoms: C_7  and  C_8 
REMARK       I    between atoms: C_8  and  N_9 
REMARK    6  A    between atoms: N_9  and  C_10 
REMARK    7  A    between atoms: C_17  and  C_18 
REMARK    8  A    between atoms: C_18  and  N_19 
REMARK    9  A    between atoms: N_19  and  C_20 
ROOT
HETATM    1  C   UNL     1      42.304 -15.325   5.399  1.00  0.00     0.102 A 
HETATM    2  C   UNL     1      43.189 -14.246   5.240  1.00  0.00     0.102 A 
HETATM    3  C   UNL     1      43.724 -13.999   3.973  1.00  0.00     0.040 A 
HETATM    4  C   UNL     1      43.407 -14.829   2.892  1.00  0.00     0.012 A 
HETATM    5  C   UNL     1      42.559 -15.931   3.057  1.00  0.00    -0.038 A 
HETATM    6  C   UNL     1      42.016 -16.174   4.323  1.00  0.00     0.048 A 
ENDROOT
BRANCH   5   7
HETATM    7  C   UNL     1      42.272 -16.859   1.898  1.00  0.00     0.158 C 
BRANCH   7   8
HETATM    8  N   UNL     1      43.498 -17.557   1.536  1.00  0.00    -0.386 N 
HETATM    9  H   UNL     1      44.292 -16.928   1.450  1.00  0.00     0.160 HD
BRANCH   8  10
HETATM   10  C   UNL     1      43.841 -18.752   2.173  1.00  0.00     0.031 A 
HETATM   11  C   UNL     1      44.050 -18.866   3.552  1.00  0.00     0.068 A 
HETATM   12  C   UNL     1      44.311 -20.109   4.139  1.00  0.00     0.104 A 
HETATM   13  C   UNL     1      44.364 -21.261   3.353  1.00  0.00     0.102 A 
HETATM   14  O   UNL     1      44.508 -20.118   5.498  1.00  0.00    -0.346 OA
HETATM   15  O   UNL     1      44.644 -22.506   3.857  1.00  0.00    -0.346 OA
HETATM   16  C   UNL     1      44.103 -21.177   1.992  1.00  0.00     0.042 A 
HETATM   17  C   UNL     1      45.204 -22.421   5.171  1.00  0.00     0.202 C 
HETATM   18  C   UNL     1      44.418 -21.444   6.029  1.00  0.00     0.202 C 
HETATM   19  C   UNL     1      43.833 -19.934   1.414  1.00  0.00     0.032 A 
ENDBRANCH   8  10
ENDBRANCH   7   8
ENDBRANCH   5   7
BRANCH   1  20
HETATM   20  O   UNL     1      41.741 -15.700   6.593  1.00  0.00    -0.349 OA
BRANCH  20  21
HETATM   21  C   UNL     1      41.940 -17.068   6.968  1.00  0.00     0.171 C 
HETATM   22  C   UNL     1      43.172 -17.271   7.836  1.00  0.00     0.034 C 
ENDBRANCH  20  21
ENDBRANCH   1  20
BRANCH   2  23
HETATM   23  O   UNL     1      43.525 -13.556   6.374  1.00  0.00    -0.339 OA
BRANCH  23  24
HETATM   24  C   UNL     1      44.682 -13.933   7.107  1.00  0.00     0.278 C 
BRANCH  24  25
HETATM   25  C   UNL     1      45.005 -13.067   8.333  1.00  0.00     0.242 C 
HETATM   26  N   UNL     1      43.900 -12.529   8.954  1.00  0.00    -0.351 N 
HETATM   27  H   UNL     1      43.017 -12.664   8.469  1.00  0.00     0.163 HD
HETATM   28  O   UNL     1      46.163 -12.882   8.695  1.00  0.00    -0.271 OA
BRANCH  26  29
HETATM   29  C   UNL     1      43.915 -11.609  10.098  1.00  0.00     0.022 C 
HETATM   30  C   UNL     1      45.057 -10.595   9.947  1.00  0.00     0.037 C 
HETATM   31  C   UNL     1      42.576 -10.851  10.112  1.00  0.00     0.037 C 
HETATM   32  C   UNL     1      44.050 -12.366  11.429  1.00  0.00     0.037 C 
ENDBRANCH  26  29
ENDBRANCH  24  25
ENDBRANCH  23  24
ENDBRANCH   2  23
TORSDOF 9
ENDMDL
MODEL 2
REMARK VINA RESULT:      -8.0      1.426      1.945
REMARK  9 active torsions:
REMARK  status: ('A' for Active; 'I' for Inactive)
REMARK    1  A    between atoms: C_2  and  O_3 
REMARK    2  A    between atoms: O_3  and  C_4 
REMARK    3  A    between atoms: C_5  and  O_6 
REMARK    4  A    between atoms: O_6  and  C_7 
REMARK    5  A    between atoms: C_7  and  C_8 
REMARK       I    between atoms: C_8  and  N_9 
REMARK    6  A    between atoms: N_9  and  C_10 
REMARK    7  A    between atoms: C_17  and  C_18 
REMARK    8  A    between atoms: C_18  and  N_19 
REMARK    9  A    between atoms: N_19  and  C_20 
ROOT
HETATM    1  C   UNL     1      43.820 -15.739   7.026  1.00  0.00     0.102 A 
HETATM    2  C   UNL     1      44.124 -14.370   7.099  1.00  0.00     0.102 A 
HETATM    3  C   UNL     1      43.909 -13.574   5.970  1.00  0.00     0.040 A 
HETATM    4  C   UNL     1      43.432 -14.139   4.782  1.00  0.00     0.012 A 
HETATM    5  C   UNL     1      43.170 -15.513   4.694  1.00  0.00    -0.038 A 
HETATM    6  C   UNL     1      43.375 -16.307   5.826  1.00  0.00     0.048 A 
ENDROOT
BRANCH   5   7
HETATM    7  C   UNL     1      42.713 -16.124   3.388  1.00  0.00     0.158 C 
BRANCH   7   8
HETATM    8  N   UNL     1      43.850 -16.766   2.743  1.00  0.00    -0.386 N 
HETATM    9  H   UNL     1      44.726 -16.287   2.935  1.00  0.00     0.160 HD
BRANCH   8  10
HETATM   10  C   UNL     1      43.990 -18.155   2.787  1.00  0.00     0.031 A 
HETATM   11  C   UNL     1      44.494 -18.853   3.890  1.00  0.00     0.068 A 
HETATM   12  C   UNL     1      44.531 -20.251   3.901  1.00  0.00     0.104 A 
HETATM   13  C   UNL     1      44.063 -20.976   2.804  1.00  0.00     0.102 A 
HETATM   14  O   UNL     1      45.048 -20.844   5.027  1.00  0.00    -0.346 OA
HETATM   15  O   UNL     1      44.098 -22.345   2.734  1.00  0.00    -0.346 OA
HETATM   16  C   UNL     1      43.508 -20.305   1.723  1.00  0.00     0.042 A 
HETATM   17  C   UNL     1      44.966 -22.896   3.729  1.00  0.00     0.202 C 
HETATM   18  C   UNL     1      44.723 -22.238   5.078  1.00  0.00     0.202 C 
HETATM   19  C   UNL     1      43.463 -18.908   1.723  1.00  0.00     0.032 A 
ENDBRANCH   8  10
ENDBRANCH   7   8
ENDBRANCH   5   7
BRANCH   1  20
HETATM   20  O   UNL     1      44.020 -16.635   8.046  1.00  0.00    -0.349 OA
BRANCH  20  21
HETATM   21  C   UNL     1      43.188 -17.801   8.017  1.00  0.00     0.171 C 
HETATM   22  C   UNL     1      43.980 -19.091   7.872  1.00  0.00     0.034 C 
ENDBRANCH  20  21
ENDBRANCH   1  20
BRANCH   2  23
HETATM   23  O   UNL     1      44.688 -13.927   8.266  1.00  0.00    -0.339 OA
BRANCH  23  24
HETATM   24  C   UNL     1      45.090 -12.570   8.379  1.00  0.00     0.278 C 
BRANCH  24  25
HETATM   25  C   UNL     1      44.075 -11.628   9.044  1.00  0.00     0.242 C 
HETATM   26  N   UNL     1      43.980 -11.771  10.411  1.00  0.00    -0.351 N 
HETATM   27  H   UNL     1      44.494 -12.554  10.805  1.00  0.00     0.163 HD
HETATM   28  O   UNL     1      43.413 -10.835   8.382  1.00  0.00    -0.271 OA
BRANCH  26  29
HETATM   29  C   UNL     1      43.045 -11.058  11.289  1.00  0.00     0.022 C 
HETATM   30  C   UNL     1      41.631 -11.085  10.693  1.00  0.00     0.037 C 
HETATM   31  C   UNL     1      43.026 -11.783  12.647  1.00  0.00     0.037 C 
HETATM   32  C   UNL     1      43.492  -9.607  11.529  1.00  0.00     0.037 C 
ENDBRANCH  26  29
ENDBRANCH  24  25
ENDBRANCH  23  24
ENDBRANCH   2  23
TORSDOF 9
ENDMDL
MODEL 3
REMARK VINA RESULT:      -7.8      2.186      3.090
REMARK  9 active torsions:
REMARK  status: ('A' for Active; 'I' for Inactive)
REMARK    1  A    between atoms: C_2  and  O_3 
REMARK    2  A    between atoms: O_3  and  C_4 
REMARK    3  A    between atoms: C_5  and  O_6 
REMARK    4  A    between atoms: O_6  and  C_7 
REMARK    5  A    between atoms: C_7  and  C_8 
REMARK       I    between atoms: C_8  and  N_9 
REMARK    6  A    between atoms: N_9  and  C_10 
REMARK    7  A    between atoms: C_17  and  C_18 
REMARK    8  A    between atoms: C_18  and  N_19 
REMARK    9  A    between atoms: N_19  and  C_20 
ROOT
HETATM    1  C   UNL     1      42.057 -13.680   5.307  1.00  0.00     0.102 A 
HETATM    2  C   UNL     1      40.768 -13.133   5.216  1.00  0.00     0.102 A 
HETATM    3  C   UNL     1      39.889 -13.644   4.256  1.00  0.00     0.040 A 
HETATM    4  C   UNL     1      40.299 -14.659   3.385  1.00  0.00     0.012 A 
HETATM    5  C   UNL     1      41.600 -15.176   3.446  1.00  0.00    -0.038 A 
HETATM    6  C   UNL     1      42.476 -14.671   4.412  1.00  0.00     0.048 A 
ENDROOT
BRANCH   5   7
HETATM    7  C   UNL     1      42.053 -16.229   2.460  1.00  0.00     0.158 C 
BRANCH   7   8
HETATM    8  N   UNL     1      43.442 -16.571   2.738  1.00  0.00    -0.386 N 
HETATM    9  H   UNL     1      43.894 -15.893   3.347  1.00  0.00     0.160 HD
BRANCH   8  10
HETATM   10  C   UNL     1      43.790 -17.884   3.064  1.00  0.00     0.031 A 
HETATM   11  C   UNL     1      43.962 -18.343   4.375  1.00  0.00     0.068 A 
HETATM   12  C   UNL     1      44.231 -19.690   4.636  1.00  0.00     0.104 A 
HETATM   13  C   UNL     1      44.332 -20.604   3.586  1.00  0.00     0.102 A 
HETATM   14  O   UNL     1      44.388 -20.041   5.954  1.00  0.00    -0.346 OA
HETATM   15  O   UNL     1      44.622 -21.932   3.766  1.00  0.00    -0.346 OA
HETATM   16  C   UNL     1      44.110 -20.180   2.283  1.00  0.00     0.042 A 
HETATM   17  C   UNL     1      45.142 -22.177   5.077  1.00  0.00     0.202 C 
HETATM   18  C   UNL     1      44.309 -21.460   6.128  1.00  0.00     0.202 C 
HETATM   19  C   UNL     1      43.830 -18.835   2.029  1.00  0.00     0.032 A 
ENDBRANCH   8  10
ENDBRANCH   7   8
ENDBRANCH   5   7
BRANCH   1  20
HETATM   20  O   UNL     1      43.027 -13.244   6.176  1.00  0.00    -0.349 OA
BRANCH  20  21
HETATM   21  C   UNL     1      44.106 -14.158   6.407  1.00  0.00     0.171 C 
HETATM   22  C   UNL     1      45.081 -13.669   7.467  1.00  0.00     0.034 C 
ENDBRANCH  20  21
ENDBRANCH   1  20
BRANCH   2  23
HETATM   23  O   UNL     1      40.492 -12.071   6.035  1.00  0.00    -0.339 OA
BRANCH  23  24
HETATM   24  C   UNL     1      39.437 -12.171   6.982  1.00  0.00     0.278 C 
BRANCH  24  25
HETATM   25  C   UNL     1      39.589 -11.305   8.241  1.00  0.00     0.242 C 
HETATM   26  N   UNL     1      40.866 -11.269   8.754  1.00  0.00    -0.351 N 
HETATM   27  H   UNL     1      41.530 -11.906   8.320  1.00  0.00     0.163 HD
HETATM   28  O   UNL     1      38.628 -10.717   8.729  1.00  0.00    -0.271 OA
BRANCH  26  29
HETATM   29  C   UNL     1      41.283 -10.585   9.984  1.00  0.00     0.022 C 
HETATM   30  C   UNL     1      40.509 -11.140  11.187  1.00  0.00     0.037 C 
HETATM   31  C   UNL     1      42.784 -10.856  10.190  1.00  0.00     0.037 C 
HETATM   32  C   UNL     1      41.082  -9.064   9.880  1.00  0.00     0.037 C 
ENDBRANCH  26  29
ENDBRANCH  24  25
ENDBRANCH  23  24
ENDBRANCH   2  23
TORSDOF 9
ENDMDL
MODEL 4
REMARK VINA RESULT:      -7.8      1.718      2.236
REMARK  9 active torsions:
REMARK  status: ('A' for Active; 'I' for Inactive)
REMARK    1  A    between atoms: C_2  and  O_3 
REMARK    2  A    between atoms: O_3  and  C_4 
REMARK    3  A    between atoms: C_5  and  O_6 
REMARK    4  A    between atoms: O_6  and  C_7 
REMARK    5  A    between atoms: C_7  and  C_8 
REMARK       I    between atoms: C_8  and  N_9 
REMARK    6  A    between atoms: N_9  and  C_10 
REMARK    7  A    between atoms: C_17  and  C_18 
REMARK    8  A    between atoms: C_18  and  N_19 
REMARK    9  A    between atoms: N_19  and  C_20 
ROOT
HETATM    1  C   UNL     1      41.264 -13.830   5.195  1.00  0.00     0.102 A 
HETATM    2  C   UNL     1      42.625 -13.493   5.265  1.00  0.00     0.102 A 
HETATM    3  C   UNL     1      43.430 -13.717   4.145  1.00  0.00     0.040 A 
HETATM    4  C   UNL     1      42.895 -14.295   2.988  1.00  0.00     0.012 A 
HETATM    5  C   UNL     1      41.547 -14.672   2.931  1.00  0.00    -0.038 A 
HETATM    6  C   UNL     1      40.740 -14.440   4.049  1.00  0.00     0.048 A 
ENDROOT
BRANCH   5   7
HETATM    7  C   UNL     1      40.993 -15.352   1.699  1.00  0.00     0.158 C 
BRANCH   7   8
HETATM    8  N   UNL     1      40.744 -16.755   2.005  1.00  0.00    -0.386 N 
HETATM    9  H   UNL     1      40.173 -17.211   1.298  1.00  0.00     0.160 HD
BRANCH   8  10
HETATM   10  C   UNL     1      41.787 -17.573   2.447  1.00  0.00     0.031 A 
HETATM   11  C   UNL     1      42.026 -17.870   3.794  1.00  0.00     0.068 A 
HETATM   12  C   UNL     1      43.037 -18.763   4.164  1.00  0.00     0.104 A 
HETATM   13  C   UNL     1      43.827 -19.376   3.190  1.00  0.00     0.102 A 
HETATM   14  O   UNL     1      43.198 -18.986   5.510  1.00  0.00    -0.346 OA
HETATM   15  O   UNL     1      44.853 -20.237   3.482  1.00  0.00    -0.346 OA
HETATM   16  C   UNL     1      43.569 -19.138   1.847  1.00  0.00     0.042 A 
HETATM   17  C   UNL     1      45.228 -20.151   4.861  1.00  0.00     0.202 C 
HETATM   18  C   UNL     1      43.997 -20.148   5.753  1.00  0.00     0.202 C 
HETATM   19  C   UNL     1      42.550 -18.253   1.483  1.00  0.00     0.032 A 
ENDBRANCH   8  10
ENDBRANCH   7   8
ENDBRANCH   5   7
BRANCH   1  20
HETATM   20  O   UNL     1      40.376 -13.699   6.233  1.00  0.00    -0.349 OA
BRANCH  20  21
HETATM   21  C   UNL     1      39.347 -12.719   6.047  1.00  0.00     0.171 C 
HETATM   22  C   UNL     1      39.774 -11.323   6.474  1.00  0.00     0.034 C 
ENDBRANCH  20  21
ENDBRANCH   1  20
BRANCH   2  23
HETATM   23  O   UNL     1      43.082 -13.035   6.472  1.00  0.00    -0.339 OA
BRANCH  23  24
HETATM   24  C   UNL     1      44.279 -13.571   7.017  1.00  0.00     0.278 C 
BRANCH  24  25
HETATM   25  C   UNL     1      44.759 -12.931   8.328  1.00  0.00     0.242 C 
HETATM   26  N   UNL     1      43.756 -12.363   9.082  1.00  0.00    -0.351 N 
HETATM   27  H   UNL     1      42.843 -12.323   8.636  1.00  0.00     0.163 HD
HETATM   28  O   UNL     1      45.945 -12.935   8.642  1.00  0.00    -0.271 OA
BRANCH  26  29
HETATM   29  C   UNL     1      43.934 -11.622  10.337  1.00  0.00     0.022 C 
HETATM   30  C   UNL     1      45.050 -10.580  10.183  1.00  0.00     0.037 C 
HETATM   31  C   UNL     1      42.613 -10.894  10.647  1.00  0.00     0.037 C 
HETATM   32  C   UNL     1      44.247 -12.566  11.509  1.00  0.00     0.037 C 
ENDBRANCH  26  29
ENDBRANCH  24  25
ENDBRANCH  23  24
ENDBRANCH   2  23
TORSDOF 9
ENDMDL
MODEL 5
REMARK VINA RESULT:      -7.7      2.222      3.131
REMARK  9 active torsions:
REMARK  status: ('A' for Active; 'I' for Inactive)
REMARK    1  A    between atoms: C_2  and  O_3 
REMARK    2  A    between atoms: O_3  and  C_4 
REMARK    3  A    between atoms: C_5  and  O_6 
REMARK    4  A    between atoms: O_6  and  C_7 
REMARK    5  A    between atoms: C_7  and  C_8 
REMARK       I    between atoms: C_8  and  N_9 
REMARK    6  A    between atoms: N_9  and  C_10 
REMARK    7  A    between atoms: C_17  and  C_18 
REMARK    8  A    between atoms: C_18  and  N_19 
REMARK    9  A    between atoms: N_19  and  C_20 
ROOT
HETATM    1  C   UNL     1      42.067 -12.918   5.742  1.00  0.00     0.102 A 
HETATM    2  C   UNL     1      41.292 -11.750   5.826  1.00  0.00     0.102 A 
HETATM    3  C   UNL     1      40.178 -11.623   4.991  1.00  0.00     0.040 A 
HETATM    4  C   UNL     1      39.861 -12.627   4.070  1.00  0.00     0.012 A 
HETATM    5  C   UNL     1      40.658 -13.773   3.954  1.00  0.00    -0.038 A 
HETATM    6  C   UNL     1      41.767 -13.905   4.795  1.00  0.00     0.048 A 
ENDROOT
BRANCH   5   7
HETATM    7  C   UNL     1      40.343 -14.824   2.913  1.00  0.00     0.158 C 
BRANCH   7   8
HETATM    8  N   UNL     1      40.198 -16.115   3.573  1.00  0.00    -0.386 N 
HETATM    9  H   UNL     1      39.325 -16.578   3.332  1.00  0.00     0.160 HD
BRANCH   8  10
HETATM   10  C   UNL     1      41.272 -17.007   3.615  1.00  0.00     0.031 A 
HETATM   11  C   UNL     1      41.807 -17.526   4.800  1.00  0.00     0.068 A 
HETATM   12  C   UNL     1      42.830 -18.479   4.770  1.00  0.00     0.104 A 
HETATM   13  C   UNL     1      43.335 -18.931   3.550  1.00  0.00     0.102 A 
HETATM   14  O   UNL     1      43.293 -18.923   5.984  1.00  0.00    -0.346 OA
HETATM   15  O   UNL     1      44.357 -19.841   3.446  1.00  0.00    -0.346 OA
HETATM   16  C   UNL     1      42.780 -18.471   2.364  1.00  0.00     0.042 A 
HETATM   17  C   UNL     1      45.050 -19.988   4.690  1.00  0.00     0.202 C 
HETATM   18  C   UNL     1      44.067 -20.119   5.841  1.00  0.00     0.202 C 
HETATM   19  C   UNL     1      41.750 -17.527   2.401  1.00  0.00     0.032 A 
ENDBRANCH   8  10
ENDBRANCH   7   8
ENDBRANCH   5   7
BRANCH   1  20
HETATM   20  O   UNL     1      43.204 -13.151   6.474  1.00  0.00    -0.349 OA
BRANCH  20  21
HETATM   21  C   UNL     1      44.070 -14.173   5.964  1.00  0.00     0.171 C 
HETATM   22  C   UNL     1      44.285 -15.313   6.947  1.00  0.00     0.034 C 
ENDBRANCH  20  21
ENDBRANCH   1  20
BRANCH   2  23
HETATM   23  O   UNL     1      41.740 -10.776   6.678  1.00  0.00    -0.339 OA
BRANCH  23  24
HETATM   24  C   UNL     1      41.275 -10.750   8.020  1.00  0.00     0.278 C 
BRANCH  24  25
HETATM   25  C   UNL     1      42.364 -10.732   9.102  1.00  0.00     0.242 C 
HETATM   26  N   UNL     1      43.468 -11.502   8.809  1.00  0.00    -0.351 N 
HETATM   27  H   UNL     1      43.387 -12.083   7.978  1.00  0.00     0.163 HD
HETATM   28  O   UNL     1      42.226 -10.084  10.135  1.00  0.00    -0.271 OA
BRANCH  26  29
HETATM   29  C   UNL     1      44.621 -11.727   9.688  1.00  0.00     0.022 C 
HETATM   30  C   UNL     1      44.220 -12.620  10.871  1.00  0.00     0.037 C 
HETATM   31  C   UNL     1      45.707 -12.448   8.868  1.00  0.00     0.037 C 
HETATM   32  C   UNL     1      45.208 -10.402  10.199  1.00  0.00     0.037 C 
ENDBRANCH  26  29
ENDBRANCH  24  25
ENDBRANCH  23  24
ENDBRANCH   2  23
TORSDOF 9
ENDMDL
MODEL 6
REMARK VINA RESULT:      -7.7      4.627      7.682
REMARK  9 active torsions:
REMARK  status: ('A' for Active; 'I' for Inactive)
REMARK    1  A    between atoms: C_2  and  O_3 
REMARK    2  A    between atoms: O_3  and  C_4 
REMARK    3  A    between atoms: C_5  and  O_6 
REMARK    4  A    between atoms: O_6  and  C_7 
REMARK    5  A    between atoms: C_7  and  C_8 
REMARK       I    between atoms: C_8  and  N_9 
REMARK    6  A    between atoms: N_9  and  C_10 
REMARK    7  A    between atoms: C_17  and  C_18 
REMARK    8  A    between atoms: C_18  and  N_19 
REMARK    9  A    between atoms: N_19  and  C_20 
ROOT
HETATM    1  C   UNL     1      42.011 -15.557   3.117  1.00  0.00     0.102 A 
HETATM    2  C   UNL     1      40.906 -15.547   3.983  1.00  0.00     0.102 A 
HETATM    3  C   UNL     1      40.041 -14.449   3.953  1.00  0.00     0.040 A 
HETATM    4  C   UNL     1      40.291 -13.369   3.099  1.00  0.00     0.012 A 
HETATM    5  C   UNL     1      41.417 -13.358   2.266  1.00  0.00    -0.038 A 
HETATM    6  C   UNL     1      42.277 -14.460   2.289  1.00  0.00     0.048 A 
ENDROOT
BRANCH   5   7
HETATM    7  C   UNL     1      41.713 -12.160   1.392  1.00  0.00     0.158 C 
BRANCH   7   8
HETATM    8  N   UNL     1      40.605 -11.966   0.466  1.00  0.00    -0.386 N 
HETATM    9  H   UNL     1      40.487 -10.992   0.199  1.00  0.00     0.160 HD
BRANCH   8  10
HETATM   10  C   UNL     1      40.436 -12.832  -0.618  1.00  0.00     0.031 A 
HETATM   11  C   UNL     1      39.195 -13.336  -1.026  1.00  0.00     0.068 A 
HETATM   12  C   UNL     1      39.084 -14.133  -2.169  1.00  0.00     0.104 A 
HETATM   13  C   UNL     1      40.216 -14.440  -2.927  1.00  0.00     0.102 A 
HETATM   14  O   UNL     1      37.826 -14.584  -2.485  1.00  0.00    -0.346 OA
HETATM   15  O   UNL     1      40.185 -15.239  -4.040  1.00  0.00    -0.346 OA
HETATM   16  C   UNL     1      41.446 -13.904  -2.571  1.00  0.00     0.042 A 
HETATM   17  C   UNL     1      38.962 -15.979  -4.116  1.00  0.00     0.202 C 
HETATM   18  C   UNL     1      37.771 -15.080  -3.827  1.00  0.00     0.202 C 
HETATM   19  C   UNL     1      41.549 -13.099  -1.433  1.00  0.00     0.032 A 
ENDBRANCH   8  10
ENDBRANCH   7   8
ENDBRANCH   5   7
BRANCH   1  20
HETATM   20  O   UNL     1      42.956 -16.552   3.074  1.00  0.00    -0.349 OA
BRANCH  20  21
HETATM   21  C   UNL     1      42.749 -17.558   2.075  1.00  0.00     0.171 C 
HETATM   22  C   UNL     1      43.962 -17.764   1.181  1.00  0.00     0.034 C 
ENDBRANCH  20  21
ENDBRANCH   1  20
BRANCH   2  23
HETATM   23  O   UNL     1      40.802 -16.594   4.859  1.00  0.00    -0.339 OA
BRANCH  23  24
HETATM   24  C   UNL     1      41.131 -16.400   6.227  1.00  0.00     0.278 C 
BRANCH  24  25
HETATM   25  C   UNL     1      42.390 -17.128   6.720  1.00  0.00     0.242 C 
HETATM   26  N   UNL     1      42.926 -18.013   5.810  1.00  0.00    -0.351 N 
HETATM   27  H   UNL     1      42.368 -18.172   4.974  1.00  0.00     0.163 HD
HETATM   28  O   UNL     1      42.847 -16.924   7.840  1.00  0.00    -0.271 OA
BRANCH  26  29
HETATM   29  C   UNL     1      44.078 -18.893   6.038  1.00  0.00     0.022 C 
HETATM   30  C   UNL     1      43.728 -19.965   7.079  1.00  0.00     0.037 C 
HETATM   31  C   UNL     1      44.414 -19.586   4.705  1.00  0.00     0.037 C 
HETATM   32  C   UNL     1      45.314 -18.099   6.489  1.00  0.00     0.037 C 
ENDBRANCH  26  29
ENDBRANCH  24  25
ENDBRANCH  23  24
ENDBRANCH   2  23
TORSDOF 9
ENDMDL
MODEL 7
REMARK VINA RESULT:      -7.6      2.075      3.101
REMARK  9 active torsions:
REMARK  status: ('A' for Active; 'I' for Inactive)
REMARK    1  A    between atoms: C_2  and  O_3 
REMARK    2  A    between atoms: O_3  and  C_4 
REMARK    3  A    between atoms: C_5  and  O_6 
REMARK    4  A    between atoms: O_6  and  C_7 
REMARK    5  A    between atoms: C_7  and  C_8 
REMARK       I    between atoms: C_8  and  N_9 
REMARK    6  A    between atoms: N_9  and  C_10 
REMARK    7  A    between atoms: C_17  and  C_18 
REMARK    8  A    between atoms: C_18  and  N_19 
REMARK    9  A    between atoms: N_19  and  C_20 
ROOT
HETATM    1  C   UNL     1      42.062 -13.241   5.853  1.00  0.00     0.102 A 
HETATM    2  C   UNL     1      40.956 -12.379   5.791  1.00  0.00     0.102 A 
HETATM    3  C   UNL     1      39.840 -12.772   5.046  1.00  0.00     0.040 A 
HETATM    4  C   UNL     1      39.841 -13.986   4.351  1.00  0.00     0.012 A 
HETATM    5  C   UNL     1      40.961 -14.827   4.375  1.00  0.00    -0.038 A 
HETATM    6  C   UNL     1      42.073 -14.439   5.128  1.00  0.00     0.048 A 
ENDROOT
BRANCH   5   7
HETATM    7  C   UNL     1      40.975 -16.108   3.571  1.00  0.00     0.158 C 
BRANCH   7   8
HETATM    8  N   UNL     1      42.336 -16.367   3.119  1.00  0.00    -0.386 N 
HETATM    9  H   UNL     1      42.968 -15.600   3.333  1.00  0.00     0.160 HD
BRANCH   8  10
HETATM   10  C   UNL     1      42.926 -17.613   3.344  1.00  0.00     0.031 A 
HETATM   11  C   UNL     1      42.890 -18.669   2.426  1.00  0.00     0.068 A 
HETATM   12  C   UNL     1      43.571 -19.864   2.678  1.00  0.00     0.104 A 
HETATM   13  C   UNL     1      44.303 -20.023   3.856  1.00  0.00     0.102 A 
HETATM   14  O   UNL     1      43.472 -20.842   1.719  1.00  0.00    -0.346 OA
HETATM   15  O   UNL     1      44.969 -21.176   4.181  1.00  0.00    -0.346 OA
HETATM   16  C   UNL     1      44.397 -18.968   4.753  1.00  0.00     0.042 A 
HETATM   17  C   UNL     1      44.541 -22.272   3.366  1.00  0.00     0.202 C 
HETATM   18  C   UNL     1      44.464 -21.857   1.905  1.00  0.00     0.202 C 
HETATM   19  C   UNL     1      43.723 -17.772   4.491  1.00  0.00     0.032 A 
ENDBRANCH   8  10
ENDBRANCH   7   8
ENDBRANCH   5   7
BRANCH   1  20
HETATM   20  O   UNL     1      43.232 -12.959   6.514  1.00  0.00    -0.349 OA
BRANCH  20  21
HETATM   21  C   UNL     1      44.147 -14.054   6.645  1.00  0.00     0.171 C 
HETATM   22  C   UNL     1      45.516 -13.625   7.151  1.00  0.00     0.034 C 
ENDBRANCH  20  21
ENDBRANCH   1  20
BRANCH   2  23
HETATM   23  O   UNL     1      41.087 -11.166   6.413  1.00  0.00    -0.339 OA
BRANCH  23  24
HETATM   24  C   UNL     1      40.662 -11.018   7.760  1.00  0.00     0.278 C 
BRANCH  24  25
HETATM   25  C   UNL     1      41.772 -10.728   8.780  1.00  0.00     0.242 C 
HETATM   26  N   UNL     1      41.445 -11.046  10.080  1.00  0.00    -0.351 N 
HETATM   27  H   UNL     1      40.477 -11.319  10.233  1.00  0.00     0.163 HD
HETATM   28  O   UNL     1      42.846 -10.243   8.434  1.00  0.00    -0.271 OA
BRANCH  26  29
HETATM   29  C   UNL     1      42.281 -10.808  11.263  1.00  0.00     0.022 C 
HETATM   30  C   UNL     1      42.551  -9.307  11.428  1.00  0.00     0.037 C 
HETATM   31  C   UNL     1      41.509 -11.313  12.495  1.00  0.00     0.037 C 
HETATM   32  C   UNL     1      43.607 -11.580  11.180  1.00  0.00     0.037 C 
ENDBRANCH  26  29
ENDBRANCH  24  25
ENDBRANCH  23  24
ENDBRANCH   2  23
TORSDOF 9
ENDMDL
MODEL 8
REMARK VINA RESULT:      -7.6      5.146      8.003
REMARK  9 active torsions:
REMARK  status: ('A' for Active; 'I' for Inactive)
REMARK    1  A    between atoms: C_2  and  O_3 
REMARK    2  A    between atoms: O_3  and  C_4 
REMARK    3  A    between atoms: C_5  and  O_6 
REMARK    4  A    between atoms: O_6  and  C_7 
REMARK    5  A    between atoms: C_7  and  C_8 
REMARK       I    between atoms: C_8  and  N_9 
REMARK    6  A    between atoms: N_9  and  C_10 
REMARK    7  A    between atoms: C_17  and  C_18 
REMARK    8  A    between atoms: C_18  and  N_19 
REMARK    9  A    between atoms: N_19  and  C_20 
ROOT
HETATM    1  C   UNL     1      40.219 -14.355  -0.628  1.00  0.00     0.102 A 
HETATM    2  C   UNL     1      38.992 -13.708  -0.411  1.00  0.00     0.102 A 
HETATM    3  C   UNL     1      38.309 -13.948   0.785  1.00  0.00     0.040 A 
HETATM    4  C   UNL     1      38.826 -14.840   1.732  1.00  0.00     0.012 A 
HETATM    5  C   UNL     1      40.028 -15.519   1.498  1.00  0.00    -0.038 A 
HETATM    6  C   UNL     1      40.715 -15.272   0.306  1.00  0.00     0.048 A 
ENDROOT
BRANCH   5   7
HETATM    7  C   UNL     1      40.547 -16.527   2.500  1.00  0.00     0.158 C 
BRANCH   7   8
HETATM    8  N   UNL     1      41.999 -16.587   2.400  1.00  0.00    -0.386 N 
HETATM    9  H   UNL     1      42.447 -15.741   2.742  1.00  0.00     0.160 HD
BRANCH   8  10
HETATM   10  C   UNL     1      42.683 -17.740   2.795  1.00  0.00     0.031 A 
HETATM   11  C   UNL     1      42.724 -18.918   2.041  1.00  0.00     0.068 A 
HETATM   12  C   UNL     1      43.495 -20.009   2.454  1.00  0.00     0.104 A 
HETATM   13  C   UNL     1      44.241 -19.939   3.631  1.00  0.00     0.102 A 
HETATM   14  O   UNL     1      43.466 -21.122   1.650  1.00  0.00    -0.346 OA
HETATM   15  O   UNL     1      44.994 -20.980   4.111  1.00  0.00    -0.346 OA
HETATM   16  C   UNL     1      44.258 -18.760   4.364  1.00  0.00     0.042 A 
HETATM   17  C   UNL     1      44.647 -22.212   3.471  1.00  0.00     0.202 C 
HETATM   18  C   UNL     1      44.533 -22.022   1.967  1.00  0.00     0.202 C 
HETATM   19  C   UNL     1      43.494 -17.669   3.940  1.00  0.00     0.032 A 
ENDBRANCH   8  10
ENDBRANCH   7   8
ENDBRANCH   5   7
BRANCH   1  20
HETATM   20  O   UNL     1      40.968 -14.238  -1.772  1.00  0.00    -0.349 OA
BRANCH  20  21
HETATM   21  C   UNL     1      41.052 -15.418  -2.580  1.00  0.00     0.171 C 
HETATM   22  C   UNL     1      39.826 -15.625  -3.457  1.00  0.00     0.034 C 
ENDBRANCH  20  21
ENDBRANCH   1  20
BRANCH   2  23
HETATM   23  O   UNL     1      38.512 -12.940  -1.439  1.00  0.00    -0.339 OA
BRANCH  23  24
HETATM   24  C   UNL     1      38.520 -11.525  -1.318  1.00  0.00     0.278 C 
BRANCH  24  25
HETATM   25  C   UNL     1      39.893 -10.852  -1.457  1.00  0.00     0.242 C 
HETATM   26  N   UNL     1      40.614 -11.255  -2.560  1.00  0.00    -0.351 N 
HETATM   27  H   UNL     1      40.214 -12.029  -3.084  1.00  0.00     0.163 HD
HETATM   28  O   UNL     1      40.289 -10.036  -0.631  1.00  0.00    -0.271 OA
BRANCH  26  29
HETATM   29  C   UNL     1      41.978 -10.834  -2.900  1.00  0.00     0.022 C 
HETATM   30  C   UNL     1      42.954 -11.256  -1.794  1.00  0.00     0.037 C 
HETATM   31  C   UNL     1      42.376 -11.539  -4.210  1.00  0.00     0.037 C 
HETATM   32  C   UNL     1      42.060  -9.317  -3.129  1.00  0.00     0.037 C 
ENDBRANCH  26  29
ENDBRANCH  24  25
ENDBRANCH  23  24
ENDBRANCH   2  23
TORSDOF 9
ENDMDL
MODEL 9
REMARK VINA RESULT:      -7.5      2.264      3.749
REMARK  9 active torsions:
REMARK  status: ('A' for Active; 'I' for Inactive)
REMARK    1  A    between atoms: C_2  and  O_3 
REMARK    2  A    between atoms: O_3  and  C_4 
REMARK    3  A    between atoms: C_5  and  O_6 
REMARK    4  A    between atoms: O_6  and  C_7 
REMARK    5  A    between atoms: C_7  and  C_8 
REMARK       I    between atoms: C_8  and  N_9 
REMARK    6  A    between atoms: N_9  and  C_10 
REMARK    7  A    between atoms: C_17  and  C_18 
REMARK    8  A    between atoms: C_18  and  N_19 
REMARK    9  A    between atoms: N_19  and  C_20 
ROOT
HETATM    1  C   UNL     1      43.144 -12.361   7.193  1.00  0.00     0.102 A 
HETATM    2  C   UNL     1      44.306 -12.565   7.954  1.00  0.00     0.102 A 
HETATM    3  C   UNL     1      45.117 -13.664   7.657  1.00  0.00     0.040 A 
HETATM    4  C   UNL     1      44.760 -14.559   6.642  1.00  0.00     0.012 A 
HETATM    5  C   UNL     1      43.578 -14.381   5.911  1.00  0.00    -0.038 A 
HETATM    6  C   UNL     1      42.771 -13.276   6.202  1.00  0.00     0.048 A 
ENDROOT
BRANCH   5   7
HETATM    7  C   UNL     1      43.169 -15.387   4.858  1.00  0.00     0.158 C 
BRANCH   7   8
HETATM    8  N   UNL     1      43.486 -16.726   5.336  1.00  0.00    -0.386 N 
HETATM    9  H   UNL     1      42.951 -16.980   6.162  1.00  0.00     0.160 HD
BRANCH   8  10
HETATM   10  C   UNL     1      43.595 -17.786   4.433  1.00  0.00     0.031 A 
HETATM   11  C   UNL     1      44.234 -18.996   4.726  1.00  0.00     0.068 A 
HETATM   12  C   UNL     1      44.237 -20.049   3.806  1.00  0.00     0.104 A 
HETATM   13  C   UNL     1      43.596 -19.909   2.573  1.00  0.00     0.102 A 
HETATM   14  O   UNL     1      44.895 -21.194   4.183  1.00  0.00    -0.346 OA
HETATM   15  O   UNL     1      43.584 -20.888   1.613  1.00  0.00    -0.346 OA
HETATM   16  C   UNL     1      42.909 -18.738   2.286  1.00  0.00     0.042 A 
HETATM   17  C   UNL     1      44.573 -21.889   1.878  1.00  0.00     0.202 C 
HETATM   18  C   UNL     1      44.544 -22.298   3.341  1.00  0.00     0.202 C 
HETATM   19  C   UNL     1      42.901 -17.693   3.215  1.00  0.00     0.032 A 
ENDBRANCH   8  10
ENDBRANCH   7   8
ENDBRANCH   5   7
BRANCH   1  20
HETATM   20  O   UNL     1      42.244 -11.347   7.406  1.00  0.00    -0.349 OA
BRANCH  20  21
HETATM   21  C   UNL     1      41.166 -11.269   6.465  1.00  0.00     0.171 C 
HETATM   22  C   UNL     1      40.707  -9.843   6.205  1.00  0.00     0.034 C 
ENDBRANCH  20  21
ENDBRANCH   1  20
BRANCH   2  23
HETATM   23  O   UNL     1      44.518 -11.702   8.995  1.00  0.00    -0.339 OA
BRANCH  23  24
HETATM   24  C   UNL     1      44.349 -12.158  10.330  1.00  0.00     0.278 C 
BRANCH  24  25
HETATM   25  C   UNL     1      43.216 -11.492  11.124  1.00  0.00     0.242 C 
HETATM   26  N   UNL     1      42.022 -11.404  10.442  1.00  0.00    -0.351 N 
HETATM   27  H   UNL     1      42.057 -11.675   9.463  1.00  0.00     0.163 HD
HETATM   28  O   UNL     1      43.397 -11.074  12.264  1.00  0.00    -0.271 OA
BRANCH  26  29
HETATM   29  C   UNL     1      40.799 -10.754  10.927  1.00  0.00     0.022 C 
HETATM   30  C   UNL     1      40.341 -11.398  12.242  1.00  0.00     0.037 C 
HETATM   31  C   UNL     1      41.123  -9.271  11.186  1.00  0.00     0.037 C 
HETATM   32  C   UNL     1      39.673 -10.821   9.883  1.00  0.00     0.037 C 
ENDBRANCH  26  29
ENDBRANCH  24  25
ENDBRANCH  23  24
ENDBRANCH   2  23
TORSDOF 9
ENDMDL
MODEL 10
REMARK VINA RESULT:      -7.5      5.170      8.574
REMARK  9 active torsions:
REMARK  status: ('A' for Active; 'I' for Inactive)
REMARK    1  A    between atoms: C_2  and  O_3 
REMARK    2  A    between atoms: O_3  and  C_4 
REMARK    3  A    between atoms: C_5  and  O_6 
REMARK    4  A    between atoms: O_6  and  C_7 
REMARK    5  A    between atoms: C_7  and  C_8 
REMARK       I    between atoms: C_8  and  N_9 
REMARK    6  A    between atoms: N_9  and  C_10 
REMARK    7  A    between atoms: C_17  and  C_18 
REMARK    8  A    between atoms: C_18  and  N_19 
REMARK    9  A    between atoms: N_19  and  C_20 
ROOT
HETATM    1  C   UNL     1      41.283 -16.432   0.546  1.00  0.00     0.102 A 
HETATM    2  C   UNL     1      40.495 -15.594   1.351  1.00  0.00     0.102 A 
HETATM    3  C   UNL     1      39.868 -14.493   0.759  1.00  0.00     0.040 A 
HETATM    4  C   UNL     1      40.049 -14.216  -0.600  1.00  0.00     0.012 A 
HETATM    5  C   UNL     1      40.870 -15.027  -1.395  1.00  0.00    -0.038 A 
HETATM    6  C   UNL     1      41.490 -16.133  -0.805  1.00  0.00     0.048 A 
ENDROOT
BRANCH   5   7
HETATM    7  C   UNL     1      41.109 -14.685  -2.849  1.00  0.00     0.158 C 
BRANCH   7   8
HETATM    8  N   UNL     1      42.398 -14.018  -2.971  1.00  0.00    -0.386 N 
HETATM    9  H   UNL     1      42.944 -14.370  -3.753  1.00  0.00     0.160 HD
BRANCH   8  10
HETATM   10  C   UNL     1      42.484 -12.628  -2.854  1.00  0.00     0.031 A 
HETATM   11  C   UNL     1      42.972 -11.972  -1.718  1.00  0.00     0.068 A 
HETATM   12  C   UNL     1      43.109 -10.580  -1.695  1.00  0.00     0.104 A 
HETATM   13  C   UNL     1      42.760  -9.820  -2.813  1.00  0.00     0.102 A 
HETATM   14  O   UNL     1      43.591 -10.029  -0.533  1.00  0.00    -0.346 OA
HETATM   15  O   UNL     1      42.841  -8.452  -2.850  1.00  0.00    -0.346 OA
HETATM   16  C   UNL     1      42.328 -10.456  -3.968  1.00  0.00     0.042 A 
HETATM   17  C   UNL     1      42.978  -7.903  -1.535  1.00  0.00     0.202 C 
HETATM   18  C   UNL     1      44.014  -8.676  -0.735  1.00  0.00     0.202 C 
HETATM   19  C   UNL     1      42.204 -11.848  -3.988  1.00  0.00     0.032 A 
ENDBRANCH   8  10
ENDBRANCH   7   8
ENDBRANCH   5   7
BRANCH   1  20
HETATM   20  O   UNL     1      41.982 -17.519   1.008  1.00  0.00    -0.349 OA
BRANCH  20  21
HETATM   21  C   UNL     1      43.400 -17.342   1.116  1.00  0.00     0.171 C 
HETATM   22  C   UNL     1      44.079 -18.455   1.899  1.00  0.00     0.034 C 
ENDBRANCH  20  21
ENDBRANCH   1  20
BRANCH   2  23
HETATM   23  O   UNL     1      40.463 -15.879   2.690  1.00  0.00    -0.339 OA
BRANCH  23  24
HETATM   24  C   UNL     1      41.062 -14.980   3.613  1.00  0.00     0.278 C 
BRANCH  24  25
HETATM   25  C   UNL     1      42.370 -15.461   4.257  1.00  0.00     0.242 C 
HETATM   26  N   UNL     1      42.197 -16.205   5.404  1.00  0.00    -0.351 N 
HETATM   27  H   UNL     1      41.244 -16.250   5.756  1.00  0.00     0.163 HD
HETATM   28  O   UNL     1      43.461 -15.179   3.772  1.00  0.00    -0.271 OA
BRANCH  26  29
HETATM   29  C   UNL     1      43.266 -16.728   6.262  1.00  0.00     0.022 C 
HETATM   30  C   UNL     1      44.197 -15.590   6.702  1.00  0.00     0.037 C 
HETATM   31  C   UNL     1      42.610 -17.345   7.511  1.00  0.00     0.037 C 
HETATM   32  C   UNL     1      44.072 -17.828   5.552  1.00  0.00     0.037 C 
ENDBRANCH  26  29
ENDBRANCH  24  25
ENDBRANCH  23  24
ENDBRANCH   2  23
TORSDOF 9
ENDMDL
