MODEL 1
REMARK VINA RESULT:      -8.1      0.000      0.000
REMARK  2 active torsions:
REMARK  status: ('A' for Active; 'I' for Inactive)
REMARK    1  A    between atoms: C_4  and  N_5 
REMARK       I    between atoms: N_5  and  C_6 
REMARK    2  A    between atoms: C_6  and  C_7 
ROOT
HETATM    1  C   UNL     1      43.068 -18.094   5.918  1.00  0.00     0.099 C 
HETATM    2  C   UNL     1      42.429 -16.967   5.546  1.00  0.00     0.079 C 
HETATM    3  S   UNL     1      43.185 -15.518   5.003  1.00  0.00    -0.082 SA
HETATM    4  C   UNL     1      42.019 -14.289   5.527  1.00  0.00     0.032 A 
HETATM    5  C   UNL     1      40.678 -14.589   5.768  1.00  0.00     0.052 A 
HETATM    6  N   UNL     1      40.194 -15.899   5.706  1.00  0.00    -0.321 N 
HETATM    7  C   UNL     1      42.451 -12.961   5.638  1.00  0.00     0.021 A 
HETATM    8  C   UNL     1      41.553 -11.946   5.975  1.00  0.00     0.002 A 
HETATM    9  C   UNL     1      40.212 -12.249   6.190  1.00  0.00     0.002 A 
HETATM   10  C   UNL     1      39.772 -13.569   6.082  1.00  0.00     0.031 A 
HETATM   11  C   UNL     1      40.931 -17.042   5.606  1.00  0.00     0.263 C 
HETATM   12  O   UNL     1      40.340 -18.125   5.610  1.00  0.00    -0.267 OA
HETATM   13  H   UNL     1      39.201 -16.061   5.813  1.00  0.00     0.169 HD
ENDROOT
BRANCH   1  14
HETATM   14  C   UNL     1      44.532 -18.337   5.911  1.00  0.00     0.247 C 
HETATM   15  N   UNL     1      45.068 -19.312   5.119  1.00  0.00    -0.324 N 
HETATM   16  H   UNL     1      46.006 -19.533   5.438  1.00  0.00     0.169 HD
HETATM   17  O   UNL     1      45.298 -17.754   6.677  1.00  0.00    -0.268 OA
BRANCH  15  18
HETATM   18  C   UNL     1      44.615 -20.054   4.016  1.00  0.00     0.035 A 
HETATM   19  C   UNL     1      44.055 -19.504   2.862  1.00  0.00     0.029 A 
HETATM   20  C   UNL     1      43.642 -20.333   1.813  1.00  0.00     0.002 A 
HETATM   21  C   UNL     1      43.811 -21.713   1.896  1.00  0.00     0.000 A 
HETATM   22  C   UNL     1      44.413 -22.267   3.022  1.00  0.00     0.002 A 
HETATM   23  C   UNL     1      44.822 -21.439   4.068  1.00  0.00     0.029 A 
ENDBRANCH  15  18
ENDBRANCH   1  14
TORSDOF 2
ENDMDL
MODEL 2
REMARK VINA RESULT:      -7.8      3.255      3.813
REMARK  2 active torsions:
REMARK  status: ('A' for Active; 'I' for Inactive)
REMARK    1  A    between atoms: C_4  and  N_5 
REMARK       I    between atoms: N_5  and  C_6 
REMARK    2  A    between atoms: C_6  and  C_7 
ROOT
HETATM    1  C   UNL     1      43.285 -15.744   4.998  1.00  0.00     0.099 C 
HETATM    2  C   UNL     1      42.471 -14.960   4.263  1.00  0.00     0.079 C 
HETATM    3  S   UNL     1      40.749 -15.020   4.265  1.00  0.00    -0.082 SA
HETATM    4  C   UNL     1      40.372 -14.490   2.616  1.00  0.00     0.032 A 
HETATM    5  C   UNL     1      41.262 -13.732   1.854  1.00  0.00     0.052 A 
HETATM    6  N   UNL     1      42.548 -13.429   2.311  1.00  0.00    -0.321 N 
HETATM    7  C   UNL     1      39.109 -14.791   2.089  1.00  0.00     0.021 A 
HETATM    8  C   UNL     1      38.737 -14.332   0.824  1.00  0.00     0.002 A 
HETATM    9  C   UNL     1      39.621 -13.555   0.080  1.00  0.00     0.002 A 
HETATM   10  C   UNL     1      40.881 -13.250   0.596  1.00  0.00     0.031 A 
HETATM   11  C   UNL     1      43.175 -13.949   3.404  1.00  0.00     0.263 C 
HETATM   12  O   UNL     1      44.335 -13.603   3.638  1.00  0.00    -0.267 OA
HETATM   13  H   UNL     1      43.132 -12.812   1.759  1.00  0.00     0.169 HD
ENDROOT
BRANCH   1  14
HETATM   14  C   UNL     1      42.882 -16.788   5.973  1.00  0.00     0.247 C 
HETATM   15  N   UNL     1      42.811 -18.098   5.592  1.00  0.00    -0.324 N 
HETATM   16  H   UNL     1      42.263 -18.620   6.269  1.00  0.00     0.169 HD
HETATM   17  O   UNL     1      42.503 -16.513   7.109  1.00  0.00    -0.268 OA
BRANCH  15  18
HETATM   18  C   UNL     1      43.300 -18.845   4.508  1.00  0.00     0.035 A 
HETATM   19  C   UNL     1      42.865 -18.712   3.189  1.00  0.00     0.029 A 
HETATM   20  C   UNL     1      43.425 -19.501   2.178  1.00  0.00     0.002 A 
HETATM   21  C   UNL     1      44.441 -20.408   2.472  1.00  0.00     0.000 A 
HETATM   22  C   UNL     1      44.915 -20.513   3.776  1.00  0.00     0.002 A 
HETATM   23  C   UNL     1      44.354 -19.726   4.783  1.00  0.00     0.029 A 
ENDBRANCH  15  18
ENDBRANCH   1  14
TORSDOF 2
ENDMDL
MODEL 3
REMARK VINA RESULT:      -7.7      2.452      3.202
REMARK  2 active torsions:
REMARK  status: ('A' for Active; 'I' for Inactive)
REMARK    1  A    between atoms: C_4  and  N_5 
REMARK       I    between atoms: N_5  and  C_6 
REMARK    2  A    between atoms: C_6  and  C_7 
ROOT
HETATM    1  C   UNL     1      43.892 -16.074   6.590  1.00  0.00     0.099 C 
HETATM    2  C   UNL     1      43.096 -15.210   5.929  1.00  0.00     0.079 C 
HETATM    3  S   UNL     1      41.391 -15.358   5.743  1.00  0.00    -0.082 SA
HETATM    4  C   UNL     1      41.130 -14.550   4.187  1.00  0.00     0.032 A 
HETATM    5  C   UNL     1      42.031 -13.619   3.670  1.00  0.00     0.052 A 
HETATM    6  N   UNL     1      43.245 -13.340   4.303  1.00  0.00    -0.321 N 
HETATM    7  C   UNL     1      39.944 -14.812   3.488  1.00  0.00     0.021 A 
HETATM    8  C   UNL     1      39.659 -14.145   2.294  1.00  0.00     0.002 A 
HETATM    9  C   UNL     1      40.551 -13.199   1.798  1.00  0.00     0.002 A 
HETATM   10  C   UNL     1      41.734 -12.931   2.487  1.00  0.00     0.031 A 
HETATM   11  C   UNL     1      43.804 -14.022   5.344  1.00  0.00     0.263 C 
HETATM   12  O   UNL     1      44.911 -13.666   5.753  1.00  0.00    -0.267 OA
HETATM   13  H   UNL     1      43.833 -12.602   3.935  1.00  0.00     0.169 HD
ENDROOT
BRANCH   1  14
HETATM   14  C   UNL     1      43.476 -17.301   7.314  1.00  0.00     0.247 C 
HETATM   15  N   UNL     1      43.219 -18.454   6.628  1.00  0.00    -0.324 N 
HETATM   16  H   UNL     1      42.687 -19.088   7.216  1.00  0.00     0.169 HD
HETATM   17  O   UNL     1      43.248 -17.305   8.522  1.00  0.00    -0.268 OA
BRANCH  15  18
HETATM   18  C   UNL     1      43.508 -18.927   5.338  1.00  0.00     0.035 A 
HETATM   19  C   UNL     1      42.860 -18.512   4.174  1.00  0.00     0.029 A 
HETATM   20  C   UNL     1      43.230 -19.041   2.932  1.00  0.00     0.002 A 
HETATM   21  C   UNL     1      44.267 -19.966   2.841  1.00  0.00     0.000 A 
HETATM   22  C   UNL     1      44.952 -20.350   3.990  1.00  0.00     0.002 A 
HETATM   23  C   UNL     1      44.580 -19.822   5.228  1.00  0.00     0.029 A 
ENDBRANCH  15  18
ENDBRANCH   1  14
TORSDOF 2
ENDMDL
MODEL 4
REMARK VINA RESULT:      -7.5      1.963      2.490
REMARK  2 active torsions:
REMARK  status: ('A' for Active; 'I' for Inactive)
REMARK    1  A    between atoms: C_4  and  N_5 
REMARK       I    between atoms: N_5  and  C_6 
REMARK    2  A    between atoms: C_6  and  C_7 
ROOT
HETATM    1  C   UNL     1      42.914 -17.197   3.905  1.00  0.00     0.099 C 
HETATM    2  C   UNL     1      41.835 -16.461   4.240  1.00  0.00     0.079 C 
HETATM    3  S   UNL     1      40.796 -15.644   3.137  1.00  0.00    -0.082 SA
HETATM    4  C   UNL     1      40.240 -14.275   4.118  1.00  0.00     0.032 A 
HETATM    5  C   UNL     1      40.258 -14.302   5.513  1.00  0.00     0.052 A 
HETATM    6  N   UNL     1      40.809 -15.374   6.222  1.00  0.00    -0.321 N 
HETATM    7  C   UNL     1      39.705 -13.158   3.464  1.00  0.00     0.021 A 
HETATM    8  C   UNL     1      39.187 -12.086   4.195  1.00  0.00     0.002 A 
HETATM    9  C   UNL     1      39.186 -12.131   5.586  1.00  0.00     0.002 A 
HETATM   10  C   UNL     1      39.716 -13.240   6.246  1.00  0.00     0.031 A 
HETATM   11  C   UNL     1      41.545 -16.402   5.713  1.00  0.00     0.263 C 
HETATM   12  O   UNL     1      41.996 -17.245   6.492  1.00  0.00    -0.267 OA
HETATM   13  H   UNL     1      40.732 -15.386   7.231  1.00  0.00     0.169 HD
ENDROOT
BRANCH   1  14
HETATM   14  C   UNL     1      43.413 -17.482   2.536  1.00  0.00     0.247 C 
HETATM   15  N   UNL     1      44.135 -18.613   2.286  1.00  0.00    -0.324 N 
HETATM   16  H   UNL     1      44.627 -18.515   1.403  1.00  0.00     0.169 HD
HETATM   17  O   UNL     1      43.289 -16.680   1.613  1.00  0.00    -0.268 OA
BRANCH  15  18
HETATM   18  C   UNL     1      44.347 -19.826   2.962  1.00  0.00     0.035 A 
HETATM   19  C   UNL     1      44.702 -19.936   4.307  1.00  0.00     0.029 A 
HETATM   20  C   UNL     1      44.882 -21.196   4.889  1.00  0.00     0.002 A 
HETATM   21  C   UNL     1      44.682 -22.354   4.140  1.00  0.00     0.000 A 
HETATM   22  C   UNL     1      44.281 -22.255   2.811  1.00  0.00     0.002 A 
HETATM   23  C   UNL     1      44.104 -20.997   2.232  1.00  0.00     0.029 A 
ENDBRANCH  15  18
ENDBRANCH   1  14
TORSDOF 2
ENDMDL
MODEL 5
REMARK VINA RESULT:      -7.5      2.334      3.161
REMARK  2 active torsions:
REMARK  status: ('A' for Active; 'I' for Inactive)
REMARK    1  A    between atoms: C_4  and  N_5 
REMARK       I    between atoms: N_5  and  C_6 
REMARK    2  A    between atoms: C_6  and  C_7 
ROOT
HETATM    1  C   UNL     1      43.891 -17.070   6.007  1.00  0.00     0.099 C 
HETATM    2  C   UNL     1      43.099 -15.999   6.216  1.00  0.00     0.079 C 
HETATM    3  S   UNL     1      41.377 -16.002   6.180  1.00  0.00    -0.082 SA
HETATM    4  C   UNL     1      41.029 -14.349   5.644  1.00  0.00     0.032 A 
HETATM    5  C   UNL     1      41.941 -13.305   5.806  1.00  0.00     0.052 A 
HETATM    6  N   UNL     1      43.225 -13.522   6.312  1.00  0.00    -0.321 N 
HETATM    7  C   UNL     1      39.767 -14.074   5.101  1.00  0.00     0.021 A 
HETATM    8  C   UNL     1      39.419 -12.772   4.732  1.00  0.00     0.002 A 
HETATM    9  C   UNL     1      40.325 -11.732   4.920  1.00  0.00     0.002 A 
HETATM   10  C   UNL     1      41.583 -11.996   5.461  1.00  0.00     0.031 A 
HETATM   11  C   UNL     1      43.830 -14.725   6.527  1.00  0.00     0.263 C 
HETATM   12  O   UNL     1      44.993 -14.733   6.937  1.00  0.00    -0.267 OA
HETATM   13  H   UNL     1      43.826 -12.725   6.484  1.00  0.00     0.169 HD
ENDROOT
BRANCH   1  14
HETATM   14  C   UNL     1      43.459 -18.463   5.736  1.00  0.00     0.247 C 
HETATM   15  N   UNL     1      42.873 -18.786   4.545  1.00  0.00    -0.324 N 
HETATM   16  H   UNL     1      42.394 -19.677   4.631  1.00  0.00     0.169 HD
HETATM   17  O   UNL     1      43.515 -19.346   6.590  1.00  0.00    -0.268 OA
BRANCH  15  18
HETATM   18  C   UNL     1      42.782 -18.171   3.285  1.00  0.00     0.035 A 
HETATM   19  C   UNL     1      41.668 -17.473   2.818  1.00  0.00     0.029 A 
HETATM   20  C   UNL     1      41.683 -16.890   1.546  1.00  0.00     0.002 A 
HETATM   21  C   UNL     1      42.818 -16.975   0.743  1.00  0.00     0.000 A 
HETATM   22  C   UNL     1      43.951 -17.628   1.220  1.00  0.00     0.002 A 
HETATM   23  C   UNL     1      43.934 -18.211   2.488  1.00  0.00     0.029 A 
ENDBRANCH  15  18
ENDBRANCH   1  14
TORSDOF 2
ENDMDL
MODEL 6
REMARK VINA RESULT:      -7.4      5.676      6.097
REMARK  2 active torsions:
REMARK  status: ('A' for Active; 'I' for Inactive)
REMARK    1  A    between atoms: C_4  and  N_5 
REMARK       I    between atoms: N_5  and  C_6 
REMARK    2  A    between atoms: C_6  and  C_7 
ROOT
HETATM    1  C   UNL     1      41.287 -14.388   2.297  1.00  0.00     0.099 C 
HETATM    2  C   UNL     1      40.765 -14.463   1.056  1.00  0.00     0.079 C 
HETATM    3  S   UNL     1      41.638 -14.257  -0.414  1.00  0.00    -0.082 SA
HETATM    4  C   UNL     1      40.383 -13.606  -1.485  1.00  0.00     0.032 A 
HETATM    5  C   UNL     1      39.023 -13.804  -1.246  1.00  0.00     0.052 A 
HETATM    6  N   UNL     1      38.564 -14.444  -0.092  1.00  0.00    -0.321 N 
HETATM    7  C   UNL     1      40.781 -12.928  -2.645  1.00  0.00     0.021 A 
HETATM    8  C   UNL     1      39.831 -12.461  -3.557  1.00  0.00     0.002 A 
HETATM    9  C   UNL     1      38.477 -12.684  -3.324  1.00  0.00     0.002 A 
HETATM   10  C   UNL     1      38.072 -13.359  -2.172  1.00  0.00     0.031 A 
HETATM   11  C   UNL     1      39.298 -14.780   1.008  1.00  0.00     0.263 C 
HETATM   12  O   UNL     1      38.720 -15.302   1.964  1.00  0.00    -0.267 OA
HETATM   13  H   UNL     1      37.574 -14.634   0.004  1.00  0.00     0.169 HD
ENDROOT
BRANCH   1  14
HETATM   14  C   UNL     1      42.707 -14.147   2.657  1.00  0.00     0.247 C 
HETATM   15  N   UNL     1      43.540 -15.196   2.926  1.00  0.00    -0.324 N 
HETATM   16  H   UNL     1      44.362 -14.860   3.418  1.00  0.00     0.169 HD
HETATM   17  O   UNL     1      43.158 -13.016   2.827  1.00  0.00    -0.268 OA
BRANCH  15  18
HETATM   18  C   UNL     1      43.500 -16.580   2.691  1.00  0.00     0.035 A 
HETATM   19  C   UNL     1      43.700 -17.183   1.448  1.00  0.00     0.029 A 
HETATM   20  C   UNL     1      43.648 -18.576   1.322  1.00  0.00     0.002 A 
HETATM   21  C   UNL     1      43.423 -19.377   2.439  1.00  0.00     0.000 A 
HETATM   22  C   UNL     1      43.270 -18.788   3.691  1.00  0.00     0.002 A 
HETATM   23  C   UNL     1      43.321 -17.398   3.814  1.00  0.00     0.029 A 
ENDBRANCH  15  18
ENDBRANCH   1  14
TORSDOF 2
ENDMDL
MODEL 7
REMARK VINA RESULT:      -7.3      3.516      4.698
REMARK  2 active torsions:
REMARK  status: ('A' for Active; 'I' for Inactive)
REMARK    1  A    between atoms: C_4  and  N_5 
REMARK       I    between atoms: N_5  and  C_6 
REMARK    2  A    between atoms: C_6  and  C_7 
ROOT
HETATM    1  C   UNL     1      43.682 -16.151   2.652  1.00  0.00     0.099 C 
HETATM    2  C   UNL     1      42.561 -15.415   2.785  1.00  0.00     0.079 C 
HETATM    3  S   UNL     1      40.953 -16.032   2.815  1.00  0.00    -0.082 SA
HETATM    4  C   UNL     1      40.037 -14.676   2.133  1.00  0.00     0.032 A 
HETATM    5  C   UNL     1      40.517 -13.365   2.156  1.00  0.00     0.052 A 
HETATM    6  N   UNL     1      41.795 -13.058   2.631  1.00  0.00    -0.321 N 
HETATM    7  C   UNL     1      38.760 -14.925   1.614  1.00  0.00     0.021 A 
HETATM    8  C   UNL     1      37.970 -13.878   1.133  1.00  0.00     0.002 A 
HETATM    9  C   UNL     1      38.446 -12.571   1.182  1.00  0.00     0.002 A 
HETATM   10  C   UNL     1      39.716 -12.312   1.697  1.00  0.00     0.031 A 
HETATM   11  C   UNL     1      42.790 -13.939   2.941  1.00  0.00     0.263 C 
HETATM   12  O   UNL     1      43.879 -13.491   3.304  1.00  0.00    -0.267 OA
HETATM   13  H   UNL     1      42.073 -12.087   2.700  1.00  0.00     0.169 HD
ENDROOT
BRANCH   1  14
HETATM   14  C   UNL     1      43.775 -17.628   2.536  1.00  0.00     0.247 C 
HETATM   15  N   UNL     1      43.957 -18.398   3.649  1.00  0.00    -0.324 N 
HETATM   16  H   UNL     1      44.278 -19.322   3.376  1.00  0.00     0.169 HD
HETATM   17  O   UNL     1      43.795 -18.200   1.449  1.00  0.00    -0.268 OA
BRANCH  15  18
HETATM   18  C   UNL     1      43.815 -18.194   5.032  1.00  0.00     0.035 A 
HETATM   19  C   UNL     1      42.614 -17.884   5.672  1.00  0.00     0.029 A 
HETATM   20  C   UNL     1      42.580 -17.708   7.060  1.00  0.00     0.002 A 
HETATM   21  C   UNL     1      43.736 -17.867   7.821  1.00  0.00     0.000 A 
HETATM   22  C   UNL     1      44.927 -18.224   7.197  1.00  0.00     0.002 A 
HETATM   23  C   UNL     1      44.961 -18.397   5.812  1.00  0.00     0.029 A 
ENDBRANCH  15  18
ENDBRANCH   1  14
TORSDOF 2
ENDMDL
MODEL 8
REMARK VINA RESULT:      -7.3      2.587      3.632
REMARK  2 active torsions:
REMARK  status: ('A' for Active; 'I' for Inactive)
REMARK    1  A    between atoms: C_4  and  N_5 
REMARK       I    between atoms: N_5  and  C_6 
REMARK    2  A    between atoms: C_6  and  C_7 
ROOT
HETATM    1  C   UNL     1      42.445 -15.705   2.300  1.00  0.00     0.099 C 
HETATM    2  C   UNL     1      42.235 -15.087   3.479  1.00  0.00     0.079 C 
HETATM    3  S   UNL     1      40.949 -15.424   4.574  1.00  0.00    -0.082 SA
HETATM    4  C   UNL     1      40.714 -13.845   5.345  1.00  0.00     0.032 A 
HETATM    5  C   UNL     1      41.717 -12.875   5.379  1.00  0.00     0.052 A 
HETATM    6  N   UNL     1      42.936 -13.053   4.719  1.00  0.00    -0.321 N 
HETATM    7  C   UNL     1      39.500 -13.593   5.998  1.00  0.00     0.021 A 
HETATM    8  C   UNL     1      39.295 -12.393   6.682  1.00  0.00     0.002 A 
HETATM    9  C   UNL     1      40.309 -11.441   6.733  1.00  0.00     0.002 A 
HETATM   10  C   UNL     1      41.521 -11.682   6.086  1.00  0.00     0.031 A 
HETATM   11  C   UNL     1      43.252 -14.040   3.832  1.00  0.00     0.263 C 
HETATM   12  O   UNL     1      44.367 -14.021   3.305  1.00  0.00    -0.267 OA
HETATM   13  H   UNL     1      43.662 -12.358   4.834  1.00  0.00     0.169 HD
ENDROOT
BRANCH   1  14
HETATM   14  C   UNL     1      41.646 -16.810   1.714  1.00  0.00     0.247 C 
HETATM   15  N   UNL     1      42.055 -18.107   1.850  1.00  0.00    -0.324 N 
HETATM   16  H   UNL     1      41.574 -18.688   1.172  1.00  0.00     0.169 HD
HETATM   17  O   UNL     1      40.660 -16.605   1.009  1.00  0.00    -0.268 OA
BRANCH  15  18
HETATM   18  C   UNL     1      42.968 -18.777   2.680  1.00  0.00     0.035 A 
HETATM   19  C   UNL     1      43.067 -18.602   4.061  1.00  0.00     0.029 A 
HETATM   20  C   UNL     1      44.009 -19.327   4.800  1.00  0.00     0.002 A 
HETATM   21  C   UNL     1      44.839 -20.252   4.169  1.00  0.00     0.000 A 
HETATM   22  C   UNL     1      44.716 -20.468   2.800  1.00  0.00     0.002 A 
HETATM   23  C   UNL     1      43.777 -19.742   2.065  1.00  0.00     0.029 A 
ENDBRANCH  15  18
ENDBRANCH   1  14
TORSDOF 2
ENDMDL
MODEL 9
REMARK VINA RESULT:      -7.2      3.117      7.637
REMARK  2 active torsions:
REMARK  status: ('A' for Active; 'I' for Inactive)
REMARK    1  A    between atoms: C_4  and  N_5 
REMARK       I    between atoms: N_5  and  C_6 
REMARK    2  A    between atoms: C_6  and  C_7 
ROOT
HETATM    1  C   UNL     1      42.592 -14.681   2.448  1.00  0.00     0.099 C 
HETATM    2  C   UNL     1      42.536 -16.003   2.705  1.00  0.00     0.079 C 
HETATM    3  S   UNL     1      43.170 -16.781   4.105  1.00  0.00    -0.082 SA
HETATM    4  C   UNL     1      43.576 -18.385   3.469  1.00  0.00     0.032 A 
HETATM    5  C   UNL     1      42.975 -18.907   2.323  1.00  0.00     0.052 A 
HETATM    6  N   UNL     1      42.086 -18.154   1.551  1.00  0.00    -0.321 N 
HETATM    7  C   UNL     1      44.485 -19.177   4.184  1.00  0.00     0.021 A 
HETATM    8  C   UNL     1      44.781 -20.476   3.764  1.00  0.00     0.002 A 
HETATM    9  C   UNL     1      44.158 -20.998   2.634  1.00  0.00     0.002 A 
HETATM   10  C   UNL     1      43.252 -20.218   1.916  1.00  0.00     0.031 A 
HETATM   11  C   UNL     1      41.830 -16.819   1.661  1.00  0.00     0.263 C 
HETATM   12  O   UNL     1      41.046 -16.303   0.862  1.00  0.00    -0.267 OA
HETATM   13  H   UNL     1      41.615 -18.598   0.772  1.00  0.00     0.169 HD
ENDROOT
BRANCH   1  14
HETATM   14  C   UNL     1      43.173 -13.625   3.314  1.00  0.00     0.247 C 
HETATM   15  N   UNL     1      42.483 -12.470   3.553  1.00  0.00    -0.324 N 
HETATM   16  H   UNL     1      43.117 -11.762   3.910  1.00  0.00     0.169 HD
HETATM   17  O   UNL     1      44.317 -13.696   3.758  1.00  0.00    -0.268 OA
BRANCH  15  18
HETATM   18  C   UNL     1      41.147 -12.064   3.406  1.00  0.00     0.035 A 
HETATM   19  C   UNL     1      40.590 -11.567   2.227  1.00  0.00     0.029 A 
HETATM   20  C   UNL     1      39.241 -11.197   2.184  1.00  0.00     0.002 A 
HETATM   21  C   UNL     1      38.433 -11.346   3.309  1.00  0.00     0.000 A 
HETATM   22  C   UNL     1      38.967 -11.886   4.475  1.00  0.00     0.002 A 
HETATM   23  C   UNL     1      40.313 -12.253   4.516  1.00  0.00     0.029 A 
ENDBRANCH  15  18
ENDBRANCH   1  14
TORSDOF 2
ENDMDL
MODEL 10
REMARK VINA RESULT:      -7.0      2.818      3.353
REMARK  2 active torsions:
REMARK  status: ('A' for Active; 'I' for Inactive)
REMARK    1  A    between atoms: C_4  and  N_5 
REMARK       I    between atoms: N_5  and  C_6 
REMARK    2  A    between atoms: C_6  and  C_7 
ROOT
HETATM    1  C   UNL     1      42.960 -17.561   2.931  1.00  0.00     0.099 C 
HETATM    2  C   UNL     1      41.824 -16.842   3.026  1.00  0.00     0.079 C 
HETATM    3  S   UNL     1      40.781 -16.436   1.717  1.00  0.00    -0.082 SA
HETATM    4  C   UNL     1      40.099 -14.896   2.268  1.00  0.00     0.032 A 
HETATM    5  C   UNL     1      40.060 -14.537   3.616  1.00  0.00     0.052 A 
HETATM    6  N   UNL     1      40.648 -15.330   4.606  1.00  0.00    -0.321 N 
HETATM    7  C   UNL     1      39.522 -14.042   1.319  1.00  0.00     0.021 A 
HETATM    8  C   UNL     1      38.906 -12.852   1.713  1.00  0.00     0.002 A 
HETATM    9  C   UNL     1      38.850 -12.513   3.062  1.00  0.00     0.002 A 
HETATM   10  C   UNL     1      39.422 -13.357   4.014  1.00  0.00     0.031 A 
HETATM   11  C   UNL     1      41.470 -16.403   4.418  1.00  0.00     0.263 C 
HETATM   12  O   UNL     1      41.940 -16.964   5.409  1.00  0.00    -0.267 OA
HETATM   13  H   UNL     1      40.530 -15.071   5.577  1.00  0.00     0.169 HD
ENDROOT
BRANCH   1  14
HETATM   14  C   UNL     1      43.533 -18.173   1.706  1.00  0.00     0.247 C 
HETATM   15  N   UNL     1      44.236 -19.342   1.781  1.00  0.00    -0.324 N 
HETATM   16  H   UNL     1      44.783 -19.465   0.935  1.00  0.00     0.169 HD
HETATM   17  O   UNL     1      43.489 -17.615   0.612  1.00  0.00    -0.268 OA
BRANCH  15  18
HETATM   18  C   UNL     1      44.370 -20.359   2.740  1.00  0.00     0.035 A 
HETATM   19  C   UNL     1      44.359 -21.726   2.459  1.00  0.00     0.029 A 
HETATM   20  C   UNL     1      44.508 -22.661   3.489  1.00  0.00     0.002 A 
HETATM   21  C   UNL     1      44.697 -22.238   4.803  1.00  0.00     0.000 A 
HETATM   22  C   UNL     1      44.758 -20.878   5.087  1.00  0.00     0.002 A 
HETATM   23  C   UNL     1      44.606 -19.947   4.058  1.00  0.00     0.029 A 
ENDBRANCH  15  18
ENDBRANCH   1  14
TORSDOF 2
ENDMDL
