MODEL 1
REMARK VINA RESULT:      -8.4      0.000      0.000
REMARK  4 active torsions:
REMARK  status: ('A' for Active; 'I' for Inactive)
REMARK    1  A    between atoms: C_5  and  N_6 
REMARK    2  A    between atoms: C_11  and  C_12 
REMARK    3  A    between atoms: C_13  and  O_14 
REMARK    4  A    between atoms: C_18  and  C_19 
REMARK       I    between atoms: C_19  and  N_20 
ROOT
HETATM    1  C   UNL     1      41.630 -16.423   4.253  1.00  0.00     0.023 A 
HETATM    2  C   UNL     1      40.967 -16.085   5.384  1.00  0.00     0.153 A 
HETATM    3  N   UNL     1      41.357 -16.547   6.595  1.00  0.00    -0.303 N 
HETATM    4  C   UNL     1      42.450 -17.331   6.813  1.00  0.00     0.263 A 
HETATM    5  O   UNL     1      42.734 -17.711   7.947  1.00  0.00    -0.267 OA
HETATM    6  C   UNL     1      43.265 -17.701   5.609  1.00  0.00     0.106 A 
HETATM    7  C   UNL     1      42.826 -17.298   4.386  1.00  0.00    -0.026 A 
HETATM    8  C   UNL     1      43.485 -17.698   3.083  1.00  0.00     0.050 C 
HETATM    9  H   UNL     1      40.816 -16.274   7.406  1.00  0.00     0.171 HD
ENDROOT
BRANCH   1  10
HETATM   10  C   UNL     1      41.162 -15.900   2.976  1.00  0.00     0.035 C 
HETATM   11  C   UNL     1      41.569 -14.784   2.357  1.00  0.00     0.061 A 
HETATM   12  C   UNL     1      42.516 -13.713   2.703  1.00  0.00     0.067 A 
HETATM   13  C   UNL     1      41.132 -14.465   0.974  1.00  0.00     0.281 A 
HETATM   14  N   UNL     1      42.721 -12.900   1.701  1.00  0.00    -0.168 NA
HETATM   15  C   UNL     1      43.188 -13.554   4.025  1.00  0.00     0.073 C 
HETATM   16  N   UNL     1      41.909 -13.343   0.655  1.00  0.00    -0.197 N 
HETATM   17  O   UNL     1      40.333 -15.123   0.333  1.00  0.00    -0.265 OA
BRANCH  16  18
HETATM   18  C   UNL     1      42.010 -12.693  -0.601  1.00  0.00     0.062 A 
HETATM   19  C   UNL     1      41.792 -13.372  -1.806  1.00  0.00     0.032 A 
HETATM   20  C   UNL     1      41.948 -12.724  -3.039  1.00  0.00     0.009 A 
HETATM   21  C   UNL     1      42.320 -11.380  -3.095  1.00  0.00    -0.062 A 
HETATM   22  C   UNL     1      42.517 -10.685  -4.409  1.00  0.00     0.048 C 
HETATM   23  C   UNL     1      42.524 -10.688  -1.898  1.00  0.00     0.009 A 
HETATM   24  C   UNL     1      42.366 -11.337  -0.668  1.00  0.00     0.032 A 
ENDBRANCH  16  18
ENDBRANCH   1  10
BRANCH   2  25
HETATM   25  O   UNL     1      39.872 -15.269   5.468  1.00  0.00    -0.345 OA
HETATM   26  H   UNL     1      39.151 -15.637   4.931  1.00  0.00     0.219 HD
ENDBRANCH   2  25
BRANCH   6  27
HETATM   27  C   UNL     1      44.547 -18.461   5.781  1.00  0.00     0.255 C 
HETATM   28  N   UNL     1      45.535 -17.845   6.485  1.00  0.00    -0.366 N 
HETATM   29  H   UNL     1      45.482 -16.849   6.692  1.00  0.00     0.159 HD
HETATM   30  H   UNL     1      46.445 -18.284   6.495  1.00  0.00     0.159 HD
HETATM   31  O   UNL     1      44.751 -19.567   5.292  1.00  0.00    -0.268 OA
ENDBRANCH   6  27
TORSDOF 4
ENDMDL
MODEL 2
REMARK VINA RESULT:      -8.2      3.691      7.400
REMARK  4 active torsions:
REMARK  status: ('A' for Active; 'I' for Inactive)
REMARK    1  A    between atoms: C_5  and  N_6 
REMARK    2  A    between atoms: C_11  and  C_12 
REMARK    3  A    between atoms: C_13  and  O_14 
REMARK    4  A    between atoms: C_18  and  C_19 
REMARK       I    between atoms: C_19  and  N_20 
ROOT
HETATM    1  C   UNL     1      39.836 -13.249   4.477  1.00  0.00     0.023 A 
HETATM    2  C   UNL     1      39.756 -13.246   5.828  1.00  0.00     0.153 A 
HETATM    3  N   UNL     1      39.550 -12.101   6.522  1.00  0.00    -0.303 N 
HETATM    4  C   UNL     1      39.355 -10.876   5.958  1.00  0.00     0.263 A 
HETATM    5  O   UNL     1      39.177  -9.883   6.660  1.00  0.00    -0.267 OA
HETATM    6  C   UNL     1      39.376 -10.813   4.459  1.00  0.00     0.106 A 
HETATM    7  C   UNL     1      39.660 -11.951   3.771  1.00  0.00    -0.026 A 
HETATM    8  C   UNL     1      39.827 -12.004   2.267  1.00  0.00     0.050 C 
HETATM    9  H   UNL     1      39.513 -12.156   7.532  1.00  0.00     0.171 HD
ENDROOT
BRANCH   1  10
HETATM   10  C   UNL     1      40.064 -14.511   3.784  1.00  0.00     0.035 C 
HETATM   11  C   UNL     1      41.216 -15.186   3.683  1.00  0.00     0.061 A 
HETATM   12  C   UNL     1      42.591 -14.930   4.135  1.00  0.00     0.067 A 
HETATM   13  C   UNL     1      41.263 -16.549   3.096  1.00  0.00     0.281 A 
HETATM   14  N   UNL     1      43.366 -15.965   3.955  1.00  0.00    -0.168 NA
HETATM   15  C   UNL     1      43.072 -13.655   4.744  1.00  0.00     0.073 C 
HETATM   16  N   UNL     1      42.583 -16.948   3.344  1.00  0.00    -0.197 N 
HETATM   17  O   UNL     1      40.308 -17.121   2.600  1.00  0.00    -0.265 OA
BRANCH  16  18
HETATM   18  C   UNL     1      43.154 -18.226   3.121  1.00  0.00     0.062 A 
HETATM   19  C   UNL     1      42.925 -18.943   1.941  1.00  0.00     0.032 A 
HETATM   20  C   UNL     1      43.456 -20.228   1.762  1.00  0.00     0.009 A 
HETATM   21  C   UNL     1      44.232 -20.823   2.758  1.00  0.00    -0.062 A 
HETATM   22  C   UNL     1      44.781 -22.208   2.588  1.00  0.00     0.048 C 
HETATM   23  C   UNL     1      44.480 -20.109   3.933  1.00  0.00     0.009 A 
HETATM   24  C   UNL     1      43.950 -18.826   4.109  1.00  0.00     0.032 A 
ENDBRANCH  16  18
ENDBRANCH   1  10
BRANCH   2  25
HETATM   25  O   UNL     1      39.859 -14.337   6.648  1.00  0.00    -0.345 OA
HETATM   26  H   UNL     1      40.786 -14.623   6.693  1.00  0.00     0.219 HD
ENDBRANCH   2  25
BRANCH   6  27
HETATM   27  C   UNL     1      39.052  -9.524   3.762  1.00  0.00     0.255 C 
HETATM   28  N   UNL     1      40.004  -8.553   3.795  1.00  0.00    -0.366 N 
HETATM   29  H   UNL     1      40.793  -8.620   4.436  1.00  0.00     0.159 HD
HETATM   30  H   UNL     1      39.751  -7.638   3.451  1.00  0.00     0.159 HD
HETATM   31  O   UNL     1      37.978  -9.300   3.214  1.00  0.00    -0.268 OA
ENDBRANCH   6  27
TORSDOF 4
ENDMDL
MODEL 3
REMARK VINA RESULT:      -8.2      3.434      7.659
REMARK  4 active torsions:
REMARK  status: ('A' for Active; 'I' for Inactive)
REMARK    1  A    between atoms: C_5  and  N_6 
REMARK    2  A    between atoms: C_11  and  C_12 
REMARK    3  A    between atoms: C_13  and  O_14 
REMARK    4  A    between atoms: C_18  and  C_19 
REMARK       I    between atoms: C_19  and  N_20 
ROOT
HETATM    1  C   UNL     1      41.075 -12.772   1.677  1.00  0.00     0.023 A 
HETATM    2  C   UNL     1      41.750 -11.680   1.246  1.00  0.00     0.153 A 
HETATM    3  N   UNL     1      41.374 -10.430   1.606  1.00  0.00    -0.303 N 
HETATM    4  C   UNL     1      40.346 -10.142   2.453  1.00  0.00     0.263 A 
HETATM    5  O   UNL     1      40.067  -8.976   2.727  1.00  0.00    -0.267 OA
HETATM    6  C   UNL     1      39.587 -11.308   3.014  1.00  0.00     0.106 A 
HETATM    7  C   UNL     1      39.920 -12.557   2.589  1.00  0.00    -0.026 A 
HETATM    8  C   UNL     1      39.164 -13.808   2.984  1.00  0.00     0.050 C 
HETATM    9  H   UNL     1      41.906  -9.649   1.242  1.00  0.00     0.171 HD
ENDROOT
BRANCH   1  10
HETATM   10  C   UNL     1      41.523 -14.093   1.254  1.00  0.00     0.035 C 
HETATM   11  C   UNL     1      42.310 -14.939   1.931  1.00  0.00     0.061 A 
HETATM   12  C   UNL     1      43.015 -14.868   3.219  1.00  0.00     0.067 A 
HETATM   13  C   UNL     1      42.541 -16.326   1.454  1.00  0.00     0.281 A 
HETATM   14  N   UNL     1      43.533 -16.018   3.557  1.00  0.00    -0.168 NA
HETATM   15  C   UNL     1      43.130 -13.648   4.069  1.00  0.00     0.073 C 
HETATM   16  N   UNL     1      43.249 -16.905   2.516  1.00  0.00    -0.197 N 
HETATM   17  O   UNL     1      42.118 -16.775   0.403  1.00  0.00    -0.265 OA
BRANCH  16  18
HETATM   18  C   UNL     1      43.615 -18.266   2.668  1.00  0.00     0.062 A 
HETATM   19  C   UNL     1      43.368 -19.215   1.669  1.00  0.00     0.032 A 
HETATM   20  C   UNL     1      43.690 -20.566   1.859  1.00  0.00     0.009 A 
HETATM   21  C   UNL     1      44.271 -20.998   3.052  1.00  0.00    -0.062 A 
HETATM   22  C   UNL     1      44.594 -22.445   3.278  1.00  0.00     0.048 C 
HETATM   23  C   UNL     1      44.537 -20.056   4.050  1.00  0.00     0.009 A 
HETATM   24  C   UNL     1      44.216 -18.707   3.857  1.00  0.00     0.032 A 
ENDBRANCH  16  18
ENDBRANCH   1  10
BRANCH   2  25
HETATM   25  O   UNL     1      42.851 -11.676   0.435  1.00  0.00    -0.345 OA
HETATM   26  H   UNL     1      43.464 -12.376   0.717  1.00  0.00     0.219 HD
ENDBRANCH   2  25
BRANCH   6  27
HETATM   27  C   UNL     1      38.520 -11.078   4.044  1.00  0.00     0.255 C 
HETATM   28  N   UNL     1      37.434 -10.360   3.650  1.00  0.00    -0.366 N 
HETATM   29  H   UNL     1      37.448  -9.830   2.780  1.00  0.00     0.159 HD
HETATM   30  H   UNL     1      36.774 -10.082   4.363  1.00  0.00     0.159 HD
HETATM   31  O   UNL     1      38.602 -11.464   5.204  1.00  0.00    -0.268 OA
ENDBRANCH   6  27
TORSDOF 4
ENDMDL
MODEL 4
REMARK VINA RESULT:      -8.2      4.223      5.714
REMARK  4 active torsions:
REMARK  status: ('A' for Active; 'I' for Inactive)
REMARK    1  A    between atoms: C_5  and  N_6 
REMARK    2  A    between atoms: C_11  and  C_12 
REMARK    3  A    between atoms: C_13  and  O_14 
REMARK    4  A    between atoms: C_18  and  C_19 
REMARK       I    between atoms: C_19  and  N_20 
ROOT
HETATM    1  C   UNL     1      43.968 -18.062   4.017  1.00  0.00     0.023 A 
HETATM    2  C   UNL     1      44.557 -18.469   5.166  1.00  0.00     0.153 A 
HETATM    3  N   UNL     1      44.836 -19.775   5.391  1.00  0.00    -0.303 N 
HETATM    4  C   UNL     1      44.614 -20.783   4.500  1.00  0.00     0.263 A 
HETATM    5  O   UNL     1      44.894 -21.945   4.785  1.00  0.00    -0.267 OA
HETATM    6  C   UNL     1      44.012 -20.395   3.182  1.00  0.00     0.106 A 
HETATM    7  C   UNL     1      43.662 -19.095   2.991  1.00  0.00    -0.026 A 
HETATM    8  C   UNL     1      42.943 -18.590   1.758  1.00  0.00     0.050 C 
HETATM    9  H   UNL     1      45.264 -20.025   6.274  1.00  0.00     0.171 HD
ENDROOT
BRANCH   1  10
HETATM   10  C   UNL     1      43.687 -16.644   3.831  1.00  0.00     0.035 C 
HETATM   11  C   UNL     1      42.616 -15.965   4.262  1.00  0.00     0.061 A 
HETATM   12  C   UNL     1      41.387 -16.343   4.976  1.00  0.00     0.067 A 
HETATM   13  C   UNL     1      42.545 -14.486   4.153  1.00  0.00     0.281 A 
HETATM   14  N   UNL     1      40.692 -15.299   5.340  1.00  0.00    -0.168 NA
HETATM   15  C   UNL     1      40.965 -17.742   5.277  1.00  0.00     0.073 C 
HETATM   16  N   UNL     1      41.377 -14.178   4.865  1.00  0.00    -0.197 N 
HETATM   17  O   UNL     1      43.387 -13.792   3.612  1.00  0.00    -0.265 OA
BRANCH  16  18
HETATM   18  C   UNL     1      40.890 -12.892   5.208  1.00  0.00     0.062 A 
HETATM   19  C   UNL     1      41.547 -12.074   6.134  1.00  0.00     0.032 A 
HETATM   20  C   UNL     1      41.021 -10.827   6.499  1.00  0.00     0.009 A 
HETATM   21  C   UNL     1      39.827 -10.368   5.942  1.00  0.00    -0.062 A 
HETATM   22  C   UNL     1      39.239  -9.048   6.346  1.00  0.00     0.048 C 
HETATM   23  C   UNL     1      39.170 -11.170   5.004  1.00  0.00     0.009 A 
HETATM   24  C   UNL     1      39.699 -12.413   4.640  1.00  0.00     0.032 A 
ENDBRANCH  16  18
ENDBRANCH   1  10
BRANCH   2  25
HETATM   25  O   UNL     1      44.942 -17.670   6.207  1.00  0.00    -0.345 OA
HETATM   26  H   UNL     1      45.182 -18.223   6.969  1.00  0.00     0.219 HD
ENDBRANCH   2  25
BRANCH   6  27
HETATM   27  C   UNL     1      43.846 -21.428   2.106  1.00  0.00     0.255 C 
HETATM   28  N   UNL     1      44.982 -22.016   1.642  1.00  0.00    -0.366 N 
HETATM   29  H   UNL     1      45.897 -21.623   1.857  1.00  0.00     0.159 HD
HETATM   30  H   UNL     1      44.903 -22.611   0.828  1.00  0.00     0.159 HD
HETATM   31  O   UNL     1      42.765 -21.726   1.611  1.00  0.00    -0.268 OA
ENDBRANCH   6  27
TORSDOF 4
ENDMDL
MODEL 5
REMARK VINA RESULT:      -8.0      3.266      8.517
REMARK  4 active torsions:
REMARK  status: ('A' for Active; 'I' for Inactive)
REMARK    1  A    between atoms: C_5  and  N_6 
REMARK    2  A    between atoms: C_11  and  C_12 
REMARK    3  A    between atoms: C_13  and  O_14 
REMARK    4  A    between atoms: C_18  and  C_19 
REMARK       I    between atoms: C_19  and  N_20 
ROOT
HETATM    1  C   UNL     1      41.150 -14.049   0.008  1.00  0.00     0.023 A 
HETATM    2  C   UNL     1      40.777 -12.922   0.658  1.00  0.00     0.153 A 
HETATM    3  N   UNL     1      39.789 -12.127   0.185  1.00  0.00    -0.303 N 
HETATM    4  C   UNL     1      39.048 -12.388  -0.930  1.00  0.00     0.263 A 
HETATM    5  O   UNL     1      38.169 -11.610  -1.295  1.00  0.00    -0.267 OA
HETATM    6  C   UNL     1      39.371 -13.651  -1.672  1.00  0.00     0.106 A 
HETATM    7  C   UNL     1      40.415 -14.406  -1.235  1.00  0.00    -0.026 A 
HETATM    8  C   UNL     1      40.920 -15.638  -1.955  1.00  0.00     0.050 C 
HETATM    9  H   UNL     1      39.561 -11.288   0.704  1.00  0.00     0.171 HD
ENDROOT
BRANCH   1  10
HETATM   10  C   UNL     1      42.223 -14.864   0.563  1.00  0.00     0.035 C 
HETATM   11  C   UNL     1      42.125 -15.790   1.524  1.00  0.00     0.061 A 
HETATM   12  C   UNL     1      41.021 -16.276   2.365  1.00  0.00     0.067 A 
HETATM   13  C   UNL     1      43.271 -16.670   1.868  1.00  0.00     0.281 A 
HETATM   14  N   UNL     1      41.362 -17.328   3.060  1.00  0.00    -0.168 NA
HETATM   15  C   UNL     1      39.659 -15.670   2.429  1.00  0.00     0.073 C 
HETATM   16  N   UNL     1      42.702 -17.584   2.765  1.00  0.00    -0.197 N 
HETATM   17  O   UNL     1      44.384 -16.577   1.380  1.00  0.00    -0.265 OA
BRANCH  16  18
HETATM   18  C   UNL     1      43.306 -18.743   3.314  1.00  0.00     0.062 A 
HETATM   19  C   UNL     1      43.590 -18.854   4.681  1.00  0.00     0.032 A 
HETATM   20  C   UNL     1      44.235 -19.986   5.196  1.00  0.00     0.009 A 
HETATM   21  C   UNL     1      44.607 -21.037   4.356  1.00  0.00    -0.062 A 
HETATM   22  C   UNL     1      45.322 -22.242   4.891  1.00  0.00     0.048 C 
HETATM   23  C   UNL     1      44.313 -20.944   2.993  1.00  0.00     0.009 A 
HETATM   24  C   UNL     1      43.667 -19.813   2.481  1.00  0.00     0.032 A 
ENDBRANCH  16  18
ENDBRANCH   1  10
BRANCH   2  25
HETATM   25  O   UNL     1      41.307 -12.448   1.827  1.00  0.00    -0.345 OA
HETATM   26  H   UNL     1      41.157 -13.094   2.537  1.00  0.00     0.219 HD
ENDBRANCH   2  25
BRANCH   6  27
HETATM   27  C   UNL     1      38.524 -14.067  -2.838  1.00  0.00     0.255 C 
HETATM   28  N   UNL     1      38.694 -13.374  -3.997  1.00  0.00    -0.366 N 
HETATM   29  H   UNL     1      39.204 -12.493  -4.006  1.00  0.00     0.159 HD
HETATM   30  H   UNL     1      38.040 -13.550  -4.748  1.00  0.00     0.159 HD
HETATM   31  O   UNL     1      37.679 -14.954  -2.782  1.00  0.00    -0.268 OA
ENDBRANCH   6  27
TORSDOF 4
ENDMDL
MODEL 6
REMARK VINA RESULT:      -8.0      3.358      8.351
REMARK  4 active torsions:
REMARK  status: ('A' for Active; 'I' for Inactive)
REMARK    1  A    between atoms: C_5  and  N_6 
REMARK    2  A    between atoms: C_11  and  C_12 
REMARK    3  A    between atoms: C_13  and  O_14 
REMARK    4  A    between atoms: C_18  and  C_19 
REMARK       I    between atoms: C_19  and  N_20 
ROOT
HETATM    1  C   UNL     1      41.299 -12.767   3.899  1.00  0.00     0.023 A 
HETATM    2  C   UNL     1      41.829 -12.327   2.734  1.00  0.00     0.153 A 
HETATM    3  N   UNL     1      41.235 -11.345   2.015  1.00  0.00    -0.303 N 
HETATM    4  C   UNL     1      40.110 -10.676   2.394  1.00  0.00     0.263 A 
HETATM    5  O   UNL     1      39.632  -9.797   1.679  1.00  0.00    -0.267 OA
HETATM    6  C   UNL     1      39.498 -11.075   3.704  1.00  0.00     0.106 A 
HETATM    7  C   UNL     1      40.054 -12.113   4.385  1.00  0.00    -0.026 A 
HETATM    8  C   UNL     1      39.472 -12.692   5.657  1.00  0.00     0.050 C 
HETATM    9  H   UNL     1      41.668 -11.066   1.143  1.00  0.00     0.171 HD
ENDROOT
BRANCH   1  10
HETATM   10  C   UNL     1      41.979 -13.830   4.629  1.00  0.00     0.035 C 
HETATM   11  C   UNL     1      41.901 -15.148   4.404  1.00  0.00     0.061 A 
HETATM   12  C   UNL     1      41.135 -15.979   3.464  1.00  0.00     0.067 A 
HETATM   13  C   UNL     1      42.787 -16.105   5.113  1.00  0.00     0.281 A 
HETATM   14  N   UNL     1      41.514 -17.228   3.495  1.00  0.00    -0.168 NA
HETATM   15  C   UNL     1      40.057 -15.482   2.560  1.00  0.00     0.073 C 
HETATM   16  N   UNL     1      42.510 -17.319   4.469  1.00  0.00    -0.197 N 
HETATM   17  O   UNL     1      43.579 -15.798   5.987  1.00  0.00    -0.265 OA
BRANCH  16  18
HETATM   18  C   UNL     1      43.175 -18.559   4.643  1.00  0.00     0.062 A 
HETATM   19  C   UNL     1      43.293 -19.165   5.900  1.00  0.00     0.032 A 
HETATM   20  C   UNL     1      43.999 -20.365   6.060  1.00  0.00     0.009 A 
HETATM   21  C   UNL     1      44.599 -20.990   4.966  1.00  0.00    -0.062 A 
HETATM   22  C   UNL     1      45.381 -22.259   5.130  1.00  0.00     0.048 C 
HETATM   23  C   UNL     1      44.473 -20.402   3.704  1.00  0.00     0.009 A 
HETATM   24  C   UNL     1      43.766 -19.204   3.546  1.00  0.00     0.032 A 
ENDBRANCH  16  18
ENDBRANCH   1  10
BRANCH   2  25
HETATM   25  O   UNL     1      42.979 -12.778   2.145  1.00  0.00    -0.345 OA
HETATM   26  H   UNL     1      42.759 -13.437   1.466  1.00  0.00     0.219 HD
ENDBRANCH   2  25
BRANCH   6  27
HETATM   27  C   UNL     1      38.329 -10.307   4.246  1.00  0.00     0.255 C 
HETATM   28  N   UNL     1      37.194 -10.309   3.494  1.00  0.00    -0.366 N 
HETATM   29  H   UNL     1      37.211 -10.628   2.527  1.00  0.00     0.159 HD
HETATM   30  H   UNL     1      36.446  -9.689   3.775  1.00  0.00     0.159 HD
HETATM   31  O   UNL     1      38.363  -9.661   5.287  1.00  0.00    -0.268 OA
ENDBRANCH   6  27
TORSDOF 4
ENDMDL
MODEL 7
REMARK VINA RESULT:      -7.9      4.175      7.392
REMARK  4 active torsions:
REMARK  status: ('A' for Active; 'I' for Inactive)
REMARK    1  A    between atoms: C_5  and  N_6 
REMARK    2  A    between atoms: C_11  and  C_12 
REMARK    3  A    between atoms: C_13  and  O_14 
REMARK    4  A    between atoms: C_18  and  C_19 
REMARK       I    between atoms: C_19  and  N_20 
ROOT
HETATM    1  C   UNL     1      41.215 -12.780   4.325  1.00  0.00     0.023 A 
HETATM    2  C   UNL     1      40.079 -12.533   3.631  1.00  0.00     0.153 A 
HETATM    3  N   UNL     1      39.166 -11.634   4.068  1.00  0.00    -0.303 N 
HETATM    4  C   UNL     1      39.305 -10.866   5.186  1.00  0.00     0.263 A 
HETATM    5  O   UNL     1      38.425 -10.074   5.516  1.00  0.00    -0.267 OA
HETATM    6  C   UNL     1      40.567 -11.049   5.977  1.00  0.00     0.106 A 
HETATM    7  C   UNL     1      41.445 -12.007   5.575  1.00  0.00    -0.026 A 
HETATM    8  C   UNL     1      42.696 -12.374   6.343  1.00  0.00     0.050 C 
HETATM    9  H   UNL     1      38.328 -11.499   3.517  1.00  0.00     0.171 HD
ENDROOT
BRANCH   1  10
HETATM   10  C   UNL     1      42.160 -13.762   3.808  1.00  0.00     0.035 C 
HETATM   11  C   UNL     1      42.238 -15.060   4.126  1.00  0.00     0.061 A 
HETATM   12  C   UNL     1      41.513 -15.925   5.069  1.00  0.00     0.067 A 
HETATM   13  C   UNL     1      43.138 -15.982   3.389  1.00  0.00     0.281 A 
HETATM   14  N   UNL     1      41.821 -17.184   4.914  1.00  0.00    -0.168 NA
HETATM   15  C   UNL     1      40.527 -15.452   6.084  1.00  0.00     0.073 C 
HETATM   16  N   UNL     1      42.785 -17.237   3.904  1.00  0.00    -0.197 N 
HETATM   17  O   UNL     1      43.915 -15.639   2.516  1.00  0.00    -0.265 OA
BRANCH  16  18
HETATM   18  C   UNL     1      43.229 -18.508   3.460  1.00  0.00     0.062 A 
HETATM   19  C   UNL     1      44.144 -19.271   4.195  1.00  0.00     0.032 A 
HETATM   20  C   UNL     1      44.611 -20.501   3.713  1.00  0.00     0.009 A 
HETATM   21  C   UNL     1      44.171 -20.999   2.486  1.00  0.00    -0.062 A 
HETATM   22  C   UNL     1      44.686 -22.301   1.948  1.00  0.00     0.048 C 
HETATM   23  C   UNL     1      43.246 -20.253   1.751  1.00  0.00     0.009 A 
HETATM   24  C   UNL     1      42.779 -19.026   2.236  1.00  0.00     0.032 A 
ENDBRANCH  16  18
ENDBRANCH   1  10
BRANCH   2  25
HETATM   25  O   UNL     1      39.709 -13.115   2.449  1.00  0.00    -0.345 OA
HETATM   26  H   UNL     1      39.470 -12.424   1.809  1.00  0.00     0.219 HD
ENDBRANCH   2  25
BRANCH   6  27
HETATM   27  C   UNL     1      40.846 -10.158   7.151  1.00  0.00     0.255 C 
HETATM   28  N   UNL     1      40.034 -10.299   8.234  1.00  0.00    -0.366 N 
HETATM   29  H   UNL     1      39.162 -10.821   8.165  1.00  0.00     0.159 HD
HETATM   30  H   UNL     1      40.122  -9.619   8.976  1.00  0.00     0.159 HD
HETATM   31  O   UNL     1      41.725  -9.303   7.161  1.00  0.00    -0.268 OA
ENDBRANCH   6  27
TORSDOF 4
ENDMDL
MODEL 8
REMARK VINA RESULT:      -7.9      3.834      7.255
REMARK  4 active torsions:
REMARK  status: ('A' for Active; 'I' for Inactive)
REMARK    1  A    between atoms: C_5  and  N_6 
REMARK    2  A    between atoms: C_11  and  C_12 
REMARK    3  A    between atoms: C_13  and  O_14 
REMARK    4  A    between atoms: C_18  and  C_19 
REMARK       I    between atoms: C_19  and  N_20 
ROOT
HETATM    1  C   UNL     1      40.276 -13.236   3.460  1.00  0.00     0.023 A 
HETATM    2  C   UNL     1      40.281 -12.240   2.544  1.00  0.00     0.153 A 
HETATM    3  N   UNL     1      40.148 -10.943   2.911  1.00  0.00    -0.303 N 
HETATM    4  C   UNL     1      40.050 -10.505   4.198  1.00  0.00     0.263 A 
HETATM    5  O   UNL     1      39.927  -9.308   4.446  1.00  0.00    -0.267 OA
HETATM    6  C   UNL     1      40.092 -11.553   5.271  1.00  0.00     0.106 A 
HETATM    7  C   UNL     1      40.149 -12.859   4.894  1.00  0.00    -0.026 A 
HETATM    8  C   UNL     1      40.080 -14.018   5.865  1.00  0.00     0.050 C 
HETATM    9  H   UNL     1      40.144 -10.240   2.182  1.00  0.00     0.171 HD
ENDROOT
BRANCH   1  10
HETATM   10  C   UNL     1      40.420 -14.614   3.007  1.00  0.00     0.035 C 
HETATM   11  C   UNL     1      41.539 -15.348   2.982  1.00  0.00     0.061 A 
HETATM   12  C   UNL     1      42.945 -15.077   3.314  1.00  0.00     0.067 A 
HETATM   13  C   UNL     1      41.504 -16.797   2.659  1.00  0.00     0.281 A 
HETATM   14  N   UNL     1      43.671 -16.162   3.295  1.00  0.00    -0.168 NA
HETATM   15  C   UNL     1      43.505 -13.735   3.649  1.00  0.00     0.073 C 
HETATM   16  N   UNL     1      42.821 -17.204   2.917  1.00  0.00    -0.197 N 
HETATM   17  O   UNL     1      40.504 -17.407   2.324  1.00  0.00    -0.265 OA
BRANCH  16  18
HETATM   18  C   UNL     1      43.332 -18.526   2.912  1.00  0.00     0.062 A 
HETATM   19  C   UNL     1      43.124 -19.396   1.835  1.00  0.00     0.032 A 
HETATM   20  C   UNL     1      43.592 -20.716   1.872  1.00  0.00     0.009 A 
HETATM   21  C   UNL     1      44.283 -21.196   2.986  1.00  0.00    -0.062 A 
HETATM   22  C   UNL     1      44.764 -22.615   3.048  1.00  0.00     0.048 C 
HETATM   23  C   UNL     1      44.510 -20.331   4.060  1.00  0.00     0.009 A 
HETATM   24  C   UNL     1      44.043 -19.012   4.020  1.00  0.00     0.032 A 
ENDBRANCH  16  18
ENDBRANCH   1  10
BRANCH   2  25
HETATM   25  O   UNL     1      40.421 -12.383   1.191  1.00  0.00    -0.345 OA
HETATM   26  H   UNL     1      40.913 -13.200   1.000  1.00  0.00     0.219 HD
ENDBRANCH   2  25
BRANCH   6  27
HETATM   27  C   UNL     1      40.109 -11.143   6.714  1.00  0.00     0.255 C 
HETATM   28  N   UNL     1      41.312 -10.776   7.232  1.00  0.00    -0.366 N 
HETATM   29  H   UNL     1      42.177 -10.978   6.733  1.00  0.00     0.159 HD
HETATM   30  H   UNL     1      41.366 -10.628   8.231  1.00  0.00     0.159 HD
HETATM   31  O   UNL     1      39.119 -11.161   7.437  1.00  0.00    -0.268 OA
ENDBRANCH   6  27
TORSDOF 4
ENDMDL
MODEL 9
REMARK VINA RESULT:      -7.9      3.426      7.928
REMARK  4 active torsions:
REMARK  status: ('A' for Active; 'I' for Inactive)
REMARK    1  A    between atoms: C_5  and  N_6 
REMARK    2  A    between atoms: C_11  and  C_12 
REMARK    3  A    between atoms: C_13  and  O_14 
REMARK    4  A    between atoms: C_18  and  C_19 
REMARK       I    between atoms: C_19  and  N_20 
ROOT
HETATM    1  C   UNL     1      40.465 -13.229   4.221  1.00  0.00     0.023 A 
HETATM    2  C   UNL     1      39.822 -13.041   5.397  1.00  0.00     0.153 A 
HETATM    3  N   UNL     1      39.490 -11.802   5.830  1.00  0.00    -0.303 N 
HETATM    4  C   UNL     1      39.709 -10.651   5.134  1.00  0.00     0.263 A 
HETATM    5  O   UNL     1      39.379  -9.563   5.602  1.00  0.00    -0.267 OA
HETATM    6  C   UNL     1      40.371 -10.789   3.795  1.00  0.00     0.106 A 
HETATM    7  C   UNL     1      40.771 -12.027   3.399  1.00  0.00    -0.026 A 
HETATM    8  C   UNL     1      41.551 -12.292   2.129  1.00  0.00     0.050 C 
HETATM    9  H   UNL     1      39.022 -11.720   6.724  1.00  0.00     0.171 HD
ENDROOT
BRANCH   1  10
HETATM   10  C   UNL     1      40.802 -14.585   3.807  1.00  0.00     0.035 C 
HETATM   11  C   UNL     1      41.847 -15.321   4.207  1.00  0.00     0.061 A 
HETATM   12  C   UNL     1      42.994 -15.067   5.091  1.00  0.00     0.067 A 
HETATM   13  C   UNL     1      41.969 -16.754   3.838  1.00  0.00     0.281 A 
HETATM   14  N   UNL     1      43.682 -16.153   5.322  1.00  0.00    -0.168 NA
HETATM   15  C   UNL     1      43.349 -13.743   5.680  1.00  0.00     0.073 C 
HETATM   16  N   UNL     1      43.075 -17.174   4.589  1.00  0.00    -0.197 N 
HETATM   17  O   UNL     1      41.199 -17.345   3.101  1.00  0.00    -0.265 OA
BRANCH  16  18
HETATM   18  C   UNL     1      43.565 -18.496   4.736  1.00  0.00     0.062 A 
HETATM   19  C   UNL     1      43.543 -19.161   5.968  1.00  0.00     0.032 A 
HETATM   20  C   UNL     1      44.080 -20.448   6.104  1.00  0.00     0.009 A 
HETATM   21  C   UNL     1      44.648 -21.102   5.010  1.00  0.00    -0.062 A 
HETATM   22  C   UNL     1      45.251 -22.468   5.151  1.00  0.00     0.048 C 
HETATM   23  C   UNL     1      44.660 -20.454   3.772  1.00  0.00     0.009 A 
HETATM   24  C   UNL     1      44.121 -19.170   3.638  1.00  0.00     0.032 A 
ENDBRANCH  16  18
ENDBRANCH   1  10
BRANCH   2  25
HETATM   25  O   UNL     1      39.428 -14.018   6.270  1.00  0.00    -0.345 OA
HETATM   26  H   UNL     1      38.514 -14.281   6.071  1.00  0.00     0.219 HD
ENDBRANCH   2  25
BRANCH   6  27
HETATM   27  C   UNL     1      40.538  -9.582   2.919  1.00  0.00     0.255 C 
HETATM   28  N   UNL     1      41.534  -8.717   3.252  1.00  0.00    -0.366 N 
HETATM   29  H   UNL     1      41.990  -8.774   4.161  1.00  0.00     0.159 HD
HETATM   30  H   UNL     1      41.574  -7.837   2.757  1.00  0.00     0.159 HD
HETATM   31  O   UNL     1      39.810  -9.329   1.965  1.00  0.00    -0.268 OA
ENDBRANCH   6  27
TORSDOF 4
ENDMDL
MODEL 10
REMARK VINA RESULT:      -7.7      2.702      8.478
REMARK  4 active torsions:
REMARK  status: ('A' for Active; 'I' for Inactive)
REMARK    1  A    between atoms: C_5  and  N_6 
REMARK    2  A    between atoms: C_11  and  C_12 
REMARK    3  A    between atoms: C_13  and  O_14 
REMARK    4  A    between atoms: C_18  and  C_19 
REMARK       I    between atoms: C_19  and  N_20 
ROOT
HETATM    1  C   UNL     1      39.742 -14.129   0.777  1.00  0.00     0.023 A 
HETATM    2  C   UNL     1      38.518 -14.342   0.238  1.00  0.00     0.153 A 
HETATM    3  N   UNL     1      38.263 -14.073  -1.064  1.00  0.00    -0.303 N 
HETATM    4  C   UNL     1      39.187 -13.623  -1.960  1.00  0.00     0.263 A 
HETATM    5  O   UNL     1      38.872 -13.399  -3.127  1.00  0.00    -0.267 OA
HETATM    6  C   UNL     1      40.581 -13.416  -1.444  1.00  0.00     0.106 A 
HETATM    7  C   UNL     1      40.812 -13.615  -0.118  1.00  0.00    -0.026 A 
HETATM    8  C   UNL     1      42.139 -13.331   0.554  1.00  0.00     0.050 C 
HETATM    9  H   UNL     1      37.327 -14.238  -1.410  1.00  0.00     0.171 HD
ENDROOT
BRANCH   1  10
HETATM   10  C   UNL     1      39.957 -14.434   2.186  1.00  0.00     0.035 C 
HETATM   11  C   UNL     1      40.532 -15.527   2.702  1.00  0.00     0.061 A 
HETATM   12  C   UNL     1      41.076 -16.764   2.122  1.00  0.00     0.067 A 
HETATM   13  C   UNL     1      40.845 -15.625   4.150  1.00  0.00     0.281 A 
HETATM   14  N   UNL     1      41.700 -17.488   3.011  1.00  0.00    -0.168 NA
HETATM   15  C   UNL     1      40.956 -17.167   0.690  1.00  0.00     0.073 C 
HETATM   16  N   UNL     1      41.581 -16.814   4.229  1.00  0.00    -0.197 N 
HETATM   17  O   UNL     1      40.545 -14.784   4.980  1.00  0.00    -0.265 OA
BRANCH  16  18
HETATM   18  C   UNL     1      42.260 -17.335   5.359  1.00  0.00     0.062 A 
HETATM   19  C   UNL     1      42.007 -16.869   6.655  1.00  0.00     0.032 A 
HETATM   20  C   UNL     1      42.726 -17.359   7.753  1.00  0.00     0.009 A 
HETATM   21  C   UNL     1      43.713 -18.331   7.582  1.00  0.00    -0.062 A 
HETATM   22  C   UNL     1      44.508 -18.842   8.746  1.00  0.00     0.048 C 
HETATM   23  C   UNL     1      43.963 -18.815   6.295  1.00  0.00     0.009 A 
HETATM   24  C   UNL     1      43.242 -18.325   5.200  1.00  0.00     0.032 A 
ENDBRANCH  16  18
ENDBRANCH   1  10
BRANCH   2  25
HETATM   25  O   UNL     1      37.422 -14.840   0.889  1.00  0.00    -0.345 OA
HETATM   26  H   UNL     1      36.758 -14.138   0.988  1.00  0.00     0.219 HD
ENDBRANCH   2  25
BRANCH   6  27
HETATM   27  C   UNL     1      41.678 -13.037  -2.393  1.00  0.00     0.255 C 
HETATM   28  N   UNL     1      42.192 -14.033  -3.165  1.00  0.00    -0.366 N 
HETATM   29  H   UNL     1      41.994 -15.010  -2.953  1.00  0.00     0.159 HD
HETATM   30  H   UNL     1      43.018 -13.825  -3.709  1.00  0.00     0.159 HD
HETATM   31  O   UNL     1      42.148 -11.907  -2.473  1.00  0.00    -0.268 OA
ENDBRANCH   6  27
TORSDOF 4
ENDMDL
