MODEL 1
REMARK VINA RESULT:      -7.9      0.000      0.000
REMARK  9 active torsions:
REMARK  status: ('A' for Active; 'I' for Inactive)
REMARK    1  A    between atoms: C_2  and  N_3 
REMARK    2  A    between atoms: C_6  and  C_7 
REMARK    3  A    between atoms: C_7  and  O_8 
REMARK    4  A    between atoms: O_8  and  C_9 
REMARK    5  A    between atoms: C_12  and  C_13 
REMARK    6  A    between atoms: C_14  and  C_15 
REMARK       I    between atoms: C_15  and  N_16 
REMARK    7  A    between atoms: N_16  and  C_17 
REMARK    8  A    between atoms: C_18  and  C_19 
REMARK       I    between atoms: C_19  and  N_20 
REMARK    9  A    between atoms: N_20  and  C_21 
ROOT
HETATM    1  C   UNL     1      42.757 -18.126   1.880  1.00  0.00     0.245 C 
HETATM    2  N   UNL     1      43.992 -18.745   1.987  1.00  0.00    -0.323 N 
HETATM    3  O   UNL     1      41.695 -18.549   2.312  1.00  0.00    -0.268 OA
HETATM    4  H   UNL     1      44.782 -18.112   1.927  1.00  0.00     0.169 HD
ENDROOT
BRANCH   1   5
HETATM    5  C   UNL     1      42.877 -16.775   1.277  1.00  0.00     0.075 C 
HETATM    6  C   UNL     1      41.751 -16.080   1.054  1.00  0.00     0.020 C 
BRANCH   6   7
HETATM    7  C   UNL     1      41.667 -14.770   0.485  1.00  0.00     0.005 A 
HETATM    8  C   UNL     1      41.993 -13.542   1.151  1.00  0.00     0.073 A 
HETATM    9  C   UNL     1      41.846 -12.532   0.199  1.00  0.00     0.025 A 
HETATM   10  N   UNL     1      41.488 -13.116  -0.999  1.00  0.00    -0.353 N 
HETATM   11  C   UNL     1      42.057 -11.061   0.379  1.00  0.00     0.069 C 
HETATM   12  C   UNL     1      41.338 -14.483  -0.831  1.00  0.00     0.019 A 
HETATM   13  C   UNL     1      40.959 -15.378  -1.965  1.00  0.00     0.069 C 
BRANCH   8  14
HETATM   14  C   UNL     1      42.411 -13.313   2.544  1.00  0.00     0.296 C 
HETATM   15  O   UNL     1      43.523 -13.606   2.975  1.00  0.00    -0.259 OA
BRANCH  14  16
HETATM   16  O   UNL     1      41.432 -12.755   3.309  1.00  0.00    -0.318 OA
BRANCH  16  17
HETATM   17  C   UNL     1      40.336 -13.604   3.671  1.00  0.00     0.174 C 
HETATM   18  C   UNL     1      39.869 -13.282   5.078  1.00  0.00     0.034 C 
ENDBRANCH  16  17
ENDBRANCH  14  16
ENDBRANCH   8  14
BRANCH  10  19
HETATM   19  C   UNL     1      41.362 -12.412  -2.272  1.00  0.00     0.124 C 
HETATM   20  C   UNL     1      42.677 -12.324  -3.027  1.00  0.00     0.027 C 
ENDBRANCH  10  19
ENDBRANCH   6   7
ENDBRANCH   1   5
BRANCH   2  21
HETATM   21  C   UNL     1      44.188 -19.901   2.789  1.00  0.00     0.050 A 
HETATM   22  C   UNL     1      44.426 -19.912   4.177  1.00  0.00     0.058 A 
HETATM   23  C   UNL     1      44.749 -21.131   4.805  1.00  0.00     0.019 A 
HETATM   24  C   UNL     1      44.790 -22.325   4.086  1.00  0.00     0.001 A 
HETATM   25  C   UNL     1      44.487 -22.322   2.730  1.00  0.00     0.002 A 
HETATM   26  C   UNL     1      44.177 -21.122   2.089  1.00  0.00     0.030 A 
BRANCH  22  27
HETATM   27  C   UNL     1      44.232 -18.758   5.107  1.00  0.00     0.254 C 
HETATM   28  N   UNL     1      42.926 -18.357   5.323  1.00  0.00    -0.352 N 
HETATM   29  H   UNL     1      42.187 -18.805   4.799  1.00  0.00     0.163 HD
HETATM   30  O   UNL     1      45.188 -18.294   5.724  1.00  0.00    -0.268 OA
BRANCH  28  31
HETATM   31  C   UNL     1      42.597 -17.307   6.231  1.00  0.00     0.084 A 
HETATM   32  C   UNL     1      42.508 -15.885   5.750  1.00  0.00     0.027 A 
HETATM   33  C   UNL     1      41.264 -16.615   6.162  1.00  0.00     0.027 A 
ENDBRANCH  28  31
ENDBRANCH  22  27
ENDBRANCH   2  21
TORSDOF 9
ENDMDL
MODEL 2
REMARK VINA RESULT:      -7.8      1.914      2.322
REMARK  9 active torsions:
REMARK  status: ('A' for Active; 'I' for Inactive)
REMARK    1  A    between atoms: C_2  and  N_3 
REMARK    2  A    between atoms: C_6  and  C_7 
REMARK    3  A    between atoms: C_7  and  O_8 
REMARK    4  A    between atoms: O_8  and  C_9 
REMARK    5  A    between atoms: C_12  and  C_13 
REMARK    6  A    between atoms: C_14  and  C_15 
REMARK       I    between atoms: C_15  and  N_16 
REMARK    7  A    between atoms: N_16  and  C_17 
REMARK    8  A    between atoms: C_18  and  C_19 
REMARK       I    between atoms: C_19  and  N_20 
REMARK    9  A    between atoms: N_20  and  C_21 
ROOT
HETATM    1  C   UNL     1      42.709 -17.602   1.222  1.00  0.00     0.245 C 
HETATM    2  N   UNL     1      42.314 -18.597   2.102  1.00  0.00    -0.323 N 
HETATM    3  O   UNL     1      43.848 -17.388   0.835  1.00  0.00    -0.268 OA
HETATM    4  H   UNL     1      41.342 -18.869   2.014  1.00  0.00     0.169 HD
ENDROOT
BRANCH   1   5
HETATM    5  C   UNL     1      41.542 -16.872   0.668  1.00  0.00     0.075 C 
HETATM    6  C   UNL     1      41.756 -15.677   0.098  1.00  0.00     0.020 C 
BRANCH   6   7
HETATM    7  C   UNL     1      40.761 -14.831  -0.488  1.00  0.00     0.005 A 
HETATM    8  C   UNL     1      40.037 -13.793   0.188  1.00  0.00     0.073 A 
HETATM    9  C   UNL     1      39.243 -13.179  -0.781  1.00  0.00     0.025 A 
HETATM   10  N   UNL     1      39.498 -13.783  -1.995  1.00  0.00    -0.353 N 
HETATM   11  C   UNL     1      38.288 -12.041  -0.600  1.00  0.00     0.069 C 
HETATM   12  C   UNL     1      40.398 -14.822  -1.826  1.00  0.00     0.019 A 
HETATM   13  C   UNL     1      40.865 -15.654  -2.975  1.00  0.00     0.069 C 
BRANCH   8  14
HETATM   14  C   UNL     1      40.076 -13.393   1.604  1.00  0.00     0.296 C 
HETATM   15  O   UNL     1      40.607 -12.361   2.003  1.00  0.00    -0.259 OA
BRANCH  14  16
HETATM   16  O   UNL     1      39.472 -14.294   2.429  1.00  0.00    -0.318 OA
BRANCH  16  17
HETATM   17  C   UNL     1      39.913 -14.315   3.792  1.00  0.00     0.174 C 
HETATM   18  C   UNL     1      40.817 -15.510   4.030  1.00  0.00     0.034 C 
ENDBRANCH  16  17
ENDBRANCH  14  16
ENDBRANCH   8  14
BRANCH  10  19
HETATM   19  C   UNL     1      38.960 -13.345  -3.280  1.00  0.00     0.124 C 
HETATM   20  C   UNL     1      37.643 -14.016  -3.625  1.00  0.00     0.027 C 
ENDBRANCH  10  19
ENDBRANCH   6   7
ENDBRANCH   1   5
BRANCH   2  21
HETATM   21  C   UNL     1      43.203 -19.618   2.532  1.00  0.00     0.050 A 
HETATM   22  C   UNL     1      44.082 -19.538   3.631  1.00  0.00     0.058 A 
HETATM   23  C   UNL     1      45.009 -20.579   3.841  1.00  0.00     0.019 A 
HETATM   24  C   UNL     1      45.037 -21.699   3.011  1.00  0.00     0.001 A 
HETATM   25  C   UNL     1      44.123 -21.807   1.970  1.00  0.00     0.002 A 
HETATM   26  C   UNL     1      43.206 -20.780   1.740  1.00  0.00     0.030 A 
BRANCH  22  27
HETATM   27  C   UNL     1      44.043 -18.504   4.709  1.00  0.00     0.254 C 
HETATM   28  N   UNL     1      44.406 -18.925   5.976  1.00  0.00    -0.352 N 
HETATM   29  H   UNL     1      44.605 -19.905   6.124  1.00  0.00     0.163 HD
HETATM   30  O   UNL     1      43.818 -17.329   4.430  1.00  0.00    -0.268 OA
BRANCH  28  31
HETATM   31  C   UNL     1      44.467 -18.028   7.083  1.00  0.00     0.084 A 
HETATM   32  C   UNL     1      43.212 -17.624   7.805  1.00  0.00     0.027 A 
HETATM   33  C   UNL     1      44.213 -18.511   8.485  1.00  0.00     0.027 A 
ENDBRANCH  28  31
ENDBRANCH  22  27
ENDBRANCH   2  21
TORSDOF 9
ENDMDL
MODEL 3
REMARK VINA RESULT:      -7.7      2.503      3.719
REMARK  9 active torsions:
REMARK  status: ('A' for Active; 'I' for Inactive)
REMARK    1  A    between atoms: C_2  and  N_3 
REMARK    2  A    between atoms: C_6  and  C_7 
REMARK    3  A    between atoms: C_7  and  O_8 
REMARK    4  A    between atoms: O_8  and  C_9 
REMARK    5  A    between atoms: C_12  and  C_13 
REMARK    6  A    between atoms: C_14  and  C_15 
REMARK       I    between atoms: C_15  and  N_16 
REMARK    7  A    between atoms: N_16  and  C_17 
REMARK    8  A    between atoms: C_18  and  C_19 
REMARK       I    between atoms: C_19  and  N_20 
REMARK    9  A    between atoms: N_20  and  C_21 
ROOT
HETATM    1  C   UNL     1      42.699 -17.742   1.115  1.00  0.00     0.245 C 
HETATM    2  N   UNL     1      42.347 -18.654   2.097  1.00  0.00    -0.323 N 
HETATM    3  O   UNL     1      43.806 -17.607   0.616  1.00  0.00    -0.268 OA
HETATM    4  H   UNL     1      41.361 -18.888   2.114  1.00  0.00     0.169 HD
ENDROOT
BRANCH   1   5
HETATM    5  C   UNL     1      41.516 -17.002   0.611  1.00  0.00     0.075 C 
HETATM    6  C   UNL     1      41.637 -15.682   0.401  1.00  0.00     0.020 C 
BRANCH   6   7
HETATM    7  C   UNL     1      40.613 -14.806  -0.079  1.00  0.00     0.005 A 
HETATM    8  C   UNL     1      40.514 -14.280  -1.410  1.00  0.00     0.073 A 
HETATM    9  C   UNL     1      39.325 -13.549  -1.452  1.00  0.00     0.025 A 
HETATM   10  N   UNL     1      38.708 -13.658  -0.222  1.00  0.00    -0.353 N 
HETATM   11  C   UNL     1      38.754 -12.789  -2.607  1.00  0.00     0.069 C 
HETATM   12  C   UNL     1      39.503 -14.393   0.642  1.00  0.00     0.019 A 
HETATM   13  C   UNL     1      39.084 -14.679   2.046  1.00  0.00     0.069 C 
BRANCH   8  14
HETATM   14  C   UNL     1      41.430 -14.438  -2.551  1.00  0.00     0.296 C 
HETATM   15  O   UNL     1      41.229 -15.216  -3.479  1.00  0.00    -0.259 OA
BRANCH  14  16
HETATM   16  O   UNL     1      42.532 -13.641  -2.464  1.00  0.00    -0.318 OA
BRANCH  16  17
HETATM   17  C   UNL     1      42.427 -12.333  -3.039  1.00  0.00     0.174 C 
HETATM   18  C   UNL     1      42.793 -11.280  -2.009  1.00  0.00     0.034 C 
ENDBRANCH  16  17
ENDBRANCH  14  16
ENDBRANCH   8  14
BRANCH  10  19
HETATM   19  C   UNL     1      37.381 -13.141   0.100  1.00  0.00     0.124 C 
HETATM   20  C   UNL     1      37.425 -11.752   0.713  1.00  0.00     0.027 C 
ENDBRANCH  10  19
ENDBRANCH   6   7
ENDBRANCH   1   5
BRANCH   2  21
HETATM   21  C   UNL     1      43.231 -19.681   2.523  1.00  0.00     0.050 A 
HETATM   22  C   UNL     1      44.126 -19.601   3.608  1.00  0.00     0.058 A 
HETATM   23  C   UNL     1      45.045 -20.650   3.814  1.00  0.00     0.019 A 
HETATM   24  C   UNL     1      45.050 -21.777   2.993  1.00  0.00     0.001 A 
HETATM   25  C   UNL     1      44.120 -21.884   1.967  1.00  0.00     0.002 A 
HETATM   26  C   UNL     1      43.210 -20.850   1.741  1.00  0.00     0.030 A 
BRANCH  22  27
HETATM   27  C   UNL     1      44.114 -18.558   4.679  1.00  0.00     0.254 C 
HETATM   28  N   UNL     1      44.489 -18.972   5.944  1.00  0.00    -0.352 N 
HETATM   29  H   UNL     1      44.680 -19.953   6.097  1.00  0.00     0.163 HD
HETATM   30  O   UNL     1      43.897 -17.383   4.393  1.00  0.00    -0.268 OA
BRANCH  28  31
HETATM   31  C   UNL     1      44.576 -18.067   7.042  1.00  0.00     0.084 A 
HETATM   32  C   UNL     1      43.335 -17.638   7.775  1.00  0.00     0.027 A 
HETATM   33  C   UNL     1      44.331 -18.533   8.451  1.00  0.00     0.027 A 
ENDBRANCH  28  31
ENDBRANCH  22  27
ENDBRANCH   2  21
TORSDOF 9
ENDMDL
MODEL 4
REMARK VINA RESULT:      -7.5      2.116      7.575
REMARK  9 active torsions:
REMARK  status: ('A' for Active; 'I' for Inactive)
REMARK    1  A    between atoms: C_2  and  N_3 
REMARK    2  A    between atoms: C_6  and  C_7 
REMARK    3  A    between atoms: C_7  and  O_8 
REMARK    4  A    between atoms: O_8  and  C_9 
REMARK    5  A    between atoms: C_12  and  C_13 
REMARK    6  A    between atoms: C_14  and  C_15 
REMARK       I    between atoms: C_15  and  N_16 
REMARK    7  A    between atoms: N_16  and  C_17 
REMARK    8  A    between atoms: C_18  and  C_19 
REMARK       I    between atoms: C_19  and  N_20 
REMARK    9  A    between atoms: N_20  and  C_21 
ROOT
HETATM    1  C   UNL     1      41.303 -15.824   0.790  1.00  0.00     0.245 C 
HETATM    2  N   UNL     1      41.723 -15.303  -0.423  1.00  0.00    -0.323 N 
HETATM    3  O   UNL     1      40.146 -15.933   1.171  1.00  0.00    -0.268 OA
HETATM    4  H   UNL     1      42.633 -15.632  -0.724  1.00  0.00     0.169 HD
ENDROOT
BRANCH   1   5
HETATM    5  C   UNL     1      42.439 -16.386   1.564  1.00  0.00     0.075 C 
HETATM    6  C   UNL     1      42.163 -17.092   2.670  1.00  0.00     0.020 C 
BRANCH   6   7
HETATM    7  C   UNL     1      43.120 -17.706   3.539  1.00  0.00     0.005 A 
HETATM    8  C   UNL     1      43.494 -17.237   4.842  1.00  0.00     0.073 A 
HETATM    9  C   UNL     1      44.384 -18.182   5.355  1.00  0.00     0.025 A 
HETATM   10  N   UNL     1      44.516 -19.197   4.430  1.00  0.00    -0.353 N 
HETATM   11  C   UNL     1      45.079 -18.166   6.681  1.00  0.00     0.069 C 
HETATM   12  C   UNL     1      43.778 -18.902   3.296  1.00  0.00     0.019 A 
HETATM   13  C   UNL     1      43.727 -19.829   2.126  1.00  0.00     0.069 C 
BRANCH   8  14
HETATM   14  C   UNL     1      43.065 -16.026   5.562  1.00  0.00     0.296 C 
HETATM   15  O   UNL     1      42.245 -16.034   6.475  1.00  0.00    -0.259 OA
BRANCH  14  16
HETATM   16  O   UNL     1      43.664 -14.892   5.100  1.00  0.00    -0.318 OA
BRANCH  16  17
HETATM   17  C   UNL     1      42.809 -13.770   4.851  1.00  0.00     0.174 C 
HETATM   18  C   UNL     1      42.898 -13.359   3.393  1.00  0.00     0.034 C 
ENDBRANCH  16  17
ENDBRANCH  14  16
ENDBRANCH   8  14
BRANCH  10  19
HETATM   19  C   UNL     1      45.261 -20.435   4.643  1.00  0.00     0.124 C 
HETATM   20  C   UNL     1      44.474 -21.464   5.435  1.00  0.00     0.027 C 
ENDBRANCH  10  19
ENDBRANCH   6   7
ENDBRANCH   1   5
BRANCH   2  21
HETATM   21  C   UNL     1      40.808 -14.983  -1.462  1.00  0.00     0.050 A 
HETATM   22  C   UNL     1      39.918 -13.891  -1.469  1.00  0.00     0.058 A 
HETATM   23  C   UNL     1      38.968 -13.792  -2.505  1.00  0.00     0.019 A 
HETATM   24  C   UNL     1      38.928 -14.726  -3.540  1.00  0.00     0.001 A 
HETATM   25  C   UNL     1      39.852 -15.762  -3.567  1.00  0.00     0.002 A 
HETATM   26  C   UNL     1      40.793 -15.883  -2.542  1.00  0.00     0.030 A 
BRANCH  22  27
HETATM   27  C   UNL     1      39.964 -12.718  -0.544  1.00  0.00     0.254 C 
HETATM   28  N   UNL     1      39.381 -12.892   0.698  1.00  0.00    -0.352 N 
HETATM   29  H   UNL     1      38.898 -13.759   0.892  1.00  0.00     0.163 HD
HETATM   30  O   UNL     1      40.599 -11.713  -0.853  1.00  0.00    -0.268 OA
BRANCH  28  31
HETATM   31  C   UNL     1      39.405 -11.873   1.696  1.00  0.00     0.084 A 
HETATM   32  C   UNL     1      38.123 -11.357   2.288  1.00  0.00     0.027 A 
HETATM   33  C   UNL     1      39.056 -12.181   3.125  1.00  0.00     0.027 A 
ENDBRANCH  28  31
ENDBRANCH  22  27
ENDBRANCH   2  21
TORSDOF 9
ENDMDL
MODEL 5
REMARK VINA RESULT:      -7.4      2.233      8.085
REMARK  9 active torsions:
REMARK  status: ('A' for Active; 'I' for Inactive)
REMARK    1  A    between atoms: C_2  and  N_3 
REMARK    2  A    between atoms: C_6  and  C_7 
REMARK    3  A    between atoms: C_7  and  O_8 
REMARK    4  A    between atoms: O_8  and  C_9 
REMARK    5  A    between atoms: C_12  and  C_13 
REMARK    6  A    between atoms: C_14  and  C_15 
REMARK       I    between atoms: C_15  and  N_16 
REMARK    7  A    between atoms: N_16  and  C_17 
REMARK    8  A    between atoms: C_18  and  C_19 
REMARK       I    between atoms: C_19  and  N_20 
REMARK    9  A    between atoms: N_20  and  C_21 
ROOT
HETATM    1  C   UNL     1      41.397 -15.760   0.932  1.00  0.00     0.245 C 
HETATM    2  N   UNL     1      40.674 -14.798   1.621  1.00  0.00    -0.323 N 
HETATM    3  O   UNL     1      41.244 -16.082  -0.236  1.00  0.00    -0.268 OA
HETATM    4  H   UNL     1      41.162 -14.401   2.416  1.00  0.00     0.169 HD
ENDROOT
BRANCH   1   5
HETATM    5  C   UNL     1      42.514 -16.291   1.753  1.00  0.00     0.075 C 
HETATM    6  C   UNL     1      42.235 -17.224   2.674  1.00  0.00     0.020 C 
BRANCH   6   7
HETATM    7  C   UNL     1      43.174 -17.851   3.554  1.00  0.00     0.005 A 
HETATM    8  C   UNL     1      43.600 -17.344   4.826  1.00  0.00     0.073 A 
HETATM    9  C   UNL     1      44.448 -18.312   5.367  1.00  0.00     0.025 A 
HETATM   10  N   UNL     1      44.506 -19.375   4.487  1.00  0.00    -0.353 N 
HETATM   11  C   UNL     1      45.170 -18.275   6.677  1.00  0.00     0.069 C 
HETATM   12  C   UNL     1      43.761 -19.091   3.355  1.00  0.00     0.019 A 
HETATM   13  C   UNL     1      43.636 -20.065   2.230  1.00  0.00     0.069 C 
BRANCH   8  14
HETATM   14  C   UNL     1      43.253 -16.080   5.496  1.00  0.00     0.296 C 
HETATM   15  O   UNL     1      43.749 -14.997   5.200  1.00  0.00    -0.259 OA
BRANCH  14  16
HETATM   16  O   UNL     1      42.333 -16.239   6.490  1.00  0.00    -0.318 OA
BRANCH  16  17
HETATM   17  C   UNL     1      40.968 -16.396   6.083  1.00  0.00     0.174 C 
HETATM   18  C   UNL     1      40.373 -15.049   5.719  1.00  0.00     0.034 C 
ENDBRANCH  16  17
ENDBRANCH  14  16
ENDBRANCH   8  14
BRANCH  10  19
HETATM   19  C   UNL     1      45.186 -20.641   4.744  1.00  0.00     0.124 C 
HETATM   20  C   UNL     1      44.395 -21.556   5.661  1.00  0.00     0.027 C 
ENDBRANCH  10  19
ENDBRANCH   6   7
ENDBRANCH   1   5
BRANCH   2  21
HETATM   21  C   UNL     1      39.756 -13.935   0.966  1.00  0.00     0.050 A 
HETATM   22  C   UNL     1      40.081 -12.735   0.303  1.00  0.00     0.058 A 
HETATM   23  C   UNL     1      39.038 -11.912  -0.169  1.00  0.00     0.019 A 
HETATM   24  C   UNL     1      37.703 -12.289  -0.032  1.00  0.00     0.001 A 
HETATM   25  C   UNL     1      37.389 -13.506   0.560  1.00  0.00     0.002 A 
HETATM   26  C   UNL     1      38.407 -14.327   1.045  1.00  0.00     0.030 A 
BRANCH  22  27
HETATM   27  C   UNL     1      41.455 -12.295  -0.087  1.00  0.00     0.254 C 
HETATM   28  N   UNL     1      41.571 -11.659  -1.309  1.00  0.00    -0.352 N 
HETATM   29  H   UNL     1      40.754 -11.587  -1.900  1.00  0.00     0.163 HD
HETATM   30  O   UNL     1      42.385 -12.396   0.710  1.00  0.00    -0.268 OA
BRANCH  28  31
HETATM   31  C   UNL     1      42.814 -11.138  -1.777  1.00  0.00     0.084 A 
HETATM   32  C   UNL     1      42.852 -10.182  -2.936  1.00  0.00     0.027 A 
HETATM   33  C   UNL     1      43.181  -9.697  -1.555  1.00  0.00     0.027 A 
ENDBRANCH  28  31
ENDBRANCH  22  27
ENDBRANCH   2  21
TORSDOF 9
ENDMDL
MODEL 6
REMARK VINA RESULT:      -7.4      2.956      7.782
REMARK  9 active torsions:
REMARK  status: ('A' for Active; 'I' for Inactive)
REMARK    1  A    between atoms: C_2  and  N_3 
REMARK    2  A    between atoms: C_6  and  C_7 
REMARK    3  A    between atoms: C_7  and  O_8 
REMARK    4  A    between atoms: O_8  and  C_9 
REMARK    5  A    between atoms: C_12  and  C_13 
REMARK    6  A    between atoms: C_14  and  C_15 
REMARK       I    between atoms: C_15  and  N_16 
REMARK    7  A    between atoms: N_16  and  C_17 
REMARK    8  A    between atoms: C_18  and  C_19 
REMARK       I    between atoms: C_19  and  N_20 
REMARK    9  A    between atoms: N_20  and  C_21 
ROOT
HETATM    1  C   UNL     1      42.982 -14.059   3.536  1.00  0.00     0.245 C 
HETATM    2  N   UNL     1      41.896 -14.096   4.396  1.00  0.00    -0.323 N 
HETATM    3  O   UNL     1      43.568 -13.058   3.153  1.00  0.00    -0.268 OA
HETATM    4  H   UNL     1      41.788 -14.973   4.893  1.00  0.00     0.169 HD
ENDROOT
BRANCH   1   5
HETATM    5  C   UNL     1      43.470 -15.424   3.217  1.00  0.00     0.075 C 
HETATM    6  C   UNL     1      43.215 -16.408   4.091  1.00  0.00     0.020 C 
BRANCH   6   7
HETATM    7  C   UNL     1      43.602 -17.779   3.956  1.00  0.00     0.005 A 
HETATM    8  C   UNL     1      43.516 -18.562   2.757  1.00  0.00     0.073 A 
HETATM    9  C   UNL     1      44.077 -19.803   3.062  1.00  0.00     0.025 A 
HETATM   10  N   UNL     1      44.521 -19.767   4.369  1.00  0.00    -0.353 N 
HETATM   11  C   UNL     1      44.228 -20.990   2.163  1.00  0.00     0.069 C 
HETATM   12  C   UNL     1      44.203 -18.547   4.942  1.00  0.00     0.019 A 
HETATM   13  C   UNL     1      44.567 -18.221   6.353  1.00  0.00     0.069 C 
BRANCH   8  14
HETATM   14  C   UNL     1      42.972 -18.201   1.438  1.00  0.00     0.296 C 
HETATM   15  O   UNL     1      43.670 -17.890   0.478  1.00  0.00    -0.259 OA
BRANCH  14  16
HETATM   16  O   UNL     1      41.610 -18.233   1.397  1.00  0.00    -0.318 OA
BRANCH  16  17
HETATM   17  C   UNL     1      40.952 -17.047   0.936  1.00  0.00     0.174 C 
HETATM   18  C   UNL     1      40.107 -16.454   2.048  1.00  0.00     0.034 C 
ENDBRANCH  16  17
ENDBRANCH  14  16
ENDBRANCH   8  14
BRANCH  10  19
HETATM   19  C   UNL     1      45.280 -20.827   5.027  1.00  0.00     0.124 C 
HETATM   20  C   UNL     1      44.391 -21.820   5.756  1.00  0.00     0.027 C 
ENDBRANCH  10  19
ENDBRANCH   6   7
ENDBRANCH   1   5
BRANCH   2  21
HETATM   21  C   UNL     1      41.437 -12.939   5.080  1.00  0.00     0.050 A 
HETATM   22  C   UNL     1      41.929 -12.459   6.310  1.00  0.00     0.058 A 
HETATM   23  C   UNL     1      41.270 -11.382   6.935  1.00  0.00     0.019 A 
HETATM   24  C   UNL     1      40.175 -10.760   6.336  1.00  0.00     0.001 A 
HETATM   25  C   UNL     1      39.735 -11.191   5.091  1.00  0.00     0.002 A 
HETATM   26  C   UNL     1      40.369 -12.264   4.463  1.00  0.00     0.030 A 
BRANCH  22  27
HETATM   27  C   UNL     1      43.195 -12.892   6.976  1.00  0.00     0.254 C 
HETATM   28  N   UNL     1      43.575 -12.177   8.097  1.00  0.00    -0.352 N 
HETATM   29  H   UNL     1      43.031 -11.368   8.365  1.00  0.00     0.163 HD
HETATM   30  O   UNL     1      43.776 -13.907   6.597  1.00  0.00    -0.268 OA
BRANCH  28  31
HETATM   31  C   UNL     1      44.731 -12.521   8.859  1.00  0.00     0.084 A 
HETATM   32  C   UNL     1      45.694 -11.456   9.304  1.00  0.00     0.027 A 
HETATM   33  C   UNL     1      44.834 -12.157  10.314  1.00  0.00     0.027 A 
ENDBRANCH  28  31
ENDBRANCH  22  27
ENDBRANCH   2  21
TORSDOF 9
ENDMDL
MODEL 7
REMARK VINA RESULT:      -7.3      1.852      3.403
REMARK  9 active torsions:
REMARK  status: ('A' for Active; 'I' for Inactive)
REMARK    1  A    between atoms: C_2  and  N_3 
REMARK    2  A    between atoms: C_6  and  C_7 
REMARK    3  A    between atoms: C_7  and  O_8 
REMARK    4  A    between atoms: O_8  and  C_9 
REMARK    5  A    between atoms: C_12  and  C_13 
REMARK    6  A    between atoms: C_14  and  C_15 
REMARK       I    between atoms: C_15  and  N_16 
REMARK    7  A    between atoms: N_16  and  C_17 
REMARK    8  A    between atoms: C_18  and  C_19 
REMARK       I    between atoms: C_19  and  N_20 
REMARK    9  A    between atoms: N_20  and  C_21 
ROOT
HETATM    1  C   UNL     1      42.726 -17.903   1.563  1.00  0.00     0.245 C 
HETATM    2  N   UNL     1      43.952 -18.526   1.735  1.00  0.00    -0.323 N 
HETATM    3  O   UNL     1      41.635 -18.355   1.875  1.00  0.00    -0.268 OA
HETATM    4  H   UNL     1      44.739 -17.888   1.783  1.00  0.00     0.169 HD
ENDROOT
BRANCH   1   5
HETATM    5  C   UNL     1      42.886 -16.515   1.061  1.00  0.00     0.075 C 
HETATM    6  C   UNL     1      41.789 -15.858   0.658  1.00  0.00     0.020 C 
BRANCH   6   7
HETATM    7  C   UNL     1      41.745 -14.522   0.147  1.00  0.00     0.005 A 
HETATM    8  C   UNL     1      41.359 -14.143  -1.181  1.00  0.00     0.073 A 
HETATM    9  C   UNL     1      41.383 -12.747  -1.210  1.00  0.00     0.025 A 
HETATM   10  N   UNL     1      41.726 -12.296   0.049  1.00  0.00    -0.353 N 
HETATM   11  C   UNL     1      41.069 -11.846  -2.363  1.00  0.00     0.069 C 
HETATM   12  C   UNL     1      41.988 -13.371   0.881  1.00  0.00     0.019 A 
HETATM   13  C   UNL     1      42.379 -13.183   2.310  1.00  0.00     0.069 C 
BRANCH   8  14
HETATM   14  C   UNL     1      40.992 -14.989  -2.329  1.00  0.00     0.296 C 
HETATM   15  O   UNL     1      41.808 -15.444  -3.124  1.00  0.00    -0.259 OA
BRANCH  14  16
HETATM   16  O   UNL     1      39.650 -15.203  -2.424  1.00  0.00    -0.318 OA
BRANCH  16  17
HETATM   17  C   UNL     1      39.046 -14.942  -3.697  1.00  0.00     0.174 C 
HETATM   18  C   UNL     1      38.786 -16.246  -4.428  1.00  0.00     0.034 C 
ENDBRANCH  16  17
ENDBRANCH  14  16
ENDBRANCH   8  14
BRANCH  10  19
HETATM   19  C   UNL     1      41.737 -10.896   0.464  1.00  0.00     0.124 C 
HETATM   20  C   UNL     1      40.383 -10.421   0.962  1.00  0.00     0.027 C 
ENDBRANCH  10  19
ENDBRANCH   6   7
ENDBRANCH   1   5
BRANCH   2  21
HETATM   21  C   UNL     1      44.088 -19.731   2.474  1.00  0.00     0.050 A 
HETATM   22  C   UNL     1      44.253 -19.828   3.869  1.00  0.00     0.058 A 
HETATM   23  C   UNL     1      44.524 -21.089   4.439  1.00  0.00     0.019 A 
HETATM   24  C   UNL     1      44.583 -22.239   3.652  1.00  0.00     0.001 A 
HETATM   25  C   UNL     1      44.351 -22.149   2.285  1.00  0.00     0.002 A 
HETATM   26  C   UNL     1      44.094 -20.907   1.702  1.00  0.00     0.030 A 
BRANCH  22  27
HETATM   27  C   UNL     1      44.029 -18.729   4.856  1.00  0.00     0.254 C 
HETATM   28  N   UNL     1      42.716 -18.345   5.060  1.00  0.00    -0.352 N 
HETATM   29  H   UNL     1      41.993 -18.766   4.493  1.00  0.00     0.163 HD
HETATM   30  O   UNL     1      44.967 -18.297   5.523  1.00  0.00    -0.268 OA
BRANCH  28  31
HETATM   31  C   UNL     1      42.358 -17.348   6.015  1.00  0.00     0.084 A 
HETATM   32  C   UNL     1      41.985 -15.963   5.567  1.00  0.00     0.027 A 
HETATM   33  C   UNL     1      40.937 -16.871   6.140  1.00  0.00     0.027 A 
ENDBRANCH  28  31
ENDBRANCH  22  27
ENDBRANCH   2  21
TORSDOF 9
ENDMDL
MODEL 8
REMARK VINA RESULT:      -7.2      4.452      8.698
REMARK  9 active torsions:
REMARK  status: ('A' for Active; 'I' for Inactive)
REMARK    1  A    between atoms: C_2  and  N_3 
REMARK    2  A    between atoms: C_6  and  C_7 
REMARK    3  A    between atoms: C_7  and  O_8 
REMARK    4  A    between atoms: O_8  and  C_9 
REMARK    5  A    between atoms: C_12  and  C_13 
REMARK    6  A    between atoms: C_14  and  C_15 
REMARK       I    between atoms: C_15  and  N_16 
REMARK    7  A    between atoms: N_16  and  C_17 
REMARK    8  A    between atoms: C_18  and  C_19 
REMARK       I    between atoms: C_19  and  N_20 
REMARK    9  A    between atoms: N_20  and  C_21 
ROOT
HETATM    1  C   UNL     1      40.310 -12.781   6.272  1.00  0.00     0.245 C 
HETATM    2  N   UNL     1      40.975 -11.772   6.950  1.00  0.00    -0.323 N 
HETATM    3  O   UNL     1      39.100 -12.897   6.150  1.00  0.00    -0.268 OA
HETATM    4  H   UNL     1      41.926 -11.616   6.637  1.00  0.00     0.169 HD
ENDROOT
BRANCH   1   5
HETATM    5  C   UNL     1      41.259 -13.676   5.562  1.00  0.00     0.075 C 
HETATM    6  C   UNL     1      41.054 -14.999   5.633  1.00  0.00     0.020 C 
BRANCH   6   7
HETATM    7  C   UNL     1      41.858 -16.012   5.018  1.00  0.00     0.005 A 
HETATM    8  C   UNL     1      42.962 -16.694   5.630  1.00  0.00     0.073 A 
HETATM    9  C   UNL     1      43.390 -17.647   4.704  1.00  0.00     0.025 A 
HETATM   10  N   UNL     1      42.564 -17.579   3.600  1.00  0.00    -0.353 N 
HETATM   11  C   UNL     1      44.519 -18.620   4.843  1.00  0.00     0.069 C 
HETATM   12  C   UNL     1      41.644 -16.557   3.761  1.00  0.00     0.019 A 
HETATM   13  C   UNL     1      40.615 -16.253   2.723  1.00  0.00     0.069 C 
BRANCH   8  14
HETATM   14  C   UNL     1      43.570 -16.494   6.955  1.00  0.00     0.296 C 
HETATM   15  O   UNL     1      43.072 -16.905   7.999  1.00  0.00    -0.259 OA
BRANCH  14  16
HETATM   16  O   UNL     1      44.737 -15.793   6.905  1.00  0.00    -0.318 OA
BRANCH  16  17
HETATM   17  C   UNL     1      44.641 -14.406   6.556  1.00  0.00     0.174 C 
HETATM   18  C   UNL     1      44.637 -13.552   7.810  1.00  0.00     0.034 C 
ENDBRANCH  16  17
ENDBRANCH  14  16
ENDBRANCH   8  14
BRANCH  10  19
HETATM   19  C   UNL     1      42.604 -18.496   2.465  1.00  0.00     0.124 C 
HETATM   20  C   UNL     1      43.546 -18.033   1.369  1.00  0.00     0.027 C 
ENDBRANCH  10  19
ENDBRANCH   6   7
ENDBRANCH   1   5
BRANCH   2  21
HETATM   21  C   UNL     1      40.296 -10.630   7.453  1.00  0.00     0.050 A 
HETATM   22  C   UNL     1      40.121 -10.306   8.812  1.00  0.00     0.058 A 
HETATM   23  C   UNL     1      39.296  -9.216   9.154  1.00  0.00     0.019 A 
HETATM   24  C   UNL     1      38.692  -8.432   8.172  1.00  0.00     0.001 A 
HETATM   25  C   UNL     1      38.922  -8.712   6.831  1.00  0.00     0.002 A 
HETATM   26  C   UNL     1      39.727  -9.795   6.474  1.00  0.00     0.030 A 
BRANCH  22  27
HETATM   27  C   UNL     1      40.849 -10.927   9.961  1.00  0.00     0.254 C 
HETATM   28  N   UNL     1      42.231 -10.883   9.908  1.00  0.00    -0.352 N 
HETATM   29  H   UNL     1      42.674 -10.507   9.081  1.00  0.00     0.163 HD
HETATM   30  O   UNL     1      40.227 -11.334  10.938  1.00  0.00    -0.268 OA
BRANCH  28  31
HETATM   31  C   UNL     1      43.045 -11.388  10.964  1.00  0.00     0.084 A 
HETATM   32  C   UNL     1      44.534 -11.180  10.943  1.00  0.00     0.027 A 
HETATM   33  C   UNL     1      43.692 -10.458  11.954  1.00  0.00     0.027 A 
ENDBRANCH  28  31
ENDBRANCH  22  27
ENDBRANCH   2  21
TORSDOF 9
ENDMDL
MODEL 9
REMARK VINA RESULT:      -7.1      1.966      4.059
REMARK  9 active torsions:
REMARK  status: ('A' for Active; 'I' for Inactive)
REMARK    1  A    between atoms: C_2  and  N_3 
REMARK    2  A    between atoms: C_6  and  C_7 
REMARK    3  A    between atoms: C_7  and  O_8 
REMARK    4  A    between atoms: O_8  and  C_9 
REMARK    5  A    between atoms: C_12  and  C_13 
REMARK    6  A    between atoms: C_14  and  C_15 
REMARK       I    between atoms: C_15  and  N_16 
REMARK    7  A    between atoms: N_16  and  C_17 
REMARK    8  A    between atoms: C_18  and  C_19 
REMARK       I    between atoms: C_19  and  N_20 
REMARK    9  A    between atoms: N_20  and  C_21 
ROOT
HETATM    1  C   UNL     1      43.205 -14.160   3.452  1.00  0.00     0.245 C 
HETATM    2  N   UNL     1      42.570 -15.258   4.010  1.00  0.00    -0.323 N 
HETATM    3  O   UNL     1      44.285 -13.698   3.791  1.00  0.00    -0.268 OA
HETATM    4  H   UNL     1      41.913 -15.718   3.390  1.00  0.00     0.169 HD
ENDROOT
BRANCH   1   5
HETATM    5  C   UNL     1      42.476 -13.656   2.261  1.00  0.00     0.075 C 
HETATM    6  C   UNL     1      41.342 -14.277   1.905  1.00  0.00     0.020 C 
BRANCH   6   7
HETATM    7  C   UNL     1      40.507 -13.937   0.793  1.00  0.00     0.005 A 
HETATM    8  C   UNL     1      39.657 -12.785   0.703  1.00  0.00     0.073 A 
HETATM    9  C   UNL     1      39.101 -12.811  -0.577  1.00  0.00     0.025 A 
HETATM   10  N   UNL     1      39.617 -13.901  -1.249  1.00  0.00    -0.353 N 
HETATM   11  C   UNL     1      38.136 -11.840  -1.180  1.00  0.00     0.069 C 
HETATM   12  C   UNL     1      40.451 -14.621  -0.411  1.00  0.00     0.019 A 
HETATM   13  C   UNL     1      41.158 -15.853  -0.873  1.00  0.00     0.069 C 
BRANCH   8  14
HETATM   14  C   UNL     1      39.381 -11.742   1.705  1.00  0.00     0.296 C 
HETATM   15  O   UNL     1      39.860 -10.613   1.658  1.00  0.00    -0.259 OA
BRANCH  14  16
HETATM   16  O   UNL     1      38.548 -12.164   2.698  1.00  0.00    -0.318 OA
BRANCH  16  17
HETATM   17  C   UNL     1      38.828 -11.685   4.019  1.00  0.00     0.174 C 
HETATM   18  C   UNL     1      39.666 -12.699   4.776  1.00  0.00     0.034 C 
ENDBRANCH  16  17
ENDBRANCH  14  16
ENDBRANCH   8  14
BRANCH  10  19
HETATM   19  C   UNL     1      39.381 -14.206  -2.658  1.00  0.00     0.124 C 
HETATM   20  C   UNL     1      40.407 -13.567  -3.577  1.00  0.00     0.027 C 
ENDBRANCH  10  19
ENDBRANCH   6   7
ENDBRANCH   1   5
BRANCH   2  21
HETATM   21  C   UNL     1      43.212 -16.096   4.961  1.00  0.00     0.050 A 
HETATM   22  C   UNL     1      43.686 -17.401   4.723  1.00  0.00     0.058 A 
HETATM   23  C   UNL     1      44.166 -18.161   5.808  1.00  0.00     0.019 A 
HETATM   24  C   UNL     1      44.220 -17.628   7.096  1.00  0.00     0.001 A 
HETATM   25  C   UNL     1      43.816 -16.317   7.314  1.00  0.00     0.002 A 
HETATM   26  C   UNL     1      43.327 -15.553   6.253  1.00  0.00     0.030 A 
BRANCH  22  27
HETATM   27  C   UNL     1      43.870 -18.035   3.382  1.00  0.00     0.254 C 
HETATM   28  N   UNL     1      43.816 -19.416   3.344  1.00  0.00    -0.352 N 
HETATM   29  H   UNL     1      43.729 -19.924   4.214  1.00  0.00     0.163 HD
HETATM   30  O   UNL     1      43.938 -17.336   2.374  1.00  0.00    -0.268 OA
BRANCH  28  31
HETATM   31  C   UNL     1      43.918 -20.144   2.121  1.00  0.00     0.084 A 
HETATM   32  C   UNL     1      44.542 -21.512   2.100  1.00  0.00     0.027 A 
HETATM   33  C   UNL     1      43.067 -21.358   1.870  1.00  0.00     0.027 A 
ENDBRANCH  28  31
ENDBRANCH  22  27
ENDBRANCH   2  21
TORSDOF 9
ENDMDL
MODEL 10
REMARK VINA RESULT:      -7.1      2.279      4.679
REMARK  9 active torsions:
REMARK  status: ('A' for Active; 'I' for Inactive)
REMARK    1  A    between atoms: C_2  and  N_3 
REMARK    2  A    between atoms: C_6  and  C_7 
REMARK    3  A    between atoms: C_7  and  O_8 
REMARK    4  A    between atoms: O_8  and  C_9 
REMARK    5  A    between atoms: C_12  and  C_13 
REMARK    6  A    between atoms: C_14  and  C_15 
REMARK       I    between atoms: C_15  and  N_16 
REMARK    7  A    between atoms: N_16  and  C_17 
REMARK    8  A    between atoms: C_18  and  C_19 
REMARK       I    between atoms: C_19  and  N_20 
REMARK    9  A    between atoms: N_20  and  C_21 
ROOT
HETATM    1  C   UNL     1      42.825 -14.764   2.677  1.00  0.00     0.245 C 
HETATM    2  N   UNL     1      42.317 -15.842   3.384  1.00  0.00    -0.323 N 
HETATM    3  O   UNL     1      43.776 -14.068   3.002  1.00  0.00    -0.268 OA
HETATM    4  H   UNL     1      41.811 -16.511   2.815  1.00  0.00     0.169 HD
ENDROOT
BRANCH   1   5
HETATM    5  C   UNL     1      42.156 -14.612   1.361  1.00  0.00     0.075 C 
HETATM    6  C   UNL     1      41.364 -13.546   1.173  1.00  0.00     0.020 C 
BRANCH   6   7
HETATM    7  C   UNL     1      40.640 -13.232  -0.020  1.00  0.00     0.005 A 
HETATM    8  C   UNL     1      41.201 -12.695  -1.227  1.00  0.00     0.073 A 
HETATM    9  C   UNL     1      40.154 -12.629  -2.147  1.00  0.00     0.025 A 
HETATM   10  N   UNL     1      39.019 -13.137  -1.547  1.00  0.00    -0.353 N 
HETATM   11  C   UNL     1      40.200 -12.134  -3.559  1.00  0.00     0.069 C 
HETATM   12  C   UNL     1      39.292 -13.475  -0.232  1.00  0.00     0.019 A 
HETATM   13  C   UNL     1      38.248 -14.058   0.664  1.00  0.00     0.069 C 
BRANCH   8  14
HETATM   14  C   UNL     1      42.585 -12.284  -1.516  1.00  0.00     0.296 C 
HETATM   15  O   UNL     1      43.279 -12.802  -2.385  1.00  0.00    -0.259 OA
BRANCH  14  16
HETATM   16  O   UNL     1      43.021 -11.277  -0.707  1.00  0.00    -0.318 OA
BRANCH  16  17
HETATM   17  C   UNL     1      43.644 -10.159  -1.352  1.00  0.00     0.174 C 
HETATM   18  C   UNL     1      42.707  -8.965  -1.346  1.00  0.00     0.034 C 
ENDBRANCH  16  17
ENDBRANCH  14  16
ENDBRANCH   8  14
BRANCH  10  19
HETATM   19  C   UNL     1      37.741 -13.357  -2.219  1.00  0.00     0.124 C 
HETATM   20  C   UNL     1      37.701 -14.667  -2.986  1.00  0.00     0.027 C 
ENDBRANCH  10  19
ENDBRANCH   6   7
ENDBRANCH   1   5
BRANCH   2  21
HETATM   21  C   UNL     1      42.979 -16.375   4.522  1.00  0.00     0.050 A 
HETATM   22  C   UNL     1      43.674 -17.599   4.574  1.00  0.00     0.058 A 
HETATM   23  C   UNL     1      44.151 -18.062   5.817  1.00  0.00     0.019 A 
HETATM   24  C   UNL     1      43.986 -17.309   6.979  1.00  0.00     0.001 A 
HETATM   25  C   UNL     1      43.361 -16.070   6.912  1.00  0.00     0.002 A 
HETATM   26  C   UNL     1      42.872 -15.602   5.692  1.00  0.00     0.030 A 
BRANCH  22  27
HETATM   27  C   UNL     1      44.094 -18.418   3.396  1.00  0.00     0.254 C 
HETATM   28  N   UNL     1      44.245 -19.775   3.614  1.00  0.00    -0.352 N 
HETATM   29  H   UNL     1      44.138 -20.131   4.554  1.00  0.00     0.163 HD
HETATM   30  O   UNL     1      44.171 -17.903   2.283  1.00  0.00    -0.268 OA
BRANCH  28  31
HETATM   31  C   UNL     1      44.587 -20.678   2.563  1.00  0.00     0.084 A 
HETATM   32  C   UNL     1      44.410 -22.159   2.745  1.00  0.00     0.027 A 
HETATM   33  C   UNL     1      43.521 -21.411   1.797  1.00  0.00     0.027 A 
ENDBRANCH  28  31
ENDBRANCH  22  27
ENDBRANCH   2  21
TORSDOF 9
ENDMDL
