MODEL 1
REMARK VINA RESULT:      -8.2      0.000      0.000
REMARK  6 active torsions:
REMARK  status: ('A' for Active; 'I' for Inactive)
REMARK    1  A    between atoms: C_2  and  O_3 
REMARK    2  A    between atoms: O_3  and  C_4 
REMARK    3  A    between atoms: C_9  and  S_10 
REMARK    4  A    between atoms: S_10  and  C_11 
REMARK    5  A    between atoms: C_11  and  C_12 
REMARK       I    between atoms: C_12  and  N_13 
REMARK    6  A    between atoms: N_13  and  C_14 
ROOT
HETATM    1  C   UNL     1      41.888 -15.086   1.652  1.00  0.00     0.069 A 
HETATM    2  C   UNL     1      42.595 -14.445   2.669  1.00  0.00     0.050 A 
HETATM    3  C   UNL     1      42.771 -15.071   3.920  1.00  0.00    -0.004 A 
HETATM    4  C   UNL     1      42.229 -16.345   4.165  1.00  0.00     0.068 A 
HETATM    5  N   UNL     1      42.377 -16.974   5.342  1.00  0.00    -0.241 NA
HETATM    6  C   UNL     1      43.075 -16.361   6.330  1.00  0.00     0.100 A 
HETATM    7  C   UNL     1      43.669 -15.110   6.183  1.00  0.00    -0.026 A 
HETATM    8  C   UNL     1      44.435 -14.414   7.268  1.00  0.00     0.051 C 
HETATM    9  C   UNL     1      43.489 -14.460   4.956  1.00  0.00     0.023 A 
HETATM   10  C   UNL     1      41.522 -16.961   3.144  1.00  0.00     0.035 A 
HETATM   11  C   UNL     1      41.350 -16.346   1.899  1.00  0.00     0.039 A 
ENDROOT
BRANCH   6  12
HETATM   12  S   UNL     1      43.142 -17.332   7.820  1.00  0.00    -0.096 SA
BRANCH  12  13
HETATM   13  C   UNL     1      44.468 -18.520   7.388  1.00  0.00     0.142 C 
HETATM   14  C   UNL     1      45.647 -17.743   6.811  1.00  0.00     0.031 C 
BRANCH  13  15
HETATM   15  C   UNL     1      44.034 -19.606   6.400  1.00  0.00     0.236 C 
HETATM   16  N   UNL     1      44.498 -19.430   5.110  1.00  0.00    -0.326 N 
HETATM   17  H   UNL     1      44.820 -18.491   4.891  1.00  0.00     0.169 HD
HETATM   18  O   UNL     1      43.391 -20.571   6.811  1.00  0.00    -0.272 OA
BRANCH  16  19
HETATM   19  C   UNL     1      44.349 -20.299   4.013  1.00  0.00     0.034 A 
HETATM   20  C   UNL     1      44.761 -21.632   4.011  1.00  0.00     0.029 A 
HETATM   21  C   UNL     1      44.580 -22.428   2.875  1.00  0.00     0.002 A 
HETATM   22  C   UNL     1      43.991 -21.896   1.731  1.00  0.00     0.000 A 
HETATM   23  C   UNL     1      43.581 -20.566   1.721  1.00  0.00     0.002 A 
HETATM   24  C   UNL     1      43.761 -19.771   2.856  1.00  0.00     0.029 A 
ENDBRANCH  16  19
ENDBRANCH  13  15
ENDBRANCH  12  13
ENDBRANCH   6  12
BRANCH   1  25
HETATM   25  O   UNL     1      41.659 -14.599   0.396  1.00  0.00    -0.351 OA
BRANCH  25  26
HETATM   26  C   UNL     1      40.306 -14.572  -0.056  1.00  0.00     0.171 C 
HETATM   27  C   UNL     1      40.320 -14.515  -1.573  1.00  0.00     0.034 C 
ENDBRANCH  25  26
ENDBRANCH   1  25
TORSDOF 6
ENDMDL
MODEL 2
REMARK VINA RESULT:      -7.8      2.685      5.622
REMARK  6 active torsions:
REMARK  status: ('A' for Active; 'I' for Inactive)
REMARK    1  A    between atoms: C_2  and  O_3 
REMARK    2  A    between atoms: O_3  and  C_4 
REMARK    3  A    between atoms: C_9  and  S_10 
REMARK    4  A    between atoms: S_10  and  C_11 
REMARK    5  A    between atoms: C_11  and  C_12 
REMARK       I    between atoms: C_12  and  N_13 
REMARK    6  A    between atoms: N_13  and  C_14 
ROOT
HETATM    1  C   UNL     1      44.312 -13.803   7.473  1.00  0.00     0.069 A 
HETATM    2  C   UNL     1      43.452 -13.083   6.646  1.00  0.00     0.050 A 
HETATM    3  C   UNL     1      42.765 -13.728   5.597  1.00  0.00    -0.004 A 
HETATM    4  C   UNL     1      42.944 -15.102   5.363  1.00  0.00     0.068 A 
HETATM    5  N   UNL     1      42.306 -15.752   4.376  1.00  0.00    -0.241 NA
HETATM    6  C   UNL     1      41.458 -15.059   3.576  1.00  0.00     0.100 A 
HETATM    7  C   UNL     1      41.195 -13.700   3.735  1.00  0.00    -0.026 A 
HETATM    8  C   UNL     1      40.270 -12.917   2.853  1.00  0.00     0.051 C 
HETATM    9  C   UNL     1      41.883 -13.034   4.757  1.00  0.00     0.023 A 
HETATM   10  C   UNL     1      43.810 -15.798   6.192  1.00  0.00     0.035 A 
HETATM   11  C   UNL     1      44.489 -15.164   7.238  1.00  0.00     0.039 A 
ENDROOT
BRANCH   6  12
HETATM   12  S   UNL     1      40.728 -16.078   2.312  1.00  0.00    -0.096 SA
BRANCH  12  13
HETATM   13  C   UNL     1      42.119 -16.189   1.125  1.00  0.00     0.142 C 
HETATM   14  C   UNL     1      41.553 -16.480  -0.261  1.00  0.00     0.031 C 
BRANCH  13  15
HETATM   15  C   UNL     1      43.164 -17.248   1.487  1.00  0.00     0.236 C 
HETATM   16  N   UNL     1      42.668 -18.330   2.188  1.00  0.00    -0.326 N 
HETATM   17  H   UNL     1      41.762 -18.183   2.627  1.00  0.00     0.169 HD
HETATM   18  O   UNL     1      44.318 -17.117   1.082  1.00  0.00    -0.272 OA
BRANCH  16  19
HETATM   19  C   UNL     1      43.355 -19.496   2.576  1.00  0.00     0.034 A 
HETATM   20  C   UNL     1      44.126 -19.600   3.735  1.00  0.00     0.029 A 
HETATM   21  C   UNL     1      44.782 -20.796   4.045  1.00  0.00     0.002 A 
HETATM   22  C   UNL     1      44.677 -21.895   3.196  1.00  0.00     0.000 A 
HETATM   23  C   UNL     1      43.915 -21.800   2.035  1.00  0.00     0.002 A 
HETATM   24  C   UNL     1      43.259 -20.606   1.726  1.00  0.00     0.029 A 
ENDBRANCH  16  19
ENDBRANCH  13  15
ENDBRANCH  12  13
ENDBRANCH   6  12
BRANCH   1  25
HETATM   25  O   UNL     1      45.023 -13.306   8.529  1.00  0.00    -0.351 OA
BRANCH  25  26
HETATM   26  C   UNL     1      44.576 -12.076   9.096  1.00  0.00     0.171 C 
HETATM   27  C   UNL     1      45.494 -11.732  10.255  1.00  0.00     0.034 C 
ENDBRANCH  25  26
ENDBRANCH   1  25
TORSDOF 6
ENDMDL
MODEL 3
REMARK VINA RESULT:      -7.7      2.503      6.731
REMARK  6 active torsions:
REMARK  status: ('A' for Active; 'I' for Inactive)
REMARK    1  A    between atoms: C_2  and  O_3 
REMARK    2  A    between atoms: O_3  and  C_4 
REMARK    3  A    between atoms: C_9  and  S_10 
REMARK    4  A    between atoms: S_10  and  C_11 
REMARK    5  A    between atoms: C_11  and  C_12 
REMARK       I    between atoms: C_12  and  N_13 
REMARK    6  A    between atoms: N_13  and  C_14 
ROOT
HETATM    1  C   UNL     1      43.990 -19.328   2.818  1.00  0.00     0.069 A 
HETATM    2  C   UNL     1      43.685 -18.607   1.665  1.00  0.00     0.050 A 
HETATM    3  C   UNL     1      42.653 -17.647   1.675  1.00  0.00    -0.004 A 
HETATM    4  C   UNL     1      41.909 -17.408   2.844  1.00  0.00     0.068 A 
HETATM    5  N   UNL     1      40.920 -16.501   2.893  1.00  0.00    -0.241 NA
HETATM    6  C   UNL     1      40.628 -15.788   1.777  1.00  0.00     0.100 A 
HETATM    7  C   UNL     1      41.318 -15.933   0.575  1.00  0.00    -0.026 A 
HETATM    8  C   UNL     1      41.000 -15.160  -0.670  1.00  0.00     0.051 C 
HETATM    9  C   UNL     1      42.333 -16.896   0.536  1.00  0.00     0.023 A 
HETATM   10  C   UNL     1      42.222 -18.142   3.977  1.00  0.00     0.035 A 
HETATM   11  C   UNL     1      43.250 -19.091   3.974  1.00  0.00     0.039 A 
ENDROOT
BRANCH   6  12
HETATM   12  S   UNL     1      39.276 -14.657   2.026  1.00  0.00    -0.096 SA
BRANCH  12  13
HETATM   13  C   UNL     1      40.184 -13.162   2.568  1.00  0.00     0.142 C 
HETATM   14  C   UNL     1      40.443 -12.282   1.350  1.00  0.00     0.031 C 
BRANCH  13  15
HETATM   15  C   UNL     1      41.507 -13.459   3.279  1.00  0.00     0.236 C 
HETATM   16  N   UNL     1      41.374 -13.914   4.577  1.00  0.00    -0.326 N 
HETATM   17  H   UNL     1      40.471 -13.735   5.007  1.00  0.00     0.169 HD
HETATM   18  O   UNL     1      42.562 -13.355   2.654  1.00  0.00    -0.272 OA
BRANCH  16  19
HETATM   19  C   UNL     1      42.390 -14.357   5.445  1.00  0.00     0.034 A 
HETATM   20  C   UNL     1      43.582 -13.666   5.668  1.00  0.00     0.029 A 
HETATM   21  C   UNL     1      44.544 -14.179   6.545  1.00  0.00     0.002 A 
HETATM   22  C   UNL     1      44.324 -15.388   7.200  1.00  0.00     0.000 A 
HETATM   23  C   UNL     1      43.141 -16.087   6.980  1.00  0.00     0.002 A 
HETATM   24  C   UNL     1      42.180 -15.574   6.106  1.00  0.00     0.029 A 
ENDBRANCH  16  19
ENDBRANCH  13  15
ENDBRANCH  12  13
ENDBRANCH   6  12
BRANCH   1  25
HETATM   25  O   UNL     1      44.970 -20.271   2.947  1.00  0.00    -0.351 OA
BRANCH  25  26
HETATM   26  C   UNL     1      44.559 -21.636   2.998  1.00  0.00     0.171 C 
HETATM   27  C   UNL     1      44.131 -22.051   1.602  1.00  0.00     0.034 C 
ENDBRANCH  25  26
ENDBRANCH   1  25
TORSDOF 6
ENDMDL
MODEL 4
REMARK VINA RESULT:      -7.6      2.715      7.171
REMARK  6 active torsions:
REMARK  status: ('A' for Active; 'I' for Inactive)
REMARK    1  A    between atoms: C_2  and  O_3 
REMARK    2  A    between atoms: O_3  and  C_4 
REMARK    3  A    between atoms: C_9  and  S_10 
REMARK    4  A    between atoms: S_10  and  C_11 
REMARK    5  A    between atoms: C_11  and  C_12 
REMARK       I    between atoms: C_12  and  N_13 
REMARK    6  A    between atoms: N_13  and  C_14 
ROOT
HETATM    1  C   UNL     1      44.140 -19.681   2.804  1.00  0.00     0.069 A 
HETATM    2  C   UNL     1      43.555 -19.167   3.960  1.00  0.00     0.050 A 
HETATM    3  C   UNL     1      42.706 -18.043   3.892  1.00  0.00    -0.004 A 
HETATM    4  C   UNL     1      42.444 -17.419   2.660  1.00  0.00     0.068 A 
HETATM    5  N   UNL     1      41.640 -16.349   2.554  1.00  0.00    -0.241 NA
HETATM    6  C   UNL     1      41.058 -15.852   3.674  1.00  0.00     0.100 A 
HETATM    7  C   UNL     1      41.236 -16.409   4.939  1.00  0.00    -0.026 A 
HETATM    8  C   UNL     1      40.610 -15.865   6.188  1.00  0.00     0.051 C 
HETATM    9  C   UNL     1      42.093 -17.512   5.034  1.00  0.00     0.023 A 
HETATM   10  C   UNL     1      43.042 -17.941   1.524  1.00  0.00     0.035 A 
HETATM   11  C   UNL     1      43.880 -19.059   1.586  1.00  0.00     0.039 A 
ENDROOT
BRANCH   6  12
HETATM   12  S   UNL     1      40.051 -14.422   3.343  1.00  0.00    -0.096 SA
BRANCH  12  13
HETATM   13  C   UNL     1      41.312 -13.270   2.679  1.00  0.00     0.142 C 
HETATM   14  C   UNL     1      40.948 -11.853   3.108  1.00  0.00     0.031 C 
BRANCH  13  15
HETATM   15  C   UNL     1      41.465 -13.324   1.157  1.00  0.00     0.236 C 
HETATM   16  N   UNL     1      40.536 -14.118   0.512  1.00  0.00    -0.326 N 
HETATM   17  H   UNL     1      40.050 -14.785   1.106  1.00  0.00     0.169 HD
HETATM   18  O   UNL     1      42.321 -12.627   0.614  1.00  0.00    -0.272 OA
BRANCH  16  19
HETATM   19  C   UNL     1      40.361 -14.291  -0.874  1.00  0.00     0.034 A 
HETATM   20  C   UNL     1      39.552 -13.476  -1.667  1.00  0.00     0.029 A 
HETATM   21  C   UNL     1      39.429 -13.720  -3.039  1.00  0.00     0.002 A 
HETATM   22  C   UNL     1      40.110 -14.783  -3.627  1.00  0.00     0.000 A 
HETATM   23  C   UNL     1      40.916 -15.605  -2.844  1.00  0.00     0.002 A 
HETATM   24  C   UNL     1      41.039 -15.360  -1.474  1.00  0.00     0.029 A 
ENDBRANCH  16  19
ENDBRANCH  13  15
ENDBRANCH  12  13
ENDBRANCH   6  12
BRANCH   1  25
HETATM   25  O   UNL     1      44.966 -20.767   2.730  1.00  0.00    -0.351 OA
BRANCH  25  26
HETATM   26  C   UNL     1      44.357 -22.056   2.789  1.00  0.00     0.171 C 
HETATM   27  C   UNL     1      44.680 -22.666   4.141  1.00  0.00     0.034 C 
ENDBRANCH  25  26
ENDBRANCH   1  25
TORSDOF 6
ENDMDL
MODEL 5
REMARK VINA RESULT:      -7.6      1.875      2.746
REMARK  6 active torsions:
REMARK  status: ('A' for Active; 'I' for Inactive)
REMARK    1  A    between atoms: C_2  and  O_3 
REMARK    2  A    between atoms: O_3  and  C_4 
REMARK    3  A    between atoms: C_9  and  S_10 
REMARK    4  A    between atoms: S_10  and  C_11 
REMARK    5  A    between atoms: C_11  and  C_12 
REMARK       I    between atoms: C_12  and  N_13 
REMARK    6  A    between atoms: N_13  and  C_14 
ROOT
HETATM    1  C   UNL     1      40.650 -14.923  -0.284  1.00  0.00     0.069 A 
HETATM    2  C   UNL     1      40.208 -14.137   0.779  1.00  0.00     0.050 A 
HETATM    3  C   UNL     1      40.373 -14.576   2.109  1.00  0.00    -0.004 A 
HETATM    4  C   UNL     1      40.975 -15.816   2.383  1.00  0.00     0.068 A 
HETATM    5  N   UNL     1      41.151 -16.268   3.635  1.00  0.00    -0.241 NA
HETATM    6  C   UNL     1      40.735 -15.501   4.673  1.00  0.00     0.100 A 
HETATM    7  C   UNL     1      40.145 -14.249   4.511  1.00  0.00    -0.026 A 
HETATM    8  C   UNL     1      39.669 -13.394   5.647  1.00  0.00     0.051 C 
HETATM    9  C   UNL     1      39.952 -13.802   3.198  1.00  0.00     0.023 A 
HETATM   10  C   UNL     1      41.400 -16.586   1.312  1.00  0.00     0.035 A 
HETATM   11  C   UNL     1      41.245 -16.152  -0.009  1.00  0.00     0.039 A 
ENDROOT
BRANCH   6  12
HETATM   12  S   UNL     1      41.027 -16.273   6.250  1.00  0.00    -0.096 SA
BRANCH  12  13
HETATM   13  C   UNL     1      42.832 -16.015   6.422  1.00  0.00     0.142 C 
HETATM   14  C   UNL     1      43.219 -14.758   5.650  1.00  0.00     0.031 C 
BRANCH  13  15
HETATM   15  C   UNL     1      43.679 -17.196   5.941  1.00  0.00     0.236 C 
HETATM   16  N   UNL     1      43.065 -17.999   4.998  1.00  0.00    -0.326 N 
HETATM   17  H   UNL     1      42.055 -17.900   4.938  1.00  0.00     0.169 HD
HETATM   18  O   UNL     1      44.834 -17.312   6.347  1.00  0.00    -0.272 OA
BRANCH  16  19
HETATM   19  C   UNL     1      43.617 -19.092   4.304  1.00  0.00     0.034 A 
HETATM   20  C   UNL     1      44.376 -20.096   4.906  1.00  0.00     0.029 A 
HETATM   21  C   UNL     1      44.893 -21.148   4.142  1.00  0.00     0.002 A 
HETATM   22  C   UNL     1      44.660 -21.200   2.770  1.00  0.00     0.000 A 
HETATM   23  C   UNL     1      43.909 -20.200   2.159  1.00  0.00     0.002 A 
HETATM   24  C   UNL     1      43.391 -19.151   2.923  1.00  0.00     0.029 A 
ENDBRANCH  16  19
ENDBRANCH  13  15
ENDBRANCH  12  13
ENDBRANCH   6  12
BRANCH   1  25
HETATM   25  O   UNL     1      40.565 -14.610  -1.611  1.00  0.00    -0.351 OA
BRANCH  25  26
HETATM   26  C   UNL     1      40.976 -15.607  -2.545  1.00  0.00     0.171 C 
HETATM   27  C   UNL     1      39.860 -15.789  -3.558  1.00  0.00     0.034 C 
ENDBRANCH  25  26
ENDBRANCH   1  25
TORSDOF 6
ENDMDL
MODEL 6
REMARK VINA RESULT:      -7.5      3.194      8.448
REMARK  6 active torsions:
REMARK  status: ('A' for Active; 'I' for Inactive)
REMARK    1  A    between atoms: C_2  and  O_3 
REMARK    2  A    between atoms: O_3  and  C_4 
REMARK    3  A    between atoms: C_9  and  S_10 
REMARK    4  A    between atoms: S_10  and  C_11 
REMARK    5  A    between atoms: C_11  and  C_12 
REMARK       I    between atoms: C_12  and  N_13 
REMARK    6  A    between atoms: N_13  and  C_14 
ROOT
HETATM    1  C   UNL     1      44.341 -19.689   3.750  1.00  0.00     0.069 A 
HETATM    2  C   UNL     1      43.709 -18.650   4.432  1.00  0.00     0.050 A 
HETATM    3  C   UNL     1      42.781 -17.822   3.770  1.00  0.00    -0.004 A 
HETATM    4  C   UNL     1      42.484 -18.023   2.411  1.00  0.00     0.068 A 
HETATM    5  N   UNL     1      41.605 -17.257   1.746  1.00  0.00    -0.241 NA
HETATM    6  C   UNL     1      40.978 -16.253   2.408  1.00  0.00     0.100 A 
HETATM    7  C   UNL     1      41.184 -15.983   3.759  1.00  0.00    -0.026 A 
HETATM    8  C   UNL     1      40.507 -14.871   4.503  1.00  0.00     0.051 C 
HETATM    9  C   UNL     1      42.118 -16.780   4.432  1.00  0.00     0.023 A 
HETATM   10  C   UNL     1      43.130 -19.056   1.748  1.00  0.00     0.035 A 
HETATM   11  C   UNL     1      44.048 -19.884   2.403  1.00  0.00     0.039 A 
ENDROOT
BRANCH   6  12
HETATM   12  S   UNL     1      39.872 -15.333   1.361  1.00  0.00    -0.096 SA
BRANCH  12  13
HETATM   13  C   UNL     1      41.044 -14.713   0.096  1.00  0.00     0.142 C 
HETATM   14  C   UNL     1      41.747 -13.479   0.650  1.00  0.00     0.031 C 
BRANCH  13  15
HETATM   15  C   UNL     1      40.390 -14.375  -1.246  1.00  0.00     0.236 C 
HETATM   16  N   UNL     1      39.008 -14.384  -1.233  1.00  0.00    -0.326 N 
HETATM   17  H   UNL     1      38.587 -14.876  -0.449  1.00  0.00     0.169 HD
HETATM   18  O   UNL     1      41.101 -14.052  -2.197  1.00  0.00    -0.272 OA
BRANCH  16  19
HETATM   19  C   UNL     1      38.132 -14.026  -2.275  1.00  0.00     0.034 A 
HETATM   20  C   UNL     1      37.645 -12.734  -2.476  1.00  0.00     0.029 A 
HETATM   21  C   UNL     1      36.772 -12.463  -3.535  1.00  0.00     0.002 A 
HETATM   22  C   UNL     1      36.376 -13.482  -4.397  1.00  0.00     0.000 A 
HETATM   23  C   UNL     1      36.852 -14.776  -4.202  1.00  0.00     0.002 A 
HETATM   24  C   UNL     1      37.724 -15.046  -3.145  1.00  0.00     0.029 A 
ENDBRANCH  16  19
ENDBRANCH  13  15
ENDBRANCH  12  13
ENDBRANCH   6  12
BRANCH   1  25
HETATM   25  O   UNL     1      45.245 -20.569   4.274  1.00  0.00    -0.351 OA
BRANCH  25  26
HETATM   26  C   UNL     1      44.753 -21.538   5.198  1.00  0.00     0.171 C 
HETATM   27  C   UNL     1      44.721 -22.883   4.494  1.00  0.00     0.034 C 
ENDBRANCH  25  26
ENDBRANCH   1  25
TORSDOF 6
ENDMDL
MODEL 7
REMARK VINA RESULT:      -7.3      2.803      4.589
REMARK  6 active torsions:
REMARK  status: ('A' for Active; 'I' for Inactive)
REMARK    1  A    between atoms: C_2  and  O_3 
REMARK    2  A    between atoms: O_3  and  C_4 
REMARK    3  A    between atoms: C_9  and  S_10 
REMARK    4  A    between atoms: S_10  and  C_11 
REMARK    5  A    between atoms: C_11  and  C_12 
REMARK       I    between atoms: C_12  and  N_13 
REMARK    6  A    between atoms: N_13  and  C_14 
ROOT
HETATM    1  C   UNL     1      42.346 -12.497  -2.311  1.00  0.00     0.069 A 
HETATM    2  C   UNL     1      41.995 -13.812  -2.010  1.00  0.00     0.050 A 
HETATM    3  C   UNL     1      41.689 -14.184  -0.685  1.00  0.00    -0.004 A 
HETATM    4  C   UNL     1      41.742 -13.239   0.354  1.00  0.00     0.068 A 
HETATM    5  N   UNL     1      41.456 -13.554   1.627  1.00  0.00    -0.241 NA
HETATM    6  C   UNL     1      41.101 -14.829   1.924  1.00  0.00     0.100 A 
HETATM    7  C   UNL     1      40.997 -15.836   0.966  1.00  0.00    -0.026 A 
HETATM    8  C   UNL     1      40.617 -17.252   1.278  1.00  0.00     0.051 C 
HETATM    9  C   UNL     1      41.318 -15.494  -0.354  1.00  0.00     0.023 A 
HETATM   10  C   UNL     1      42.102 -11.939   0.035  1.00  0.00     0.035 A 
HETATM   11  C   UNL     1      42.401 -11.564  -1.279  1.00  0.00     0.039 A 
ENDROOT
BRANCH   6  12
HETATM   12  S   UNL     1      40.785 -15.063   3.659  1.00  0.00    -0.096 SA
BRANCH  12  13
HETATM   13  C   UNL     1      42.389 -15.762   4.202  1.00  0.00     0.142 C 
HETATM   14  C   UNL     1      43.491 -15.200   3.309  1.00  0.00     0.031 C 
BRANCH  13  15
HETATM   15  C   UNL     1      42.441 -17.292   4.182  1.00  0.00     0.236 C 
HETATM   16  N   UNL     1      43.426 -17.825   3.372  1.00  0.00    -0.326 N 
HETATM   17  H   UNL     1      43.808 -17.187   2.679  1.00  0.00     0.169 HD
HETATM   18  O   UNL     1      41.686 -17.928   4.916  1.00  0.00    -0.272 OA
BRANCH  16  19
HETATM   19  C   UNL     1      43.780 -19.179   3.221  1.00  0.00     0.034 A 
HETATM   20  C   UNL     1      44.490 -19.911   4.173  1.00  0.00     0.029 A 
HETATM   21  C   UNL     1      44.806 -21.254   3.942  1.00  0.00     0.002 A 
HETATM   22  C   UNL     1      44.421 -21.873   2.755  1.00  0.00     0.000 A 
HETATM   23  C   UNL     1      43.717 -21.149   1.797  1.00  0.00     0.002 A 
HETATM   24  C   UNL     1      43.400 -19.809   2.028  1.00  0.00     0.029 A 
ENDBRANCH  16  19
ENDBRANCH  13  15
ENDBRANCH  12  13
ENDBRANCH   6  12
BRANCH   1  25
HETATM   25  O   UNL     1      42.651 -12.004  -3.548  1.00  0.00    -0.351 OA
BRANCH  25  26
HETATM   26  C   UNL     1      41.694 -11.143  -4.162  1.00  0.00     0.171 C 
HETATM   27  C   UNL     1      42.439  -9.961  -4.756  1.00  0.00     0.034 C 
ENDBRANCH  25  26
ENDBRANCH   1  25
TORSDOF 6
ENDMDL
MODEL 8
REMARK VINA RESULT:      -7.2      3.766      5.366
REMARK  6 active torsions:
REMARK  status: ('A' for Active; 'I' for Inactive)
REMARK    1  A    between atoms: C_2  and  O_3 
REMARK    2  A    between atoms: O_3  and  C_4 
REMARK    3  A    between atoms: C_9  and  S_10 
REMARK    4  A    between atoms: S_10  and  C_11 
REMARK    5  A    between atoms: C_11  and  C_12 
REMARK       I    between atoms: C_12  and  N_13 
REMARK    6  A    between atoms: N_13  and  C_14 
ROOT
HETATM    1  C   UNL     1      39.389 -11.285   6.102  1.00  0.00     0.069 A 
HETATM    2  C   UNL     1      39.881 -12.530   6.493  1.00  0.00     0.050 A 
HETATM    3  C   UNL     1      40.055 -13.558   5.545  1.00  0.00    -0.004 A 
HETATM    4  C   UNL     1      39.728 -13.349   4.194  1.00  0.00     0.068 A 
HETATM    5  N   UNL     1      39.882 -14.303   3.261  1.00  0.00    -0.241 NA
HETATM    6  C   UNL     1      40.372 -15.511   3.634  1.00  0.00     0.100 A 
HETATM    7  C   UNL     1      40.746 -15.814   4.941  1.00  0.00    -0.026 A 
HETATM    8  C   UNL     1      41.278 -17.148   5.372  1.00  0.00     0.051 C 
HETATM    9  C   UNL     1      40.561 -14.815   5.905  1.00  0.00     0.023 A 
HETATM   10  C   UNL     1      39.232 -12.107   3.827  1.00  0.00     0.035 A 
HETATM   11  C   UNL     1      39.064 -11.082   4.764  1.00  0.00     0.039 A 
ENDROOT
BRANCH   6  12
HETATM   12  S   UNL     1      40.480 -16.652   2.272  1.00  0.00    -0.096 SA
BRANCH  12  13
HETATM   13  C   UNL     1      42.137 -16.233   1.613  1.00  0.00     0.142 C 
HETATM   14  C   UNL     1      41.987 -15.800   0.159  1.00  0.00     0.031 C 
BRANCH  13  15
HETATM   15  C   UNL     1      43.153 -17.374   1.708  1.00  0.00     0.236 C 
HETATM   16  N   UNL     1      42.790 -18.398   2.564  1.00  0.00    -0.326 N 
HETATM   17  H   UNL     1      42.062 -18.164   3.233  1.00  0.00     0.169 HD
HETATM   18  O   UNL     1      44.151 -17.352   0.990  1.00  0.00    -0.272 OA
BRANCH  16  19
HETATM   19  C   UNL     1      43.463 -19.614   2.788  1.00  0.00     0.034 A 
HETATM   20  C   UNL     1      44.258 -19.872   3.905  1.00  0.00     0.029 A 
HETATM   21  C   UNL     1      44.896 -21.108   4.050  1.00  0.00     0.002 A 
HETATM   22  C   UNL     1      44.749 -22.093   3.077  1.00  0.00     0.000 A 
HETATM   23  C   UNL     1      43.963 -21.844   1.956  1.00  0.00     0.002 A 
HETATM   24  C   UNL     1      43.324 -20.610   1.812  1.00  0.00     0.029 A 
ENDBRANCH  16  19
ENDBRANCH  13  15
ENDBRANCH  12  13
ENDBRANCH   6  12
BRANCH   1  25
HETATM   25  O   UNL     1      39.187 -10.204   6.913  1.00  0.00    -0.351 OA
BRANCH  25  26
HETATM   26  C   UNL     1      40.046 -10.067   8.044  1.00  0.00     0.171 C 
HETATM   27  C   UNL     1      41.216  -9.187   7.640  1.00  0.00     0.034 C 
ENDBRANCH  25  26
ENDBRANCH   1  25
TORSDOF 6
ENDMDL
MODEL 9
REMARK VINA RESULT:      -7.2      3.301      8.253
REMARK  6 active torsions:
REMARK  status: ('A' for Active; 'I' for Inactive)
REMARK    1  A    between atoms: C_2  and  O_3 
REMARK    2  A    between atoms: O_3  and  C_4 
REMARK    3  A    between atoms: C_9  and  S_10 
REMARK    4  A    between atoms: S_10  and  C_11 
REMARK    5  A    between atoms: C_11  and  C_12 
REMARK       I    between atoms: C_12  and  N_13 
REMARK    6  A    between atoms: N_13  and  C_14 
ROOT
HETATM    1  C   UNL     1      44.008 -19.288   4.155  1.00  0.00     0.069 A 
HETATM    2  C   UNL     1      43.807 -18.842   2.850  1.00  0.00     0.050 A 
HETATM    3  C   UNL     1      42.780 -17.920   2.561  1.00  0.00    -0.004 A 
HETATM    4  C   UNL     1      41.938 -17.444   3.580  1.00  0.00     0.068 A 
HETATM    5  N   UNL     1      40.951 -16.565   3.345  1.00  0.00    -0.241 NA
HETATM    6  C   UNL     1      40.759 -16.118   2.079  1.00  0.00     0.100 A 
HETATM    7  C   UNL     1      41.550 -16.510   1.002  1.00  0.00    -0.026 A 
HETATM    8  C   UNL     1      41.345 -16.034  -0.405  1.00  0.00     0.051 C 
HETATM    9  C   UNL     1      42.563 -17.442   1.261  1.00  0.00     0.023 A 
HETATM   10  C   UNL     1      42.148 -17.907   4.870  1.00  0.00     0.035 A 
HETATM   11  C   UNL     1      43.170 -18.817   5.163  1.00  0.00     0.039 A 
ENDROOT
BRANCH   6  12
HETATM   12  S   UNL     1      39.393 -14.983   1.957  1.00  0.00    -0.096 SA
BRANCH  12  13
HETATM   13  C   UNL     1      40.221 -13.412   2.405  1.00  0.00     0.142 C 
HETATM   14  C   UNL     1      39.406 -12.728   3.498  1.00  0.00     0.031 C 
BRANCH  13  15
HETATM   15  C   UNL     1      40.413 -12.451   1.229  1.00  0.00     0.236 C 
HETATM   16  N   UNL     1      41.652 -12.523   0.622  1.00  0.00    -0.326 N 
HETATM   17  H   UNL     1      42.378 -12.974   1.174  1.00  0.00     0.169 HD
HETATM   18  O   UNL     1      39.467 -11.757   0.859  1.00  0.00    -0.272 OA
BRANCH  16  19
HETATM   19  C   UNL     1      42.091 -11.842  -0.529  1.00  0.00     0.034 A 
HETATM   20  C   UNL     1      42.030 -12.370  -1.819  1.00  0.00     0.029 A 
HETATM   21  C   UNL     1      42.493 -11.629  -2.911  1.00  0.00     0.002 A 
HETATM   22  C   UNL     1      43.026 -10.356  -2.721  1.00  0.00     0.000 A 
HETATM   23  C   UNL     1      43.096  -9.822  -1.437  1.00  0.00     0.002 A 
HETATM   24  C   UNL     1      42.633 -10.563  -0.347  1.00  0.00     0.029 A 
ENDBRANCH  16  19
ENDBRANCH  13  15
ENDBRANCH  12  13
ENDBRANCH   6  12
BRANCH   1  25
HETATM   25  O   UNL     1      44.970 -20.164   4.571  1.00  0.00    -0.351 OA
BRANCH  25  26
HETATM   26  C   UNL     1      44.573 -21.186   5.484  1.00  0.00     0.171 C 
HETATM   27  C   UNL     1      44.984 -22.525   4.898  1.00  0.00     0.034 C 
ENDBRANCH  25  26
ENDBRANCH   1  25
TORSDOF 6
ENDMDL
MODEL 10
REMARK VINA RESULT:      -7.1      2.318      5.505
REMARK  6 active torsions:
REMARK  status: ('A' for Active; 'I' for Inactive)
REMARK    1  A    between atoms: C_2  and  O_3 
REMARK    2  A    between atoms: O_3  and  C_4 
REMARK    3  A    between atoms: C_9  and  S_10 
REMARK    4  A    between atoms: S_10  and  C_11 
REMARK    5  A    between atoms: C_11  and  C_12 
REMARK       I    between atoms: C_12  and  N_13 
REMARK    6  A    between atoms: N_13  and  C_14 
ROOT
HETATM    1  C   UNL     1      40.633 -15.185  -0.319  1.00  0.00     0.069 A 
HETATM    2  C   UNL     1      41.614 -16.173  -0.262  1.00  0.00     0.050 A 
HETATM    3  C   UNL     1      41.936 -16.790   0.964  1.00  0.00    -0.004 A 
HETATM    4  C   UNL     1      41.280 -16.413   2.148  1.00  0.00     0.068 A 
HETATM    5  N   UNL     1      41.557 -16.979   3.334  1.00  0.00    -0.241 NA
HETATM    6  C   UNL     1      42.502 -17.950   3.393  1.00  0.00     0.100 A 
HETATM    7  C   UNL     1      43.195 -18.411   2.275  1.00  0.00    -0.026 A 
HETATM    8  C   UNL     1      44.250 -19.475   2.324  1.00  0.00     0.051 C 
HETATM    9  C   UNL     1      42.907 -17.797   1.050  1.00  0.00     0.023 A 
HETATM   10  C   UNL     1      40.314 -15.422   2.072  1.00  0.00     0.035 A 
HETATM   11  C   UNL     1      39.987 -14.812   0.857  1.00  0.00     0.039 A 
ENDROOT
BRANCH   6  12
HETATM   12  S   UNL     1      42.750 -18.560   5.046  1.00  0.00    -0.096 SA
BRANCH  12  13
HETATM   13  C   UNL     1      43.965 -17.341   5.676  1.00  0.00     0.142 C 
HETATM   14  C   UNL     1      44.868 -18.035   6.690  1.00  0.00     0.031 C 
BRANCH  13  15
HETATM   15  C   UNL     1      43.331 -16.103   6.314  1.00  0.00     0.236 C 
HETATM   16  N   UNL     1      42.635 -15.294   5.435  1.00  0.00    -0.326 N 
HETATM   17  H   UNL     1      42.850 -15.439   4.452  1.00  0.00     0.169 HD
HETATM   18  O   UNL     1      43.408 -15.947   7.531  1.00  0.00    -0.272 OA
BRANCH  16  19
HETATM   19  C   UNL     1      41.873 -14.149   5.734  1.00  0.00     0.034 A 
HETATM   20  C   UNL     1      42.423 -12.904   6.042  1.00  0.00     0.029 A 
HETATM   21  C   UNL     1      41.594 -11.816   6.333  1.00  0.00     0.002 A 
HETATM   22  C   UNL     1      40.209 -11.966   6.323  1.00  0.00     0.000 A 
HETATM   23  C   UNL     1      39.651 -13.205   6.022  1.00  0.00     0.002 A 
HETATM   24  C   UNL     1      40.480 -14.291   5.731  1.00  0.00     0.029 A 
ENDBRANCH  16  19
ENDBRANCH  13  15
ENDBRANCH  12  13
ENDBRANCH   6  12
BRANCH   1  25
HETATM   25  O   UNL     1      40.217 -14.521  -1.438  1.00  0.00    -0.351 OA
BRANCH  25  26
HETATM   26  C   UNL     1      41.008 -13.416  -1.873  1.00  0.00     0.171 C 
HETATM   27  C   UNL     1      41.494 -13.711  -3.280  1.00  0.00     0.034 C 
ENDBRANCH  25  26
ENDBRANCH   1  25
TORSDOF 6
ENDMDL
