MODEL 1
REMARK VINA RESULT:      -8.3      0.000      0.000
REMARK  8 active torsions:
REMARK  status: ('A' for Active; 'I' for Inactive)
REMARK    1  A    between atoms: C_2  and  C_3 
REMARK    2  A    between atoms: C_3  and  N_4 
REMARK       I    between atoms: N_4  and  C_5 
REMARK    3  A    between atoms: C_5  and  C_6 
REMARK    4  A    between atoms: C_7  and  N_8 
REMARK    5  A    between atoms: N_11  and  C_12 
REMARK    6  A    between atoms: C_13  and  O_14 
REMARK    7  A    between atoms: C_24  and  N_25 
REMARK       I    between atoms: N_25  and  C_26 
REMARK       I    between atoms: C_26  and  N_27 
REMARK    8  A    between atoms: N_27  and  C_28 
ROOT
HETATM    1  C   UNL     1      40.450 -14.382   0.459  1.00  0.00     0.060 A 
HETATM    2  C   UNL     1      41.238 -15.529   0.220  1.00  0.00     0.046 A 
HETATM    3  C   UNL     1      41.377 -15.914  -1.122  1.00  0.00     0.032 A 
HETATM    4  C   UNL     1      40.754 -15.216  -2.167  1.00  0.00     0.032 A 
HETATM    5  C   UNL     1      39.963 -14.100  -1.910  1.00  0.00     0.037 A 
HETATM    6  C   UNL     1      39.814 -13.683  -0.588  1.00  0.00     0.049 A 
ENDROOT
BRANCH   2   7
HETATM    7  N   UNL     1      41.842 -16.254   1.254  1.00  0.00    -0.377 N 
HETATM    8  C   UNL     1      43.280 -16.561   1.050  1.00  0.00     0.143 C 
HETATM    9  C   UNL     1      43.925 -16.995   2.388  1.00  0.00     0.143 C 
HETATM   10  N   UNL     1      43.199 -18.115   3.016  1.00  0.00    -0.376 N 
HETATM   11  C   UNL     1      41.747 -17.855   3.164  1.00  0.00     0.143 C 
HETATM   12  C   UNL     1      41.113 -17.411   1.824  1.00  0.00     0.143 C 
BRANCH  10  13
HETATM   13  C   UNL     1      43.658 -19.429   3.010  1.00  0.00     0.064 A 
HETATM   14  C   UNL     1      44.358 -20.063   4.064  1.00  0.00     0.094 A 
HETATM   15  C   UNL     1      44.760 -21.409   3.955  1.00  0.00     0.039 A 
HETATM   16  C   UNL     1      44.443 -22.163   2.828  1.00  0.00     0.003 A 
HETATM   17  C   UNL     1      43.736 -21.574   1.793  1.00  0.00     0.002 A 
HETATM   18  C   UNL     1      43.355 -20.231   1.888  1.00  0.00     0.032 A 
BRANCH  14  19
HETATM   19  O   UNL     1      44.734 -19.316   5.158  1.00  0.00    -0.354 OA
HETATM   20  C   UNL     1      43.942 -19.531   6.324  1.00  0.00     0.210 C 
ENDBRANCH  14  19
ENDBRANCH  10  13
ENDBRANCH   2   7
BRANCH   1  21
HETATM   21  C   UNL     1      40.172 -13.886   1.831  1.00  0.00     0.254 C 
HETATM   22  N   UNL     1      41.135 -13.025   2.326  1.00  0.00    -0.353 N 
HETATM   23  H   UNL     1      42.011 -12.954   1.825  1.00  0.00     0.163 HD
HETATM   24  O   UNL     1      39.147 -14.190   2.427  1.00  0.00    -0.268 OA
BRANCH  22  25
HETATM   25  C   UNL     1      41.052 -12.476   3.674  1.00  0.00     0.080 C 
HETATM   26  C   UNL     1      40.834 -10.967   3.612  1.00  0.00     0.032 C 
BRANCH  25  27
HETATM   27  C   UNL     1      42.272 -12.868   4.526  1.00  0.00     0.020 C 
HETATM   28  C   UNL     1      43.364 -13.616   3.771  1.00  0.00     0.007 C 
ENDBRANCH  25  27
ENDBRANCH  22  25
ENDBRANCH   1  21
BRANCH   5  29
HETATM   29  N   UNL     1      39.254 -13.404  -2.912  1.00  0.00    -0.309 N 
HETATM   30  C   UNL     1      37.931 -13.608  -3.281  1.00  0.00     0.325 C 
HETATM   31  N   UNL     1      37.473 -12.554  -4.053  1.00  0.00    -0.307 N 
HETATM   32  O   UNL     1      37.262 -14.579  -2.950  1.00  0.00    -0.247 OA
HETATM   33  H   UNL     1      38.037 -11.715  -4.045  1.00  0.00     0.170 HD
HETATM   34  H   UNL     1      39.787 -12.776  -3.496  1.00  0.00     0.170 HD
BRANCH  31  35
HETATM   35  C   UNL     1      36.178 -12.394  -4.608  1.00  0.00     0.053 A 
HETATM   36  C   UNL     1      35.239 -11.602  -3.921  1.00  0.00     0.037 A 
HETATM   37 BR   UNL     1      35.681 -10.735  -2.285  1.00  0.00    -0.049 Br
HETATM   38  C   UNL     1      33.940 -11.437  -4.413  1.00  0.00     0.021 A 
HETATM   39  C   UNL     1      33.563 -12.054  -5.603  1.00  0.00     0.002 A 
HETATM   40  C   UNL     1      34.488 -12.825  -6.303  1.00  0.00     0.002 A 
HETATM   41  C   UNL     1      35.787 -12.990  -5.811  1.00  0.00     0.031 A 
ENDBRANCH  31  35
ENDBRANCH   5  29
TORSDOF 8
ENDMDL
MODEL 2
REMARK VINA RESULT:      -8.2      2.885     10.331
REMARK  8 active torsions:
REMARK  status: ('A' for Active; 'I' for Inactive)
REMARK    1  A    between atoms: C_2  and  C_3 
REMARK    2  A    between atoms: C_3  and  N_4 
REMARK       I    between atoms: N_4  and  C_5 
REMARK    3  A    between atoms: C_5  and  C_6 
REMARK    4  A    between atoms: C_7  and  N_8 
REMARK    5  A    between atoms: N_11  and  C_12 
REMARK    6  A    between atoms: C_13  and  O_14 
REMARK    7  A    between atoms: C_24  and  N_25 
REMARK       I    between atoms: N_25  and  C_26 
REMARK       I    between atoms: C_26  and  N_27 
REMARK    8  A    between atoms: N_27  and  C_28 
ROOT
HETATM    1  C   UNL     1      41.675 -14.038   0.929  1.00  0.00     0.060 A 
HETATM    2  C   UNL     1      40.912 -14.450  -0.184  1.00  0.00     0.046 A 
HETATM    3  C   UNL     1      41.024 -15.801  -0.544  1.00  0.00     0.032 A 
HETATM    4  C   UNL     1      41.859 -16.691   0.146  1.00  0.00     0.032 A 
HETATM    5  C   UNL     1      42.621 -16.262   1.229  1.00  0.00     0.037 A 
HETATM    6  C   UNL     1      42.524 -14.927   1.621  1.00  0.00     0.049 A 
ENDROOT
BRANCH   2   7
HETATM    7  N   UNL     1      40.096 -13.568  -0.903  1.00  0.00    -0.377 N 
HETATM    8  C   UNL     1      38.641 -13.695  -0.634  1.00  0.00     0.143 C 
HETATM    9  C   UNL     1      37.893 -12.445  -1.154  1.00  0.00     0.143 C 
HETATM   10  N   UNL     1      38.176 -12.183  -2.579  1.00  0.00    -0.376 N 
HETATM   11  C   UNL     1      39.626 -12.122  -2.881  1.00  0.00     0.143 C 
HETATM   12  C   UNL     1      40.368 -13.371  -2.347  1.00  0.00     0.143 C 
BRANCH  10  13
HETATM   13  C   UNL     1      37.278 -12.462  -3.604  1.00  0.00     0.064 A 
HETATM   14  C   UNL     1      36.821 -13.749  -3.974  1.00  0.00     0.094 A 
HETATM   15  C   UNL     1      35.893 -13.912  -5.020  1.00  0.00     0.039 A 
HETATM   16  C   UNL     1      35.367 -12.810  -5.690  1.00  0.00     0.003 A 
HETATM   17  C   UNL     1      35.778 -11.537  -5.332  1.00  0.00     0.002 A 
HETATM   18  C   UNL     1      36.718 -11.373  -4.308  1.00  0.00     0.032 A 
BRANCH  14  19
HETATM   19  O   UNL     1      37.376 -14.853  -3.364  1.00  0.00    -0.354 OA
HETATM   20  C   UNL     1      38.256 -15.609  -4.192  1.00  0.00     0.210 C 
ENDBRANCH  14  19
ENDBRANCH  10  13
ENDBRANCH   2   7
BRANCH   1  21
HETATM   21  C   UNL     1      41.698 -12.628   1.394  1.00  0.00     0.254 C 
HETATM   22  N   UNL     1      40.880 -12.379   2.483  1.00  0.00    -0.353 N 
HETATM   23  H   UNL     1      40.211 -13.090   2.746  1.00  0.00     0.163 HD
HETATM   24  O   UNL     1      42.425 -11.793   0.874  1.00  0.00    -0.268 OA
BRANCH  22  25
HETATM   25  C   UNL     1      40.740 -11.042   3.046  1.00  0.00     0.080 C 
HETATM   26  C   UNL     1      41.187 -11.039   4.505  1.00  0.00     0.032 C 
BRANCH  25  27
HETATM   27  C   UNL     1      39.317 -10.489   2.856  1.00  0.00     0.020 C 
HETATM   28  C   UNL     1      38.271 -11.533   2.482  1.00  0.00     0.007 C 
ENDBRANCH  25  27
ENDBRANCH  22  25
ENDBRANCH   1  21
BRANCH   5  29
HETATM   29  N   UNL     1      43.533 -17.093   1.914  1.00  0.00    -0.309 N 
HETATM   30  C   UNL     1      43.238 -18.283   2.565  1.00  0.00     0.325 C 
HETATM   31  N   UNL     1      44.398 -18.986   2.842  1.00  0.00    -0.307 N 
HETATM   32  O   UNL     1      42.106 -18.662   2.836  1.00  0.00    -0.247 OA
HETATM   33  H   UNL     1      45.231 -18.687   2.354  1.00  0.00     0.170 HD
HETATM   34  H   UNL     1      44.467 -16.734   2.045  1.00  0.00     0.170 HD
BRANCH  31  35
HETATM   35  C   UNL     1      44.507 -20.245   3.485  1.00  0.00     0.053 A 
HETATM   36  C   UNL     1      44.635 -20.283   4.886  1.00  0.00     0.037 A 
HETATM   37 BR   UNL     1      44.647 -18.686   5.923  1.00  0.00    -0.049 Br
HETATM   38  C   UNL     1      44.774 -21.498   5.564  1.00  0.00     0.021 A 
HETATM   39  C   UNL     1      44.777 -22.695   4.852  1.00  0.00     0.002 A 
HETATM   40  C   UNL     1      44.631 -22.675   3.468  1.00  0.00     0.002 A 
HETATM   41  C   UNL     1      44.493 -21.459   2.790  1.00  0.00     0.031 A 
ENDBRANCH  31  35
ENDBRANCH   5  29
TORSDOF 8
ENDMDL
MODEL 3
REMARK VINA RESULT:      -8.2      4.044      8.256
REMARK  8 active torsions:
REMARK  status: ('A' for Active; 'I' for Inactive)
REMARK    1  A    between atoms: C_2  and  C_3 
REMARK    2  A    between atoms: C_3  and  N_4 
REMARK       I    between atoms: N_4  and  C_5 
REMARK    3  A    between atoms: C_5  and  C_6 
REMARK    4  A    between atoms: C_7  and  N_8 
REMARK    5  A    between atoms: N_11  and  C_12 
REMARK    6  A    between atoms: C_13  and  O_14 
REMARK    7  A    between atoms: C_24  and  N_25 
REMARK       I    between atoms: N_25  and  C_26 
REMARK       I    between atoms: C_26  and  N_27 
REMARK    8  A    between atoms: N_27  and  C_28 
ROOT
HETATM    1  C   UNL     1      41.765 -13.279   3.086  1.00  0.00     0.060 A 
HETATM    2  C   UNL     1      42.045 -14.504   3.730  1.00  0.00     0.046 A 
HETATM    3  C   UNL     1      42.024 -14.483   5.133  1.00  0.00     0.032 A 
HETATM    4  C   UNL     1      41.762 -13.312   5.858  1.00  0.00     0.032 A 
HETATM    5  C   UNL     1      41.509 -12.108   5.206  1.00  0.00     0.037 A 
HETATM    6  C   UNL     1      41.511 -12.097   3.811  1.00  0.00     0.049 A 
ENDROOT
BRANCH   2   7
HETATM    7  N   UNL     1      42.338 -15.675   3.021  1.00  0.00    -0.377 N 
HETATM    8  C   UNL     1      41.498 -16.848   3.369  1.00  0.00     0.143 C 
HETATM    9  C   UNL     1      41.628 -17.938   2.279  1.00  0.00     0.143 C 
HETATM   10  N   UNL     1      43.035 -18.312   2.034  1.00  0.00    -0.376 N 
HETATM   11  C   UNL     1      43.905 -17.145   1.753  1.00  0.00     0.143 C 
HETATM   12  C   UNL     1      43.759 -16.056   2.843  1.00  0.00     0.143 C 
BRANCH  10  13
HETATM   13  C   UNL     1      43.607 -19.493   2.496  1.00  0.00     0.064 A 
HETATM   14  C   UNL     1      44.171 -19.689   3.779  1.00  0.00     0.094 A 
HETATM   15  C   UNL     1      44.708 -20.939   4.147  1.00  0.00     0.039 A 
HETATM   16  C   UNL     1      44.660 -22.024   3.276  1.00  0.00     0.003 A 
HETATM   17  C   UNL     1      44.090 -21.866   2.023  1.00  0.00     0.002 A 
HETATM   18  C   UNL     1      43.577 -20.620   1.646  1.00  0.00     0.032 A 
BRANCH  14  19
HETATM   19  O   UNL     1      44.282 -18.612   4.630  1.00  0.00    -0.354 OA
HETATM   20  C   UNL     1      43.457 -18.684   5.790  1.00  0.00     0.210 C 
ENDBRANCH  14  19
ENDBRANCH  10  13
ENDBRANCH   2   7
BRANCH   1  21
HETATM   21  C   UNL     1      41.802 -13.137   1.608  1.00  0.00     0.254 C 
HETATM   22  N   UNL     1      40.890 -13.935   0.941  1.00  0.00    -0.353 N 
HETATM   23  H   UNL     1      40.425 -14.665   1.465  1.00  0.00     0.163 HD
HETATM   24  O   UNL     1      42.549 -12.337   1.060  1.00  0.00    -0.268 OA
BRANCH  22  25
HETATM   25  C   UNL     1      40.815 -13.962  -0.515  1.00  0.00     0.080 C 
HETATM   26  C   UNL     1      39.463 -13.428  -0.979  1.00  0.00     0.032 C 
BRANCH  25  27
HETATM   27  C   UNL     1      41.131 -15.359  -1.076  1.00  0.00     0.020 C 
HETATM   28  C   UNL     1      40.770 -15.553  -2.544  1.00  0.00     0.007 C 
ENDBRANCH  25  27
ENDBRANCH  22  25
ENDBRANCH   1  21
BRANCH   5  29
HETATM   29  N   UNL     1      41.313 -10.886   5.882  1.00  0.00    -0.309 N 
HETATM   30  C   UNL     1      40.310 -10.600   6.799  1.00  0.00     0.325 C 
HETATM   31  N   UNL     1      40.603  -9.440   7.495  1.00  0.00    -0.307 N 
HETATM   32  O   UNL     1      39.316 -11.294   6.976  1.00  0.00    -0.247 OA
HETATM   33  H   UNL     1      41.555  -9.106   7.429  1.00  0.00     0.170 HD
HETATM   34  H   UNL     1      41.882 -10.105   5.589  1.00  0.00     0.170 HD
BRANCH  31  35
HETATM   35  C   UNL     1      39.830  -8.833   8.517  1.00  0.00     0.053 A 
HETATM   36  C   UNL     1      40.009  -9.259   9.846  1.00  0.00     0.037 A 
HETATM   37 BR   UNL     1      41.271 -10.612  10.292  1.00  0.00    -0.049 Br
HETATM   38  C   UNL     1      39.251  -8.711  10.886  1.00  0.00     0.021 A 
HETATM   39  C   UNL     1      38.309  -7.722  10.613  1.00  0.00     0.002 A 
HETATM   40  C   UNL     1      38.136  -7.276   9.306  1.00  0.00     0.002 A 
HETATM   41  C   UNL     1      38.894  -7.824   8.266  1.00  0.00     0.031 A 
ENDBRANCH  31  35
ENDBRANCH   5  29
TORSDOF 8
ENDMDL
MODEL 4
REMARK VINA RESULT:      -8.0      5.055     10.248
REMARK  8 active torsions:
REMARK  status: ('A' for Active; 'I' for Inactive)
REMARK    1  A    between atoms: C_2  and  C_3 
REMARK    2  A    between atoms: C_3  and  N_4 
REMARK       I    between atoms: N_4  and  C_5 
REMARK    3  A    between atoms: C_5  and  C_6 
REMARK    4  A    between atoms: C_7  and  N_8 
REMARK    5  A    between atoms: N_11  and  C_12 
REMARK    6  A    between atoms: C_13  and  O_14 
REMARK    7  A    between atoms: C_24  and  N_25 
REMARK       I    between atoms: N_25  and  C_26 
REMARK       I    between atoms: C_26  and  N_27 
REMARK    8  A    between atoms: N_27  and  C_28 
ROOT
HETATM    1  C   UNL     1      41.448 -13.613   5.050  1.00  0.00     0.060 A 
HETATM    2  C   UNL     1      40.653 -13.354   3.914  1.00  0.00     0.046 A 
HETATM    3  C   UNL     1      39.477 -12.620   4.137  1.00  0.00     0.032 A 
HETATM    4  C   UNL     1      39.099 -12.186   5.415  1.00  0.00     0.032 A 
HETATM    5  C   UNL     1      39.886 -12.470   6.528  1.00  0.00     0.037 A 
HETATM    6  C   UNL     1      41.067 -13.187   6.340  1.00  0.00     0.049 A 
ENDROOT
BRANCH   2   7
HETATM    7  N   UNL     1      41.000 -13.805   2.635  1.00  0.00    -0.377 N 
HETATM    8  C   UNL     1      40.959 -12.772   1.570  1.00  0.00     0.143 C 
HETATM    9  C   UNL     1      41.726 -13.266   0.321  1.00  0.00     0.143 C 
HETATM   10  N   UNL     1      41.232 -14.575  -0.152  1.00  0.00    -0.376 N 
HETATM   11  C   UNL     1      41.199 -15.602   0.916  1.00  0.00     0.143 C 
HETATM   12  C   UNL     1      40.440 -15.095   2.165  1.00  0.00     0.143 C 
BRANCH  10  13
HETATM   13  C   UNL     1      40.424 -14.731  -1.273  1.00  0.00     0.064 A 
HETATM   14  C   UNL     1      39.171 -14.106  -1.480  1.00  0.00     0.094 A 
HETATM   15  C   UNL     1      38.444 -14.324  -2.667  1.00  0.00     0.039 A 
HETATM   16  C   UNL     1      38.957 -15.124  -3.685  1.00  0.00     0.003 A 
HETATM   17  C   UNL     1      40.193 -15.728  -3.518  1.00  0.00     0.002 A 
HETATM   18  C   UNL     1      40.906 -15.532  -2.331  1.00  0.00     0.032 A 
BRANCH  14  19
HETATM   19  O   UNL     1      38.622 -13.362  -0.461  1.00  0.00    -0.354 OA
HETATM   20  C   UNL     1      37.597 -14.026   0.275  1.00  0.00     0.210 C 
ENDBRANCH  14  19
ENDBRANCH  10  13
ENDBRANCH   2   7
BRANCH   1  21
HETATM   21  C   UNL     1      42.692 -14.420   4.977  1.00  0.00     0.254 C 
HETATM   22  N   UNL     1      42.485 -15.786   5.064  1.00  0.00    -0.353 N 
HETATM   23  H   UNL     1      41.572 -16.110   5.353  1.00  0.00     0.163 HD
HETATM   24  O   UNL     1      43.785 -13.899   4.804  1.00  0.00    -0.268 OA
BRANCH  22  25
HETATM   25  C   UNL     1      43.595 -16.731   5.057  1.00  0.00     0.080 C 
HETATM   26  C   UNL     1      43.440 -17.711   3.897  1.00  0.00     0.032 C 
BRANCH  25  27
HETATM   27  C   UNL     1      43.753 -17.435   6.416  1.00  0.00     0.020 C 
HETATM   28  C   UNL     1      42.571 -17.267   7.363  1.00  0.00     0.007 C 
ENDBRANCH  25  27
ENDBRANCH  22  25
ENDBRANCH   1  21
BRANCH   5  29
HETATM   29  N   UNL     1      39.521 -12.123   7.846  1.00  0.00    -0.309 N 
HETATM   30  C   UNL     1      39.750 -10.906   8.475  1.00  0.00     0.325 C 
HETATM   31  N   UNL     1      38.987 -10.802   9.625  1.00  0.00    -0.307 N 
HETATM   32  O   UNL     1      40.509 -10.043   8.055  1.00  0.00    -0.247 OA
HETATM   33  H   UNL     1      38.232 -11.467   9.724  1.00  0.00     0.170 HD
HETATM   34  H   UNL     1      39.161 -12.864   8.430  1.00  0.00     0.170 HD
BRANCH  31  35
HETATM   35  C   UNL     1      38.939  -9.709  10.528  1.00  0.00     0.053 A 
HETATM   36  C   UNL     1      39.518  -9.856  11.802  1.00  0.00     0.037 A 
HETATM   37 BR   UNL     1      40.372 -11.476  12.322  1.00  0.00    -0.049 Br
HETATM   38  C   UNL     1      39.471  -8.817  12.737  1.00  0.00     0.021 A 
HETATM   39  C   UNL     1      38.853  -7.613  12.409  1.00  0.00     0.002 A 
HETATM   40  C   UNL     1      38.294  -7.447  11.146  1.00  0.00     0.002 A 
HETATM   41  C   UNL     1      38.340  -8.486  10.210  1.00  0.00     0.031 A 
ENDBRANCH  31  35
ENDBRANCH   5  29
TORSDOF 8
ENDMDL
MODEL 5
REMARK VINA RESULT:      -8.0      4.960     10.807
REMARK  8 active torsions:
REMARK  status: ('A' for Active; 'I' for Inactive)
REMARK    1  A    between atoms: C_2  and  C_3 
REMARK    2  A    between atoms: C_3  and  N_4 
REMARK       I    between atoms: N_4  and  C_5 
REMARK    3  A    between atoms: C_5  and  C_6 
REMARK    4  A    between atoms: C_7  and  N_8 
REMARK    5  A    between atoms: N_11  and  C_12 
REMARK    6  A    between atoms: C_13  and  O_14 
REMARK    7  A    between atoms: C_24  and  N_25 
REMARK       I    between atoms: N_25  and  C_26 
REMARK       I    between atoms: C_26  and  N_27 
REMARK    8  A    between atoms: N_27  and  C_28 
ROOT
HETATM    1  C   UNL     1      42.214 -13.011   4.874  1.00  0.00     0.060 A 
HETATM    2  C   UNL     1      41.410 -12.521   3.823  1.00  0.00     0.046 A 
HETATM    3  C   UNL     1      40.433 -11.580   4.180  1.00  0.00     0.032 A 
HETATM    4  C   UNL     1      40.247 -11.162   5.506  1.00  0.00     0.032 A 
HETATM    5  C   UNL     1      41.036 -11.673   6.533  1.00  0.00     0.037 A 
HETATM    6  C   UNL     1      42.025 -12.602   6.211  1.00  0.00     0.049 A 
ENDROOT
BRANCH   2   7
HETATM    7  N   UNL     1      41.562 -12.949   2.499  1.00  0.00    -0.377 N 
HETATM    8  C   UNL     1      41.232 -11.934   1.467  1.00  0.00     0.143 C 
HETATM    9  C   UNL     1      41.804 -12.363   0.096  1.00  0.00     0.143 C 
HETATM   10  N   UNL     1      41.360 -13.717  -0.291  1.00  0.00    -0.376 N 
HETATM   11  C   UNL     1      41.618 -14.734   0.757  1.00  0.00     0.143 C 
HETATM   12  C   UNL     1      41.052 -14.290   2.127  1.00  0.00     0.143 C 
BRANCH  10  13
HETATM   13  C   UNL     1      40.380 -13.960  -1.249  1.00  0.00     0.064 A 
HETATM   14  C   UNL     1      38.999 -13.687  -1.104  1.00  0.00     0.094 A 
HETATM   15  C   UNL     1      38.097 -13.957  -2.152  1.00  0.00     0.039 A 
HETATM   16  C   UNL     1      38.545 -14.459  -3.371  1.00  0.00     0.003 A 
HETATM   17  C   UNL     1      39.896 -14.712  -3.548  1.00  0.00     0.002 A 
HETATM   18  C   UNL     1      40.791 -14.466  -2.502  1.00  0.00     0.032 A 
BRANCH  14  19
HETATM   19  O   UNL     1      38.531 -13.248   0.115  1.00  0.00    -0.354 OA
HETATM   20  C   UNL     1      37.554 -14.094   0.715  1.00  0.00     0.210 C 
ENDBRANCH  14  19
ENDBRANCH  10  13
ENDBRANCH   2   7
BRANCH   1  21
HETATM   21  C   UNL     1      43.253 -14.049   4.657  1.00  0.00     0.254 C 
HETATM   22  N   UNL     1      42.836 -15.336   4.948  1.00  0.00    -0.353 N 
HETATM   23  H   UNL     1      41.965 -15.451   5.449  1.00  0.00     0.163 HD
HETATM   24  O   UNL     1      44.357 -13.767   4.210  1.00  0.00    -0.268 OA
BRANCH  22  25
HETATM   25  C   UNL     1      43.738 -16.477   4.838  1.00  0.00     0.080 C 
HETATM   26  C   UNL     1      43.391 -17.300   3.600  1.00  0.00     0.032 C 
BRANCH  25  27
HETATM   27  C   UNL     1      43.755 -17.316   6.127  1.00  0.00     0.020 C 
HETATM   28  C   UNL     1      43.629 -16.511   7.415  1.00  0.00     0.007 C 
ENDBRANCH  25  27
ENDBRANCH  22  25
ENDBRANCH   1  21
BRANCH   5  29
HETATM   29  N   UNL     1      40.847 -11.347   7.893  1.00  0.00    -0.309 N 
HETATM   30  C   UNL     1      41.759 -10.712   8.725  1.00  0.00     0.325 C 
HETATM   31  N   UNL     1      41.137 -10.266   9.879  1.00  0.00    -0.307 N 
HETATM   32  O   UNL     1      42.944 -10.554   8.461  1.00  0.00    -0.247 OA
HETATM   33  H   UNL     1      40.126 -10.241   9.862  1.00  0.00     0.170 HD
HETATM   34  H   UNL     1      40.017 -11.710   8.338  1.00  0.00     0.170 HD
BRANCH  31  35
HETATM   35  C   UNL     1      41.730  -9.566  10.959  1.00  0.00     0.053 A 
HETATM   36  C   UNL     1      41.455  -8.194  11.112  1.00  0.00     0.037 A 
HETATM   37 BR   UNL     1      40.295  -7.277   9.913  1.00  0.00    -0.049 Br
HETATM   38  C   UNL     1      42.038  -7.453  12.145  1.00  0.00     0.021 A 
HETATM   39  C   UNL     1      42.898  -8.075  13.047  1.00  0.00     0.002 A 
HETATM   40  C   UNL     1      43.164  -9.436  12.920  1.00  0.00     0.002 A 
HETATM   41  C   UNL     1      42.581 -10.177  11.887  1.00  0.00     0.031 A 
ENDBRANCH  31  35
ENDBRANCH   5  29
TORSDOF 8
ENDMDL
MODEL 6
REMARK VINA RESULT:      -7.9      4.899     10.987
REMARK  8 active torsions:
REMARK  status: ('A' for Active; 'I' for Inactive)
REMARK    1  A    between atoms: C_2  and  C_3 
REMARK    2  A    between atoms: C_3  and  N_4 
REMARK       I    between atoms: N_4  and  C_5 
REMARK    3  A    between atoms: C_5  and  C_6 
REMARK    4  A    between atoms: C_7  and  N_8 
REMARK    5  A    between atoms: N_11  and  C_12 
REMARK    6  A    between atoms: C_13  and  O_14 
REMARK    7  A    between atoms: C_24  and  N_25 
REMARK       I    between atoms: N_25  and  C_26 
REMARK       I    between atoms: C_26  and  N_27 
REMARK    8  A    between atoms: N_27  and  C_28 
ROOT
HETATM    1  C   UNL     1      41.990 -13.164   4.274  1.00  0.00     0.060 A 
HETATM    2  C   UNL     1      40.952 -12.702   3.437  1.00  0.00     0.046 A 
HETATM    3  C   UNL     1      39.987 -11.883   4.045  1.00  0.00     0.032 A 
HETATM    4  C   UNL     1      40.036 -11.558   5.407  1.00  0.00     0.032 A 
HETATM    5  C   UNL     1      41.057 -12.041   6.223  1.00  0.00     0.037 A 
HETATM    6  C   UNL     1      42.038 -12.847   5.648  1.00  0.00     0.049 A 
ENDROOT
BRANCH   2   7
HETATM    7  N   UNL     1      40.872 -13.042   2.082  1.00  0.00    -0.377 N 
HETATM    8  C   UNL     1      40.901 -11.893   1.142  1.00  0.00     0.143 C 
HETATM    9  C   UNL     1      41.207 -12.386  -0.292  1.00  0.00     0.143 C 
HETATM   10  N   UNL     1      40.270 -13.440  -0.727  1.00  0.00    -0.376 N 
HETATM   11  C   UNL     1      40.174 -14.565   0.234  1.00  0.00     0.143 C 
HETATM   12  C   UNL     1      39.879 -14.061   1.666  1.00  0.00     0.143 C 
BRANCH  10  13
HETATM   13  C   UNL     1      39.229 -13.220  -1.624  1.00  0.00     0.064 A 
HETATM   14  C   UNL     1      38.968 -13.981  -2.788  1.00  0.00     0.094 A 
HETATM   15  C   UNL     1      37.869 -13.678  -3.616  1.00  0.00     0.039 A 
HETATM   16  C   UNL     1      36.987 -12.650  -3.289  1.00  0.00     0.003 A 
HETATM   17  C   UNL     1      37.206 -11.906  -2.142  1.00  0.00     0.002 A 
HETATM   18  C   UNL     1      38.309 -12.190  -1.330  1.00  0.00     0.032 A 
BRANCH  14  19
HETATM   19  O   UNL     1      39.862 -14.960  -3.158  1.00  0.00    -0.354 OA
HETATM   20  C   UNL     1      39.295 -16.030  -3.910  1.00  0.00     0.210 C 
ENDBRANCH  14  19
ENDBRANCH  10  13
ENDBRANCH   2   7
BRANCH   1  21
HETATM   21  C   UNL     1      43.052 -14.080   3.784  1.00  0.00     0.254 C 
HETATM   22  N   UNL     1      42.661 -15.405   3.700  1.00  0.00    -0.353 N 
HETATM   23  H   UNL     1      41.791 -15.672   4.142  1.00  0.00     0.163 HD
HETATM   24  O   UNL     1      44.150 -13.663   3.443  1.00  0.00    -0.268 OA
BRANCH  22  25
HETATM   25  C   UNL     1      43.586 -16.452   3.284  1.00  0.00     0.080 C 
HETATM   26  C   UNL     1      43.365 -16.789   1.812  1.00  0.00     0.032 C 
BRANCH  25  27
HETATM   27  C   UNL     1      43.500 -17.686   4.199  1.00  0.00     0.020 C 
HETATM   28  C   UNL     1      42.084 -18.092   4.592  1.00  0.00     0.007 C 
ENDBRANCH  25  27
ENDBRANCH  22  25
ENDBRANCH   1  21
BRANCH   5  29
HETATM   29  N   UNL     1      41.116 -11.807   7.612  1.00  0.00    -0.309 N 
HETATM   30  C   UNL     1      41.685 -10.708   8.242  1.00  0.00     0.325 C 
HETATM   31  N   UNL     1      41.285 -10.646   9.567  1.00  0.00    -0.307 N 
HETATM   32  O   UNL     1      42.420  -9.899   7.692  1.00  0.00    -0.247 OA
HETATM   33  H   UNL     1      40.496 -11.222   9.824  1.00  0.00     0.170 HD
HETATM   34  H   UNL     1      40.823 -12.562   8.215  1.00  0.00     0.170 HD
BRANCH  31  35
HETATM   35  C   UNL     1      41.645  -9.667  10.527  1.00  0.00     0.053 A 
HETATM   36  C   UNL     1      42.689  -9.951  11.427  1.00  0.00     0.037 A 
HETATM   37 BR   UNL     1      43.630 -11.605  11.364  1.00  0.00    -0.049 Br
HETATM   38  C   UNL     1      43.062  -9.030  12.411  1.00  0.00     0.021 A 
HETATM   39  C   UNL     1      42.402  -7.806  12.504  1.00  0.00     0.002 A 
HETATM   40  C   UNL     1      41.381  -7.504  11.608  1.00  0.00     0.002 A 
HETATM   41  C   UNL     1      41.008  -8.426  10.624  1.00  0.00     0.031 A 
ENDBRANCH  31  35
ENDBRANCH   5  29
TORSDOF 8
ENDMDL
MODEL 7
REMARK VINA RESULT:      -7.7      4.262     10.823
REMARK  8 active torsions:
REMARK  status: ('A' for Active; 'I' for Inactive)
REMARK    1  A    between atoms: C_2  and  C_3 
REMARK    2  A    between atoms: C_3  and  N_4 
REMARK       I    between atoms: N_4  and  C_5 
REMARK    3  A    between atoms: C_5  and  C_6 
REMARK    4  A    between atoms: C_7  and  N_8 
REMARK    5  A    between atoms: N_11  and  C_12 
REMARK    6  A    between atoms: C_13  and  O_14 
REMARK    7  A    between atoms: C_24  and  N_25 
REMARK       I    between atoms: N_25  and  C_26 
REMARK       I    between atoms: C_26  and  N_27 
REMARK    8  A    between atoms: N_27  and  C_28 
ROOT
HETATM    1  C   UNL     1      40.538 -13.672   0.730  1.00  0.00     0.060 A 
HETATM    2  C   UNL     1      39.686 -13.026   1.651  1.00  0.00     0.046 A 
HETATM    3  C   UNL     1      39.902 -13.323   3.005  1.00  0.00     0.032 A 
HETATM    4  C   UNL     1      40.892 -14.223   3.423  1.00  0.00     0.032 A 
HETATM    5  C   UNL     1      41.710 -14.867   2.498  1.00  0.00     0.037 A 
HETATM    6  C   UNL     1      41.529 -14.585   1.145  1.00  0.00     0.049 A 
ENDROOT
BRANCH   2   7
HETATM    7  N   UNL     1      38.673 -12.148   1.249  1.00  0.00    -0.377 N 
HETATM    8  C   UNL     1      38.567 -10.901   2.048  1.00  0.00     0.143 C 
HETATM    9  C   UNL     1      37.714  -9.856   1.292  1.00  0.00     0.143 C 
HETATM   10  N   UNL     1      36.391 -10.389   0.912  1.00  0.00    -0.376 N 
HETATM   11  C   UNL     1      36.473 -11.671   0.173  1.00  0.00     0.143 C 
HETATM   12  C   UNL     1      37.337 -12.707   0.932  1.00  0.00     0.143 C 
BRANCH  10  13
HETATM   13  C   UNL     1      35.211 -10.056   1.570  1.00  0.00     0.064 A 
HETATM   14  C   UNL     1      35.073  -9.058   2.564  1.00  0.00     0.094 A 
HETATM   15  C   UNL     1      33.820  -8.792   3.151  1.00  0.00     0.039 A 
HETATM   16  C   UNL     1      32.678  -9.473   2.739  1.00  0.00     0.003 A 
HETATM   17  C   UNL     1      32.779 -10.438   1.750  1.00  0.00     0.002 A 
HETATM   18  C   UNL     1      34.026 -10.720   1.182  1.00  0.00     0.032 A 
BRANCH  14  19
HETATM   19  O   UNL     1      36.202  -8.418   3.025  1.00  0.00    -0.354 OA
HETATM   20  C   UNL     1      36.375  -8.466   4.439  1.00  0.00     0.210 C 
ENDBRANCH  14  19
ENDBRANCH  10  13
ENDBRANCH   2   7
BRANCH   1  21
HETATM   21  C   UNL     1      40.394 -13.495  -0.738  1.00  0.00     0.254 C 
HETATM   22  N   UNL     1      39.476 -14.351  -1.322  1.00  0.00    -0.353 N 
HETATM   23  H   UNL     1      39.133 -15.126  -0.771  1.00  0.00     0.163 HD
HETATM   24  O   UNL     1      41.009 -12.627  -1.342  1.00  0.00    -0.268 OA
BRANCH  22  25
HETATM   25  C   UNL     1      39.239 -14.353  -2.760  1.00  0.00     0.080 C 
HETATM   26  C   UNL     1      37.740 -14.277  -3.043  1.00  0.00     0.032 C 
BRANCH  25  27
HETATM   27  C   UNL     1      39.916 -15.550  -3.449  1.00  0.00     0.020 C 
HETATM   28  C   UNL     1      38.980 -16.426  -4.273  1.00  0.00     0.007 C 
ENDBRANCH  25  27
ENDBRANCH  22  25
ENDBRANCH   1  21
BRANCH   5  29
HETATM   29  N   UNL     1      42.671 -15.836   2.854  1.00  0.00    -0.309 N 
HETATM   30  C   UNL     1      42.492 -17.213   2.863  1.00  0.00     0.325 C 
HETATM   31  N   UNL     1      43.713 -17.861   2.946  1.00  0.00    -0.307 N 
HETATM   32  O   UNL     1      41.405 -17.771   2.788  1.00  0.00    -0.247 OA
HETATM   33  H   UNL     1      44.532 -17.301   2.755  1.00  0.00     0.170 HD
HETATM   34  H   UNL     1      43.536 -15.498   3.251  1.00  0.00     0.170 HD
BRANCH  31  35
HETATM   35  C   UNL     1      43.942 -19.260   2.970  1.00  0.00     0.053 A 
HETATM   36  C   UNL     1      44.478 -19.840   4.135  1.00  0.00     0.037 A 
HETATM   37 BR   UNL     1      44.879 -18.789   5.671  1.00  0.00    -0.049 Br
HETATM   38  C   UNL     1      44.749 -21.211   4.198  1.00  0.00     0.021 A 
HETATM   39  C   UNL     1      44.479 -22.024   3.100  1.00  0.00     0.002 A 
HETATM   40  C   UNL     1      43.931 -21.468   1.948  1.00  0.00     0.002 A 
HETATM   41  C   UNL     1      43.660 -20.097   1.885  1.00  0.00     0.031 A 
ENDBRANCH  31  35
ENDBRANCH   5  29
TORSDOF 8
ENDMDL
MODEL 8
REMARK VINA RESULT:      -7.7      2.954     10.553
REMARK  8 active torsions:
REMARK  status: ('A' for Active; 'I' for Inactive)
REMARK    1  A    between atoms: C_2  and  C_3 
REMARK    2  A    between atoms: C_3  and  N_4 
REMARK       I    between atoms: N_4  and  C_5 
REMARK    3  A    between atoms: C_5  and  C_6 
REMARK    4  A    between atoms: C_7  and  N_8 
REMARK    5  A    between atoms: N_11  and  C_12 
REMARK    6  A    between atoms: C_13  and  O_14 
REMARK    7  A    between atoms: C_24  and  N_25 
REMARK       I    between atoms: N_25  and  C_26 
REMARK       I    between atoms: C_26  and  N_27 
REMARK    8  A    between atoms: N_27  and  C_28 
ROOT
HETATM    1  C   UNL     1      41.618 -14.000   0.856  1.00  0.00     0.060 A 
HETATM    2  C   UNL     1      40.802 -14.389  -0.228  1.00  0.00     0.046 A 
HETATM    3  C   UNL     1      40.890 -15.735  -0.615  1.00  0.00     0.032 A 
HETATM    4  C   UNL     1      41.751 -16.640   0.020  1.00  0.00     0.032 A 
HETATM    5  C   UNL     1      42.565 -16.234   1.075  1.00  0.00     0.037 A 
HETATM    6  C   UNL     1      42.493 -14.905   1.493  1.00  0.00     0.049 A 
ENDROOT
BRANCH   2   7
HETATM    7  N   UNL     1      39.959 -13.491  -0.893  1.00  0.00    -0.377 N 
HETATM    8  C   UNL     1      38.525 -13.581  -0.521  1.00  0.00     0.143 C 
HETATM    9  C   UNL     1      37.772 -12.316  -0.996  1.00  0.00     0.143 C 
HETATM   10  N   UNL     1      37.960 -12.069  -2.440  1.00  0.00    -0.376 N 
HETATM   11  C   UNL     1      39.386 -12.045  -2.844  1.00  0.00     0.143 C 
HETATM   12  C   UNL     1      40.133 -13.309  -2.354  1.00  0.00     0.143 C 
BRANCH  10  13
HETATM   13  C   UNL     1      36.985 -12.331  -3.397  1.00  0.00     0.064 A 
HETATM   14  C   UNL     1      36.097 -11.379  -3.952  1.00  0.00     0.094 A 
HETATM   15  C   UNL     1      35.158 -11.755  -4.934  1.00  0.00     0.039 A 
HETATM   16  C   UNL     1      35.108 -13.061  -5.414  1.00  0.00     0.003 A 
HETATM   17  C   UNL     1      35.984 -14.007  -4.906  1.00  0.00     0.002 A 
HETATM   18  C   UNL     1      36.901 -13.642  -3.915  1.00  0.00     0.032 A 
BRANCH  14  19
HETATM   19  O   UNL     1      36.091 -10.099  -3.445  1.00  0.00    -0.354 OA
HETATM   20  C   UNL     1      34.795  -9.521  -3.306  1.00  0.00     0.210 C 
ENDBRANCH  14  19
ENDBRANCH  10  13
ENDBRANCH   2   7
BRANCH   1  21
HETATM   21  C   UNL     1      41.670 -12.599   1.343  1.00  0.00     0.254 C 
HETATM   22  N   UNL     1      40.849 -12.347   2.429  1.00  0.00    -0.353 N 
HETATM   23  H   UNL     1      40.162 -13.047   2.676  1.00  0.00     0.163 HD
HETATM   24  O   UNL     1      42.421 -11.773   0.842  1.00  0.00    -0.268 OA
BRANCH  22  25
HETATM   25  C   UNL     1      40.736 -11.016   3.012  1.00  0.00     0.080 C 
HETATM   26  C   UNL     1      41.197 -11.041   4.467  1.00  0.00     0.032 C 
BRANCH  25  27
HETATM   27  C   UNL     1      39.319 -10.439   2.844  1.00  0.00     0.020 C 
HETATM   28  C   UNL     1      38.393 -10.665   4.033  1.00  0.00     0.007 C 
ENDBRANCH  25  27
ENDBRANCH  22  25
ENDBRANCH   1  21
BRANCH   5  29
HETATM   29  N   UNL     1      43.502 -17.080   1.703  1.00  0.00    -0.309 N 
HETATM   30  C   UNL     1      43.221 -18.228   2.431  1.00  0.00     0.325 C 
HETATM   31  N   UNL     1      44.371 -18.975   2.624  1.00  0.00    -0.307 N 
HETATM   32  O   UNL     1      42.106 -18.541   2.829  1.00  0.00    -0.247 OA
HETATM   33  H   UNL     1      45.164 -18.736   2.044  1.00  0.00     0.170 HD
HETATM   34  H   UNL     1      44.460 -16.762   1.726  1.00  0.00     0.170 HD
BRANCH  31  35
HETATM   35  C   UNL     1      44.488 -20.212   3.308  1.00  0.00     0.053 A 
HETATM   36  C   UNL     1      44.657 -20.201   4.705  1.00  0.00     0.037 A 
HETATM   37 BR   UNL     1      44.714 -18.569   5.683  1.00  0.00    -0.049 Br
HETATM   38  C   UNL     1      44.805 -21.393   5.421  1.00  0.00     0.021 A 
HETATM   39  C   UNL     1      44.776 -22.614   4.753  1.00  0.00     0.002 A 
HETATM   40  C   UNL     1      44.589 -22.641   3.374  1.00  0.00     0.002 A 
HETATM   41  C   UNL     1      44.441 -21.449   2.657  1.00  0.00     0.031 A 
ENDBRANCH  31  35
ENDBRANCH   5  29
TORSDOF 8
ENDMDL
MODEL 9
REMARK VINA RESULT:      -7.6      5.100     11.113
REMARK  8 active torsions:
REMARK  status: ('A' for Active; 'I' for Inactive)
REMARK    1  A    between atoms: C_2  and  C_3 
REMARK    2  A    between atoms: C_3  and  N_4 
REMARK       I    between atoms: N_4  and  C_5 
REMARK    3  A    between atoms: C_5  and  C_6 
REMARK    4  A    between atoms: C_7  and  N_8 
REMARK    5  A    between atoms: N_11  and  C_12 
REMARK    6  A    between atoms: C_13  and  O_14 
REMARK    7  A    between atoms: C_24  and  N_25 
REMARK       I    between atoms: N_25  and  C_26 
REMARK       I    between atoms: C_26  and  N_27 
REMARK    8  A    between atoms: N_27  and  C_28 
ROOT
HETATM    1  C   UNL     1      40.999 -12.665   4.408  1.00  0.00     0.060 A 
HETATM    2  C   UNL     1      40.226 -11.697   3.733  1.00  0.00     0.046 A 
HETATM    3  C   UNL     1      39.716 -10.654   4.522  1.00  0.00     0.032 A 
HETATM    4  C   UNL     1      39.942 -10.584   5.903  1.00  0.00     0.032 A 
HETATM    5  C   UNL     1      40.690 -11.561   6.556  1.00  0.00     0.037 A 
HETATM    6  C   UNL     1      41.221 -12.605   5.800  1.00  0.00     0.049 A 
ENDROOT
BRANCH   2   7
HETATM    7  N   UNL     1      39.965 -11.767   2.359  1.00  0.00    -0.377 N 
HETATM    8  C   UNL     1      39.039 -12.853   1.949  1.00  0.00     0.143 C 
HETATM    9  C   UNL     1      38.520 -12.594   0.515  1.00  0.00     0.143 C 
HETATM   10  N   UNL     1      39.622 -12.407  -0.449  1.00  0.00    -0.376 N 
HETATM   11  C   UNL     1      40.597 -11.375  -0.022  1.00  0.00     0.143 C 
HETATM   12  C   UNL     1      41.102 -11.636   1.417  1.00  0.00     0.143 C 
BRANCH  10  13
HETATM   13  C   UNL     1      40.015 -13.379  -1.364  1.00  0.00     0.064 A 
HETATM   14  C   UNL     1      39.974 -13.250  -2.773  1.00  0.00     0.094 A 
HETATM   15  C   UNL     1      40.417 -14.296  -3.606  1.00  0.00     0.039 A 
HETATM   16  C   UNL     1      40.948 -15.465  -3.067  1.00  0.00     0.003 A 
HETATM   17  C   UNL     1      41.023 -15.607  -1.691  1.00  0.00     0.002 A 
HETATM   18  C   UNL     1      40.562 -14.580  -0.861  1.00  0.00     0.032 A 
BRANCH  14  19
HETATM   19  O   UNL     1      39.397 -12.126  -3.322  1.00  0.00    -0.354 OA
HETATM   20  C   UNL     1      40.233 -11.412  -4.229  1.00  0.00     0.210 C 
ENDBRANCH  14  19
ENDBRANCH  10  13
ENDBRANCH   2   7
BRANCH   1  21
HETATM   21  C   UNL     1      41.559 -13.853   3.715  1.00  0.00     0.254 C 
HETATM   22  N   UNL     1      40.785 -14.994   3.834  1.00  0.00    -0.353 N 
HETATM   23  H   UNL     1      40.035 -14.990   4.512  1.00  0.00     0.163 HD
HETATM   24  O   UNL     1      42.591 -13.786   3.060  1.00  0.00    -0.268 OA
BRANCH  22  25
HETATM   25  C   UNL     1      41.202 -16.266   3.257  1.00  0.00     0.080 C 
HETATM   26  C   UNL     1      40.258 -16.662   2.125  1.00  0.00     0.032 C 
BRANCH  25  27
HETATM   27  C   UNL     1      41.339 -17.361   4.330  1.00  0.00     0.020 C 
HETATM   28  C   UNL     1      40.986 -16.917   5.744  1.00  0.00     0.007 C 
ENDBRANCH  25  27
ENDBRANCH  22  25
ENDBRANCH   1  21
BRANCH   5  29
HETATM   29  N   UNL     1      40.888 -11.583   7.953  1.00  0.00    -0.309 N 
HETATM   30  C   UNL     1      41.619 -10.667   8.698  1.00  0.00     0.325 C 
HETATM   31  N   UNL     1      41.338 -10.805  10.047  1.00  0.00    -0.307 N 
HETATM   32  O   UNL     1      42.389  -9.843   8.222  1.00  0.00    -0.247 OA
HETATM   33  H   UNL     1      40.516 -11.343  10.281  1.00  0.00     0.170 HD
HETATM   34  H   UNL     1      40.566 -12.402   8.447  1.00  0.00     0.170 HD
BRANCH  31  35
HETATM   35  C   UNL     1      41.877 -10.047  11.118  1.00  0.00     0.053 A 
HETATM   36  C   UNL     1      43.073 -10.479  11.721  1.00  0.00     0.037 A 
HETATM   37 BR   UNL     1      43.979 -12.041  11.117  1.00  0.00    -0.049 Br
HETATM   38  C   UNL     1      43.629  -9.783  12.799  1.00  0.00     0.021 A 
HETATM   39  C   UNL     1      43.002  -8.637  13.283  1.00  0.00     0.002 A 
HETATM   40  C   UNL     1      41.830  -8.186  12.684  1.00  0.00     0.002 A 
HETATM   41  C   UNL     1      41.274  -8.883  11.606  1.00  0.00     0.031 A 
ENDBRANCH  31  35
ENDBRANCH   5  29
TORSDOF 8
ENDMDL
MODEL 10
REMARK VINA RESULT:      -7.6      4.195     10.961
REMARK  8 active torsions:
REMARK  status: ('A' for Active; 'I' for Inactive)
REMARK    1  A    between atoms: C_2  and  C_3 
REMARK    2  A    between atoms: C_3  and  N_4 
REMARK       I    between atoms: N_4  and  C_5 
REMARK    3  A    between atoms: C_5  and  C_6 
REMARK    4  A    between atoms: C_7  and  N_8 
REMARK    5  A    between atoms: N_11  and  C_12 
REMARK    6  A    between atoms: C_13  and  O_14 
REMARK    7  A    between atoms: C_24  and  N_25 
REMARK       I    between atoms: N_25  and  C_26 
REMARK       I    between atoms: C_26  and  N_27 
REMARK    8  A    between atoms: N_27  and  C_28 
ROOT
HETATM    1  C   UNL     1      40.605 -13.548   0.797  1.00  0.00     0.060 A 
HETATM    2  C   UNL     1      39.759 -12.887   1.713  1.00  0.00     0.046 A 
HETATM    3  C   UNL     1      39.964 -13.187   3.069  1.00  0.00     0.032 A 
HETATM    4  C   UNL     1      40.936 -14.103   3.492  1.00  0.00     0.032 A 
HETATM    5  C   UNL     1      41.748 -14.762   2.572  1.00  0.00     0.037 A 
HETATM    6  C   UNL     1      41.578 -14.479   1.217  1.00  0.00     0.049 A 
ENDROOT
BRANCH   2   7
HETATM    7  N   UNL     1      38.764 -11.992   1.306  1.00  0.00    -0.377 N 
HETATM    8  C   UNL     1      38.657 -10.756   2.120  1.00  0.00     0.143 C 
HETATM    9  C   UNL     1      37.829  -9.690   1.363  1.00  0.00     0.143 C 
HETATM   10  N   UNL     1      36.507 -10.204   0.953  1.00  0.00    -0.376 N 
HETATM   11  C   UNL     1      36.589 -11.476   0.197  1.00  0.00     0.143 C 
HETATM   12  C   UNL     1      37.428 -12.532   0.957  1.00  0.00     0.143 C 
BRANCH  10  13
HETATM   13  C   UNL     1      35.319  -9.867   1.593  1.00  0.00     0.064 A 
HETATM   14  C   UNL     1      34.019 -10.219   1.159  1.00  0.00     0.094 A 
HETATM   15  C   UNL     1      32.883  -9.839   1.901  1.00  0.00     0.039 A 
HETATM   16  C   UNL     1      33.011  -9.143   3.101  1.00  0.00     0.003 A 
HETATM   17  C   UNL     1      34.274  -8.807   3.562  1.00  0.00     0.002 A 
HETATM   18  C   UNL     1      35.402  -9.164   2.816  1.00  0.00     0.032 A 
BRANCH  14  19
HETATM   19  O   UNL     1      33.871 -10.852  -0.054  1.00  0.00    -0.354 OA
HETATM   20  C   UNL     1      32.760 -10.404  -0.826  1.00  0.00     0.210 C 
ENDBRANCH  14  19
ENDBRANCH  10  13
ENDBRANCH   2   7
BRANCH   1  21
HETATM   21  C   UNL     1      40.471 -13.371  -0.671  1.00  0.00     0.254 C 
HETATM   22  N   UNL     1      39.779 -14.390  -1.303  1.00  0.00    -0.353 N 
HETATM   23  H   UNL     1      39.595 -15.235  -0.777  1.00  0.00     0.163 HD
HETATM   24  O   UNL     1      40.901 -12.376  -1.239  1.00  0.00    -0.268 OA
BRANCH  22  25
HETATM   25  C   UNL     1      39.591 -14.408  -2.748  1.00  0.00     0.080 C 
HETATM   26  C   UNL     1      38.160 -14.007  -3.094  1.00  0.00     0.032 C 
BRANCH  25  27
HETATM   27  C   UNL     1      39.997 -15.760  -3.359  1.00  0.00     0.020 C 
HETATM   28  C   UNL     1      38.927 -16.419  -4.220  1.00  0.00     0.007 C 
ENDBRANCH  25  27
ENDBRANCH  22  25
ENDBRANCH   1  21
BRANCH   5  29
HETATM   29  N   UNL     1      42.691 -15.747   2.934  1.00  0.00    -0.309 N 
HETATM   30  C   UNL     1      42.506 -17.123   2.891  1.00  0.00     0.325 C 
HETATM   31  N   UNL     1      43.720 -17.779   3.001  1.00  0.00    -0.307 N 
HETATM   32  O   UNL     1      41.420 -17.671   2.756  1.00  0.00    -0.247 OA
HETATM   33  H   UNL     1      44.548 -17.218   2.860  1.00  0.00     0.170 HD
HETATM   34  H   UNL     1      43.540 -15.426   3.374  1.00  0.00     0.170 HD
BRANCH  31  35
HETATM   35  C   UNL     1      43.943 -19.180   2.989  1.00  0.00     0.053 A 
HETATM   36  C   UNL     1      44.489 -19.790   4.133  1.00  0.00     0.037 A 
HETATM   37 BR   UNL     1      44.913 -18.778   5.689  1.00  0.00    -0.049 Br
HETATM   38  C   UNL     1      44.754 -21.163   4.160  1.00  0.00     0.021 A 
HETATM   39  C   UNL     1      44.467 -21.948   3.046  1.00  0.00     0.002 A 
HETATM   40  C   UNL     1      43.908 -21.362   1.914  1.00  0.00     0.002 A 
HETATM   41  C   UNL     1      43.643 -19.988   1.887  1.00  0.00     0.031 A 
ENDBRANCH  31  35
ENDBRANCH   5  29
TORSDOF 8
ENDMDL
